@<TRIPOS>MOLECULE
HE0
   58    58     1     0     0
SMALL
bcc


@<TRIPOS>ATOM
      1 S1         -2.0630    1.3110    0.5970 ss        1 HE0     -0.400200
      2 C2         -1.7090    0.3970   -0.9590 c3        1 HE0      0.079100
      3 C3         -1.5400   -1.0960   -0.5340 c3        1 HE0      0.060500
      4 N4         -1.1820   -1.1740    0.8860 n7        1 HE0     -0.775200
      5 C5         -2.0330   -0.2170    1.5750 c3        1 HE0      0.198600
      6 C6         -1.6460    0.0470    3.0360 c3        1 HE0      0.012500
      7 C7         -2.5190    1.1890    3.5620 c         1 HE0      0.570900
      8 N8         -1.7160   -1.2200    3.8420 ny        1 HE0     -0.679800
      9 C9         -3.0780   -1.5650    4.4430 c         1 HE0      0.567100
     10 O10        -3.0730   -1.6140    5.6620 o         1 HE0     -0.412100
     11 C11        -4.2000   -1.8390    3.4890 c3        1 HE0     -0.156400
     12 C12        -5.2690   -2.6770    4.1720 c3        1 HE0     -0.077400
     13 C13        -6.4020   -3.0020    3.2210 c3        1 HE0     -0.083400
     14 C14        -7.3730   -1.8510    3.0660 c3        1 HE0     -0.101400
     15 C15        -8.2970   -2.0490    1.8480 c3        1 HE0      0.013700
     16 C16        -9.4610   -1.0660    2.0000 c         1 HE0      0.612100
     17 O17       -10.4950   -1.3980    2.8170 oh        1 HE0     -0.550100
     18 O18        -9.5540    0.0370    1.4660 o         1 HE0     -0.472000
     19 N19        -7.6330   -1.8490    0.5800 ns        1 HE0     -0.536900
     20 C20        -7.1040   -2.8880   -0.1350 c         1 HE0      0.658100
     21 O21        -7.2370   -4.0840    0.1960 o         1 HE0     -0.611100
     22 C22        -6.3070   -2.5270   -1.3990 c3        1 HE0      0.036800
     23 N23        -5.2970   -3.5680   -1.6890 nz        1 HE0     -0.838600
     24 C24        -2.8520    0.6020   -1.9170 c3        1 HE0     -0.092600
     25 C25        -0.4200    0.9400   -1.5250 c3        1 HE0     -0.092600
     26 C26        -2.8130   -1.9110   -0.8460 c         1 HE0      0.932600
     27 O27        -3.7290   -2.0880    0.0240 o         1 HE0     -0.863300
     28 O28        -2.9260   -2.4180   -1.9990 o         1 HE0     -0.863300
     29 O29        -3.3650    1.0150    4.4320 o         1 HE0     -0.485100
     30 H3         -0.7070   -1.5570   -1.1420 h1        1 HE0      0.112700
     31 HN4        -0.2110   -0.9240    0.9970 hn        1 HE0      0.358800
     32 H5         -3.0870   -0.6370    1.5240 h2        1 HE0      0.146700
     33 H6         -0.5670    0.4000    3.0900 hx        1 HE0      0.126700
     34 H7         -2.3100    2.1620    3.0620 h4        1 HE0      0.091200
     35 HN8        -1.0440   -1.1450    4.6170 hn        1 HE0      0.466300
     36 H11        -4.6290   -0.8400    3.1890 hc        1 HE0      0.120200
     37 H11A       -3.8390   -2.3510    2.5510 hc        1 HE0      0.120200
     38 H12        -4.8110   -3.6350    4.5360 hc        1 HE0      0.070700
     39 H12A       -5.6600   -2.1310    5.0720 hc        1 HE0      0.070700
     40 H13        -5.9820   -3.2970    2.2220 hc        1 HE0      0.066200
     41 H13A       -6.9540   -3.8970    3.6160 hc        1 HE0      0.066200
     42 H14        -6.8220   -0.8790    2.9680 hc        1 HE0      0.064700
     43 H14A       -8.0180   -1.7750    3.9820 hc        1 HE0      0.064700
     44 H15        -8.7000   -3.1090    1.8680 h1        1 HE0      0.107700
     45 HN19       -7.5210   -0.9070    0.2740 hn        1 HE0      0.346500
     46 H22        -5.7370   -1.5590   -1.2540 hx        1 HE0      0.127700
     47 H22A       -7.0180   -2.4320   -2.2670 hx        1 HE0      0.127700
     48 HN23       -4.6490   -3.6220   -0.8700 hn        1 HE0      0.480467
     49 HN2A       -4.7010   -3.2710   -2.4860 hn        1 HE0      0.480467
     50 H24        -2.9070    1.6710   -2.2370 hc        1 HE0      0.058367
     51 H24A       -2.7010   -0.0410   -2.8220 hc        1 HE0      0.058367
     52 H24B       -3.8220    0.3160   -1.4420 hc        1 HE0      0.058367
     53 H25        -0.2060    0.4580   -2.5120 hc        1 HE0      0.058367
     54 H25A       -0.4970    2.0440   -1.6840 hc        1 HE0      0.058367
     55 H25B        0.4360    0.7390   -0.8370 hc        1 HE0      0.058367
     56 H82        -1.4380   -2.0070    3.2380 hn        1 HE0      0.466300
     57 H192      -10.3680   -2.2850    3.1830 ho        1 HE0      0.435000
     58 H233       -5.7370   -4.4720   -1.8520 hn        1 HE0      0.480467
@<TRIPOS>BOND
     1    1    2 1   
     2    1    5 1   
     3    2    3 1   
     4    2   24 1   
     5    2   25 1   
     6    3    4 1   
     7    3   26 1   
     8    3   30 1   
     9    4    5 1   
    10    4   31 1   
    11    5    6 1   
    12    5   32 1   
    13    6    7 1   
    14    6    8 1   
    15    6   33 1   
    16    7   29 2   
    17    7   34 1   
    18    8    9 1   
    19    8   35 1   
    20    8   56 1   
    21    9   10 2   
    22    9   11 1   
    23   11   12 1   
    24   11   36 1   
    25   11   37 1   
    26   12   13 1   
    27   12   38 1   
    28   12   39 1   
    29   13   14 1   
    30   13   40 1   
    31   13   41 1   
    32   14   15 1   
    33   14   42 1   
    34   14   43 1   
    35   15   16 1   
    36   15   19 1   
    37   15   44 1   
    38   16   17 1   
    39   16   18 2   
    40   17   57 1   
    41   19   20 1   
    42   19   45 1   
    43   20   21 2   
    44   20   22 1   
    45   22   23 1   
    46   22   46 1   
    47   22   47 1   
    48   23   48 1   
    49   23   49 1   
    50   23   58 1   
    51   24   50 1   
    52   24   51 1   
    53   24   52 1   
    54   25   53 1   
    55   25   54 1   
    56   25   55 1   
    57   26   27 1   
    58   26   28 1   
@<TRIPOS>SUBSTRUCTURE
     1 HE0         1 TEMP              0 ****  ****    0 ROOT
