@<TRIPOS>MOLECULE
HE0
   55    55     1     0     0
SMALL
bcc


@<TRIPOS>ATOM
      1 S1          2.2320   -1.9370   -4.3740 ss        1 HE0     -0.508200
      2 C2          3.7960   -2.1120   -4.9890 c3        1 HE0      0.091100
      3 C3          4.8150   -1.3220   -3.8770 c3        1 HE0      0.024500
      4 N4          3.9000   -0.6350   -3.1170 n3        1 HE0     -0.797200
      5 C5          2.4310   -1.4900   -3.1000 c3        1 HE0      0.287600
      6 C6          1.2640   -0.5400   -2.6780 c3        1 HE0     -0.011300
      7 C7          0.3100   -0.3840   -3.8190 c         1 HE0      0.589900
      8 N8          0.5910   -1.0870   -1.5770 n         1 HE0     -0.555900
      9 C9          0.0460   -0.2340   -0.5830 c         1 HE0      0.659100
     10 O10         0.4360    0.9120   -0.4870 o         1 HE0     -0.625100
     11 C11        -1.0400   -0.7430    0.3390 c3        1 HE0     -0.150400
     12 C12        -1.0110    0.0410    1.6330 c3        1 HE0     -0.072400
     13 C13        -2.4190    0.1770    2.1720 c3        1 HE0     -0.090400
     14 C14        -2.3650    0.5420    3.6400 c3        1 HE0     -0.059400
     15 C15        -3.6380    1.2620    4.0280 c3        1 HE0     -0.048300
     16 C16        -4.6480    0.2590    4.5380 c         1 HE0      0.909600
     17 O17        -4.4760   -0.2960    5.6550 o         1 HE0     -0.833300
     18 O18        -5.6580   -0.0270    3.8410 o         1 HE0     -0.833300
     19 N19        -3.3540    2.2080    5.0470 n         1 HE0     -0.508900
     20 C20        -4.3130    3.1980    5.3830 c         1 HE0      0.601100
     21 O21        -5.4060    3.1890    4.8530 o         1 HE0     -0.666100
     22 C22        -3.9830    4.2510    6.4200 c3        1 HE0      0.065800
     23 N23        -4.9710    5.2780    6.3850 n3        1 HE0     -0.888800
     24 C24         3.9000   -1.4590   -6.3490 c3        1 HE0     -0.081600
     25 C25         4.1610   -3.5780   -5.0820 c3        1 HE0     -0.081600
     26 C26         5.6890   -2.2190   -3.1100 c         1 HE0      0.927600
     27 O27         6.8710   -2.4250   -3.4930 o         1 HE0     -0.826800
     28 O28         5.2560   -2.7850   -2.0720 o         1 HE0     -0.826800
     29 O29         0.2130    0.6870   -4.3870 o         1 HE0     -0.541100
     30 H3          5.4610   -0.7300   -4.3140 h1        1 HE0      0.060700
     31 HN4         4.1770   -0.3500   -2.2940 hn        1 HE0      0.399800
     32 H5          2.4890   -2.2470   -2.4830 h2        1 HE0      0.066700
     33 H6          1.6280    0.3340   -2.4350 h1        1 HE0      0.112700
     34 H7         -0.2200   -1.1480   -4.1200 h4        1 HE0      0.014200
     35 HN8         0.4760   -1.9900   -1.5150 hn        1 HE0      0.320500
     36 H11        -1.9110   -0.6310   -0.0910 hc        1 HE0      0.067700
     37 H11A       -0.8880   -1.6910    0.5290 hc        1 HE0      0.067700
     38 H12        -0.6380    0.9300    1.4680 hc        1 HE0      0.041200
     39 H12A       -0.4560   -0.4290    2.2870 hc        1 HE0      0.041200
     40 H13        -2.8910    0.8780    1.6790 hc        1 HE0      0.063200
     41 H13A       -2.8930   -0.6720    2.0640 hc        1 HE0      0.063200
     42 H14        -2.2750   -0.2710    4.1750 hc        1 HE0      0.029700
     43 H14A       -1.5980    1.1260    3.8020 hc        1 HE0      0.029700
     44 H15        -4.0020    1.7240    3.2460 h1        1 HE0      0.067700
     45 HN19       -2.5600    2.1710    5.4950 hn        1 HE0      0.323500
     46 H22        -3.9700    3.8400    7.3090 h1        1 HE0      0.062700
     47 H22A       -3.1040    4.6360    6.2250 h1        1 HE0      0.062700
     48 HN23       -4.5770    6.0740    6.1600 hn        1 HE0      0.345300
     49 HN2A       -5.3630    5.3530    7.2100 hn        1 HE0      0.345300
     50 H24         3.1940   -1.8070   -6.9340 hc        1 HE0      0.044033
     51 H24A        3.7970   -0.4890   -6.2540 hc        1 HE0      0.044033
     52 H24B        4.7770   -1.6570   -6.7410 hc        1 HE0      0.044033
     53 H25         4.0990   -3.9870   -4.1930 hc        1 HE0      0.044033
     54 H25A        5.0770   -3.6660   -5.4190 hc        1 HE0      0.044033
     55 H25B        3.5430   -4.0300   -5.6930 hc        1 HE0      0.044033
@<TRIPOS>BOND
     1    1    2 1   
     2    1    5 1   
     3    2    3 1   
     4    2   24 1   
     5    2   25 1   
     6    3    4 1   
     7    3   26 1   
     8    3   30 1   
     9    4    5 1   
    10    4   31 1   
    11    5    6 1   
    12    5   32 1   
    13    6    7 1   
    14    6    8 1   
    15    6   33 1   
    16    7   29 2   
    17    7   34 1   
    18    8    9 1   
    19    8   35 1   
    20    9   10 2   
    21    9   11 1   
    22   11   12 1   
    23   11   36 1   
    24   11   37 1   
    25   12   13 1   
    26   12   38 1   
    27   12   39 1   
    28   13   14 1   
    29   13   40 1   
    30   13   41 1   
    31   14   15 1   
    32   14   42 1   
    33   14   43 1   
    34   15   16 1   
    35   15   19 1   
    36   15   44 1   
    37   16   17 1   
    38   16   18 1   
    39   19   20 1   
    40   19   45 1   
    41   20   21 2   
    42   20   22 1   
    43   22   23 1   
    44   22   46 1   
    45   22   47 1   
    46   23   48 1   
    47   23   49 1   
    48   24   50 1   
    49   24   51 1   
    50   24   52 1   
    51   25   53 1   
    52   25   54 1   
    53   25   55 1   
    54   26   27 1   
    55   26   28 1   
@<TRIPOS>SUBSTRUCTURE
     1 HE0         1 TEMP              0 ****  ****    0 ROOT
