@<TRIPOS>MOLECULE
HE0
   58    58     1     0     0
SMALL
bcc


@<TRIPOS>ATOM
      1 S1         -2.2210    1.5620    0.9110 ss        1 HE0     -0.334200
      2 C2         -1.6550    0.8410   -0.6750 c3        1 HE0      0.106100
      3 C3         -1.6970   -0.6870   -0.4500 c3        1 HE0      0.060500
      4 N4         -1.5680   -0.9880    0.9870 n3        1 HE0     -0.793200
      5 C5         -2.3590   -0.0240    1.7440 c3        1 HE0      0.215600
      6 C6         -1.8640    0.1580    3.1970 c3        1 HE0      0.002500
      7 C7         -2.7950    1.1640    3.8770 c         1 HE0      0.564900
      8 N8         -1.7240   -1.1370    3.9450 n4        1 HE0     -0.674800
      9 C9         -3.0120   -1.7770    4.4540 c         1 HE0      0.560100
     10 O10        -3.0050   -1.9930    5.6550 o         1 HE0     -0.408100
     11 C11        -4.0870   -2.0810    3.4560 c3        1 HE0     -0.152400
     12 C12        -4.9750   -3.2110    3.9520 c3        1 HE0     -0.077400
     13 C13        -6.0500   -3.5410    2.9360 c3        1 HE0     -0.086400
     14 C14        -7.2250   -2.5910    3.0150 c3        1 HE0     -0.100400
     15 C15        -8.1510   -2.7320    1.7900 c3        1 HE0      0.014700
     16 C16        -9.4840   -2.0730    2.1540 c         1 HE0      0.610100
     17 O17       -10.3770   -2.7710    2.9050 oh        1 HE0     -0.550100
     18 O18        -9.8380   -0.9360    1.8510 o         1 HE0     -0.473000
     19 N19        -7.6110   -2.1450    0.5860 n         1 HE0     -0.541900
     20 C20        -6.9910   -2.8930   -0.3780 c         1 HE0      0.662100
     21 O21        -6.8800   -4.1340   -0.3130 o         1 HE0     -0.609100
     22 C22        -6.4050   -2.1230   -1.5730 c3        1 HE0      0.039800
     23 N23        -5.3510   -2.9140   -2.2450 n4        1 HE0     -0.836600
     24 C24        -2.5840    1.3160   -1.7610 c3        1 HE0     -0.092600
     25 C25        -0.2430    1.3100   -0.9310 c3        1 HE0     -0.092600
     26 C26        -2.9500   -1.3570   -1.0550 c         1 HE0      0.895600
     27 O27        -3.8070   -1.8870   -0.2660 o         1 HE0     -0.863300
     28 O28        -3.1030   -1.4400   -2.3060 o         1 HE0     -0.863300
     29 O29        -3.5700    0.8320    4.7680 o         1 HE0     -0.488100
     30 H3         -0.7980   -1.1530   -0.9550 h1        1 HE0      0.115700
     31 HN4        -1.9380   -1.9170    1.1340 hn        1 HE0      0.368800
     32 H5         -3.4550   -0.2930    1.7630 h2        1 HE0      0.085700
     33 H6         -0.8210    0.6120    3.1620 hx        1 HE0      0.143700
     34 H7         -2.7030    2.1930    3.4650 h4        1 HE0      0.088200
     35 HN8        -1.1270   -0.9590    4.7660 hn        1 HE0      0.463300
     36 H11        -3.6640   -2.3480    2.4480 hc        1 HE0      0.112700
     37 H11A       -4.6990   -1.1400    3.3410 hc        1 HE0      0.112700
     38 H12        -5.4380   -2.9260    4.9340 hc        1 HE0      0.071200
     39 H12A       -4.3460   -4.1240    4.1310 hc        1 HE0      0.071200
     40 H13        -6.4100   -4.5880    3.1260 hc        1 HE0      0.068700
     41 H13A       -5.6130   -3.5330    1.9010 hc        1 HE0      0.068700
     42 H14        -6.8710   -1.5310    3.1030 hc        1 HE0      0.064200
     43 H14A       -7.8310   -2.8150    3.9350 hc        1 HE0      0.064200
     44 H15        -8.3250   -3.8360    1.5950 h1        1 HE0      0.107700
     45 HN19       -7.7110   -1.1590    0.4820 hn        1 HE0      0.345500
     46 H22        -7.2280   -1.8860   -2.3040 hx        1 HE0      0.127700
     47 H22A       -5.9100   -1.1680   -1.2160 hx        1 HE0      0.127700
     48 HN23       -4.8160   -2.3040   -2.8980 hn        1 HE0      0.479800
     49 HN2A       -4.6620   -3.2060   -1.5160 hn        1 HE0      0.479800
     50 H24        -2.3330    0.8010   -2.7240 hc        1 HE0      0.059867
     51 H24A       -3.6460    1.0780   -1.5110 hc        1 HE0      0.059867
     52 H24B       -2.4830    2.4200   -1.9020 hc        1 HE0      0.059867
     53 H25        -0.1990    2.4270   -0.9280 hc        1 HE0      0.059867
     54 H25A        0.4560    0.9210   -0.1520 hc        1 HE0      0.059867
     55 H25B        0.1010    0.9480   -1.9330 hc        1 HE0      0.059867
     56 H82        -1.2420   -1.8150    3.3430 hn        1 HE0      0.463300
     57 H192      -10.0460   -3.6630    3.0850 ho        1 HE0      0.434000
     58 H233       -5.7380   -3.7310   -2.7100 hn        1 HE0      0.479800
@<TRIPOS>BOND
     1    1    2 1   
     2    1    5 1   
     3    2    3 1   
     4    2   24 1   
     5    2   25 1   
     6    3    4 1   
     7    3   26 1   
     8    3   30 1   
     9    4    5 1   
    10    4   31 1   
    11    5    6 1   
    12    5   32 1   
    13    6    7 1   
    14    6    8 1   
    15    6   33 1   
    16    7   29 2   
    17    7   34 1   
    18    8    9 1   
    19    8   35 1   
    20    8   56 1   
    21    9   10 2   
    22    9   11 1   
    23   11   12 1   
    24   11   36 1   
    25   11   37 1   
    26   12   13 1   
    27   12   38 1   
    28   12   39 1   
    29   13   14 1   
    30   13   40 1   
    31   13   41 1   
    32   14   15 1   
    33   14   42 1   
    34   14   43 1   
    35   15   16 1   
    36   15   19 1   
    37   15   44 1   
    38   16   17 1   
    39   16   18 2   
    40   17   57 1   
    41   19   20 1   
    42   19   45 1   
    43   20   21 2   
    44   20   22 1   
    45   22   23 1   
    46   22   46 1   
    47   22   47 1   
    48   23   48 1   
    49   23   49 1   
    50   23   58 1   
    51   24   50 1   
    52   24   51 1   
    53   24   52 1   
    54   25   53 1   
    55   25   54 1   
    56   25   55 1   
    57   26   27 1   
    58   26   28 1   
@<TRIPOS>SUBSTRUCTURE
     1 HE0         1 TEMP              0 ****  ****    0 ROOT
