@<TRIPOS>MOLECULE
HE1
   27    23     1     0     0
SMALL
bcc


@<TRIPOS>ATOM
      1 P1         -0.2170   -0.2450    5.1400 p3        1 HE1      2.590000
      2 O1          1.2440   -0.2030    4.8670 os        1 HE1     -1.267000
      3 O2         -0.4700    0.1030    6.6080 o         1 HE1     -1.262500
      4 O3         -0.7450   -1.6410    4.8580 o         1 HE1     -1.262500
      5 C1         -1.0400    0.9350    4.0920 c2        1 HE1     -0.611000
      6 C2         -0.9200    0.8320    2.6620 c1        1 HE1     -0.217000
      7 C3         -0.4580   -0.4260    0.5590 c3        1 HE1     -0.195000
      8 C4         -0.0920   -0.2850    2.0400 c2        1 HE1     -0.189000
      9 S1          0.4090    0.7820   -0.3750 ss        1 HE1      0.172000
     10 OH         -1.4770    1.4330   -2.5940 oh        1 HE1     -0.233000
     11 C5          1.0130   -0.4740   -4.6850 c1        1 HE1     -0.153000
     12 C6         -0.1210    0.3420   -4.3000 c1        1 HE1     -0.199000
     13 C7         -0.3090    0.6800   -2.9850 c2        1 HE1      0.049000
     14 C8          0.5770    0.2430   -2.0340 c2        1 HE1     -0.209000
     15 C9          1.6370   -0.5190   -2.3930 c1        1 HE1     -0.133000
     16 C10         1.8390   -0.8800   -3.7980 c1        1 HE1     -0.153000
     17 H1         -1.5660    1.6470    4.4850 ha        1 HE1      0.077000
     18 H2         -1.3680    1.4750    2.0920 ha        1 HE1      0.020000
     19 H31        -0.2300   -1.2720    0.2640 h1        1 HE1      0.105000
     20 H32        -1.3690   -0.3010    0.4550 h1        1 HE1      0.105000
     21 H41        -0.2630   -1.0380    2.4530 ha        1 HE1      0.147500
     22 H42         0.7850   -0.0910    2.1200 ha        1 HE1      0.147500
     23 HO7        -2.2490    1.1870   -3.1840 ho        1 HE1      0.207000
     24 H5          1.1480   -0.7150   -5.6110 ha        1 HE1      0.107500
     25 H6         -0.7940    0.6710   -5.0240 ha        1 HE1      0.114000
     26 H9          2.3430   -0.8680   -1.6250 ha        1 HE1      0.134000
     27 H10         2.6920   -1.3720   -4.0850 ha        1 HE1      0.107500
@<TRIPOS>BOND
     1    1    3 1   
     2    1    4 1   
     3    1    5 1   
     4    5    6 1   
     5    5   17 1   
     6    6   18 1   
     7    7    8 1   
     8    7    9 1   
     9    7   19 1   
    10    7   20 1   
    11    8   21 1   
    12    8   22 1   
    13    9   14 1   
    14   10   13 1   
    15   10   23 1   
    16   11   16 1   
    17   11   24 1   
    18   12   13 1   
    19   12   25 1   
    20   13   14 1   
    21   14   15 1   
    22   15   26 1   
    23   16   27 1   
@<TRIPOS>SUBSTRUCTURE
     1 HE1         1 TEMP              0 ****  ****    0 ROOT
