@<TRIPOS>MOLECULE
HE1
   27    27     1     0     0
SMALL
bcc


@<TRIPOS>ATOM
      1 P1          1.2040    0.9140    2.5410 p5        1 HE1      1.205100
      2 O1          0.7600    0.1500    3.7700 o         1 HE1     -0.951500
      3 O2          0.4320    2.1820    2.2560 o         1 HE1     -0.951500
      4 O3          2.7040    1.0220    2.3680 o         1 HE1     -0.951500
      5 C1          0.6680   -0.1770    1.2310 c2        1 HE1     -0.181600
      6 C2          1.5920   -0.6880    0.4350 c2        1 HE1     -0.268200
      7 C3          1.8860   -3.0020   -0.2920 c3        1 HE1      0.040700
      8 C4          1.3540   -1.6440   -0.6820 c3        1 HE1     -0.024200
      9 S1          1.7920   -4.0230   -1.7640 ss        1 HE1     -0.308000
     10 C5          2.7730   -8.2790   -0.6170 ca        1 HE1     -0.135000
     11 C6          2.1650   -8.0000   -1.8380 ca        1 HE1     -0.162000
     12 C7          1.8550   -6.6730   -2.1670 ca        1 HE1      0.118100
     13 C8          2.1550   -5.6080   -1.2880 ca        1 HE1     -0.037100
     14 C9          2.7570   -5.9270   -0.0640 ca        1 HE1     -0.109000
     15 C10         3.0620   -7.2440    0.2700 ca        1 HE1     -0.152000
     16 H1         -0.3990   -0.3920    1.1640 ha        1 HE1      0.080000
     17 H2          2.6440   -0.3910    0.6060 ha        1 HE1      0.158000
     18 H31         1.2780   -3.4460    0.5290 h1        1 HE1      0.074200
     19 H32         2.9470   -2.9260    0.0430 h1        1 HE1      0.074200
     20 H41         0.2590   -1.7190   -0.9160 hc        1 HE1      0.019200
     21 H42         1.8760   -1.2890   -1.6120 hc        1 HE1      0.019200
     22 HO7         0.9430   -5.5680   -3.4360 ho        1 HE1      0.435000
     23 H5          3.0180   -9.3170   -0.3550 ha        1 HE1      0.113000
     24 H6          1.9210   -8.8000   -2.5490 ha        1 HE1      0.129000
     25 H9          2.9920   -5.1190    0.6490 ha        1 HE1      0.156000
     26 H10         3.5320   -7.4630    1.2390 ha        1 HE1      0.125000
     27 OH          1.2540   -6.4880   -3.3940 oh        1 HE1     -0.519100
@<TRIPOS>BOND
     1    1    2 1   
     2    1    3 1   
     3    1    4 1   
     4    1    5 1   
     5    5    6 2   
     6    5   16 1   
     7    6    8 1   
     8    6   17 1   
     9    7    8 1   
    10    7    9 1   
    11    7   18 1   
    12    7   19 1   
    13    8   20 1   
    14    8   21 1   
    15    9   13 1   
    16   10   11 ar  
    17   10   15 ar  
    18   10   23 1   
    19   11   12 ar  
    20   11   24 1   
    21   12   13 ar  
    22   12   27 1   
    23   13   14 ar  
    24   14   15 ar  
    25   14   25 1   
    26   15   26 1   
    27   22   27 1   
@<TRIPOS>SUBSTRUCTURE
     1 HE1         1 TEMP              0 ****  ****    0 ROOT
