@<TRIPOS>MOLECULE
HE1
   27    25     1     0     0
SMALL
bcc


@<TRIPOS>ATOM
      1 P1        -35.0260  800.7540  665.6690 p3        1 HE1      2.361000
      2 O1        -33.6270  800.5030  666.0590 o         1 HE1     -1.120000
      3 O2        -36.1240  800.1090  666.4100 o         1 HE1     -1.120000
      4 O3        -35.3260  801.6500  664.5390 o         1 HE1     -1.120000
      5 C1          0.9680  -16.0960  -16.3470 c2        1 HE1     -0.209000
      6 C2          1.7440  -17.1770  -16.4540 c2        1 HE1     -0.137000
      7 C3          3.2090  -18.8610  -15.4350 c2        1 HE1     -0.209000
      8 C4          2.4310  -17.7820  -15.3280 c2        1 HE1     -0.137000
      9 S1          9.0790 -243.1850 -199.8580 s         1 HE1     -0.471000
     10 C5         11.1890 -239.2810 -200.5370 c2        1 HE1     -0.316000
     11 C6         10.3810 -239.4730 -199.4130 c2        1 HE1      0.009000
     12 C7          9.7250 -240.6880 -199.2040 c2        1 HE1     -0.132000
     13 C8          9.8360 -241.7750 -200.0960 c2        1 HE1     -0.050000
     14 C9         10.7010 -241.5620 -201.2960 c3        1 HE1     -0.158000
     15 C10        11.3700 -240.2730 -201.4770 c1        1 HE1     -0.265000
     16 H1          0.7920  -15.5820  -15.3930 ha        1 HE1      0.112500
     17 H2          0.4590  -15.6560  -17.2140 ha        1 HE1      0.112500
     18 H31         1.8970  -17.6670  -17.4320 ha        1 HE1      0.121000
     19 H32         3.7190  -19.3000  -14.5680 ha        1 HE1      0.112500
     20 H41         3.3880  -19.3740  -16.3890 ha        1 HE1      0.112500
     21 H42         2.2760  -17.2940  -14.3500 ha        1 HE1      0.121000
     22 HO7         8.5620 -241.6610 -198.0490 ho        1 HE1      0.229000
     23 H5         10.2430 -238.6730 -198.6680 ha        1 HE1      0.101000
     24 H6         11.6880 -238.3110 -200.6670 ha        1 HE1      0.100000
     25 H9         10.0770 -241.7440 -202.2190 hc        1 HE1      0.129000
     26 H10        11.5030 -242.3560 -201.2990 hc        1 HE1      0.129000
     27 OH          8.9480 -240.7660 -198.0520 oh        1 HE1     -0.306000
@<TRIPOS>BOND
     1    1    2 1   
     2    1    3 1   
     3    1    4 1   
     4    5    6 1   
     5    5   16 1   
     6    5   17 1   
     7    6    8 1   
     8    6   18 1   
     9    7    8 1   
    10    7   19 1   
    11    7   20 1   
    12    8   21 1   
    13    9   13 1   
    14   10   11 1   
    15   10   15 1   
    16   10   24 1   
    17   11   12 1   
    18   11   23 1   
    19   12   13 1   
    20   12   27 1   
    21   13   14 1   
    22   14   15 1   
    23   14   25 1   
    24   14   26 1   
    25   22   27 1   
@<TRIPOS>SUBSTRUCTURE
     1 HE1         1 TEMP              0 ****  ****    0 ROOT
