@<TRIPOS>MOLECULE
HE2
   21    20     1     0     0
SMALL
bcc


@<TRIPOS>ATOM
      1 CAA         3.7990   -0.3470    0.0000 c3        1 HE2     -0.093100
      2 CAC         2.5500    0.4960    0.0000 c3        1 HE2     -0.080400
      3 CAE         1.3020   -0.3620    0.0000 c3        1 HE2     -0.078400
      4 CAG         0.0500    0.4880   -0.0000 c3        1 HE2     -0.078400
      5 CAF        -1.1930   -0.3730   -0.0000 c3        1 HE2     -0.084400
      6 CAD        -2.4420    0.4920    0.0000 c3        1 HE2      0.131400
      7 OAB        -3.5570   -0.3860   -0.0000 oh        1 HE2     -0.601800
      8 HAA1        4.7060    0.3040    0.0000 hc        1 HE2      0.032700
      9 HAA2        3.8340   -1.0000    0.9050 hc        1 HE2      0.032700
     10 HAA3        3.8340   -1.0000   -0.9050 hc        1 HE2      0.032700
     11 HAC1        2.5450    1.1630    0.9020 hc        1 HE2      0.037700
     12 HAC2        2.5450    1.1630   -0.9020 hc        1 HE2      0.037700
     13 HAE1        1.3040   -1.0280   -0.9030 hc        1 HE2      0.041700
     14 HAE2        1.3040   -1.0280    0.9030 hc        1 HE2      0.041700
     15 HAG1        0.0480    1.1550    0.9030 hc        1 HE2      0.038700
     16 HAG2        0.0480    1.1550   -0.9030 hc        1 HE2      0.038700
     17 HAF1       -1.2050   -1.0380   -0.9020 hc        1 HE2      0.055700
     18 HAF2       -1.2050   -1.0380    0.9020 hc        1 HE2      0.055700
     19 HAD1       -2.4700    1.1460    0.9130 h1        1 HE2      0.019700
     20 HAD2       -2.4700    1.1460   -0.9130 h1        1 HE2      0.019700
     21 HAB        -4.3440    0.1700   -0.0000 ho        1 HE2      0.398000
@<TRIPOS>BOND
     1    1    2 1   
     2    1    8 1   
     3    1    9 1   
     4    1   10 1   
     5    2    3 1   
     6    2   11 1   
     7    2   12 1   
     8    3    4 1   
     9    3   13 1   
    10    3   14 1   
    11    4    5 1   
    12    4   15 1   
    13    4   16 1   
    14    5    6 1   
    15    5   17 1   
    16    5   18 1   
    17    6    7 1   
    18    6   19 1   
    19    6   20 1   
    20    7   21 1   
@<TRIPOS>SUBSTRUCTURE
     1 HE2         1 TEMP              0 ****  ****    0 ROOT
