@<TRIPOS>MOLECULE
HE2
   21    20     1     0     0
SMALL
bcc


@<TRIPOS>ATOM
      1 CAA        -2.9770   -0.0000   -1.5770 c3        1 HE2     -0.093100
      2 CAC        -1.4640   -0.0000   -1.5770 c3        1 HE2     -0.080400
      3 CAE        -0.9600   -0.0000   -0.1510 c3        1 HE2     -0.078400
      4 CAG         0.5530    0.0000   -0.1510 c3        1 HE2     -0.078400
      5 CAF         1.0570   -0.0000    1.2760 c3        1 HE2     -0.084400
      6 CAD         2.5700    0.0010    1.2760 c3        1 HE2      0.131400
      7 OAB         3.0400   -0.0000    2.6050 oh        1 HE2     -0.601800
      8 HAA1       -3.3030    0.7970   -1.1170 hc        1 HE2      0.032700
      9 HAA2       -3.3030   -0.7970   -1.1170 hc        1 HE2      0.032700
     10 HAA3       -3.3030   -0.0000   -2.4970 hc        1 HE2      0.032700
     11 HAC1       -1.1390   -0.7970   -2.0370 hc        1 HE2      0.037700
     12 HAC2       -1.1390    0.7970   -2.0370 hc        1 HE2      0.037700
     13 HAE1       -1.2860    0.7960    0.3100 hc        1 HE2      0.041700
     14 HAE2       -1.2850   -0.7980    0.3090 hc        1 HE2      0.041700
     15 HAG1        0.8790   -0.7960   -0.6110 hc        1 HE2      0.038700
     16 HAG2        0.8780    0.7980   -0.6100 hc        1 HE2      0.038700
     17 HAF1        0.7320   -0.7980    1.7350 hc        1 HE2      0.055700
     18 HAF2        0.7310    0.7960    1.7360 hc        1 HE2      0.055700
     19 HAD1        2.8960   -0.7950    0.8150 h1        1 HE2      0.019700
     20 HAD2        2.8950    0.7990    0.8160 h1        1 HE2      0.019700
     21 HAB         3.9280    0.0000    2.6060 ho        1 HE2      0.398000
@<TRIPOS>BOND
     1    1    2 1   
     2    1    8 1   
     3    1    9 1   
     4    1   10 1   
     5    2    3 1   
     6    2   11 1   
     7    2   12 1   
     8    3    4 1   
     9    3   13 1   
    10    3   14 1   
    11    4    5 1   
    12    4   15 1   
    13    4   16 1   
    14    5    6 1   
    15    5   17 1   
    16    5   18 1   
    17    6    7 1   
    18    6   19 1   
    19    6   20 1   
    20    7   21 1   
@<TRIPOS>SUBSTRUCTURE
     1 HE2         1 TEMP              0 ****  ****    0 ROOT
