@<TRIPOS>MOLECULE
HE3
   48    50     1     0     0
SMALL
bcc


@<TRIPOS>ATOM
      1 C9          0.0000    0.0000    0.0000 c3        1 HE3     -0.033100
      2 C8          1.5300    0.0000    0.0000 c3        1 HE3      0.205100
      3 O9          2.0070    0.0000    1.3470 oh        1 HE3     -0.563800
      4 C2          2.0400    1.2490   -0.7220 c3        1 HE3      0.417500
      5 N4'         1.5810    1.3370   -2.1150 nu        1 HE3     -0.529900
      6 C4'         2.2650    0.6170   -3.0850 ca        1 HE3      0.491200
      7 N3'         1.6760    0.3930   -4.2590 nb        1 HE3     -0.618000
      8 C2'         2.2970   -0.2840   -5.2040 ca        1 HE3      0.414300
      9 CM2         1.5970   -0.5160   -6.5180 c3        1 HE3      0.010600
     10 N1'         3.5130   -0.7630   -5.0320 nb        1 HE3     -0.669000
     11 C6'         4.1620   -0.5820   -3.8910 ca        1 HE3      0.417200
     12 C5'         3.5470    0.1200   -2.8720 ca        1 HE3     -0.555900
     13 C7'         4.2740    0.3190   -1.5650 c3        1 HE3      0.317100
     14 N3          3.5290    1.3330   -0.7860 nh        1 HE3     -0.422400
     15 C4          4.0740    2.4060   -0.1160 c2        1 HE3     -0.047200
     16 CM4         5.5750    2.5170   -0.0320 c3        1 HE3      0.055100
     17 C5          3.3400    3.3440    0.4570 c2        1 HE3      0.014400
     18 C6          3.8080    4.5690    1.2000 c3        1 HE3      0.056800
     19 C7          3.8410    5.7630    0.2440 c3        1 HE3      0.242400
     20 O7          4.2870    6.9240    0.9470 os        1 HE3     -0.490200
     21 PA          4.2970    8.1350   -0.1140 p5        1 HE3      0.886800
     22 O2A         5.3950    7.8400   -1.2540 o         1 HE3     -0.679000
     23 O3A         2.9600    8.2570   -0.7370 o         1 HE3     -0.679000
     24 O1A         4.6650    9.5080    0.6430 os        1 HE3     -0.470800
     25 PB          4.1520   10.7100   -0.2990 p5        1 HE3      0.802900
     26 O1B         2.5680   10.9090   -0.0990 o         1 HE3     -0.621500
     27 O2B         4.9180   12.0680    0.1000 o         1 HE3     -0.621500
     28 O3B         4.4340   10.3820   -1.7140 o         1 HE3     -0.621500
     29 S1          1.6340    2.8090    0.1550 ss        1 HE3     -0.386700
     30 H91        -0.3610   -0.8530    0.5610 hc        1 HE3      0.013367
     31 H92        -0.3610    0.9130    0.4580 hc        1 HE3      0.013367
     32 H93        -0.3610   -0.0600   -1.0200 hc        1 HE3      0.013367
     33 H8          1.8910   -0.8850   -0.5110 h1        1 HE3      0.006700
     34 HO9         2.1640   -0.8870    1.6250 ho        1 HE3      0.362000
     35 H4'         1.5270    2.2980   -2.3890 hn        1 HE3      0.302800
     36 HM21        2.0690    0.0800   -7.2890 hc        1 HE3     -0.016300
     37 HM22        1.6630   -1.5650   -6.7820 hc        1 HE3     -0.016300
     38 HM23        0.5560   -0.2320   -6.4280 hc        1 HE3     -0.016300
     39 H6'         5.2160   -0.8210   -3.8240 h4        1 HE3     -0.048900
     40 H7'1        5.2800    0.6700   -1.7560 h1        1 HE3     -0.005800
     41 H7'2        4.3030   -0.6150   -1.0160 h1        1 HE3     -0.005800
     42 HM41        5.9380    3.1300   -0.8470 hc        1 HE3      0.011033
     43 HM42        6.0140    1.5290   -0.1000 hc        1 HE3      0.011033
     44 HM43        5.8510    2.9700    0.9130 hc        1 HE3      0.011033
     45 H61         3.1280    4.7790    2.0160 hc        1 HE3      0.007200
     46 H62         4.8020    4.3940    1.5940 hc        1 HE3      0.007200
     47 H71         4.5210    5.5530   -0.5730 h1        1 HE3      0.013200
     48 H72         2.8470    5.9380   -0.1500 h1        1 HE3      0.013200
@<TRIPOS>BOND
     1    1    2 1   
     2    1   30 1   
     3    1   31 1   
     4    1   32 1   
     5    2    3 1   
     6    2    4 1   
     7    2   33 1   
     8    3   34 1   
     9    4    5 1   
    10    4   14 1   
    11    4   29 1   
    12    5    6 1   
    13    5   35 1   
    14    6    7 ar  
    15    6   12 ar  
    16    7    8 ar  
    17    8    9 1   
    18    8   10 ar  
    19    9   36 1   
    20    9   37 1   
    21    9   38 1   
    22   10   11 ar  
    23   11   12 ar  
    24   11   39 1   
    25   12   13 1   
    26   13   14 1   
    27   13   40 1   
    28   13   41 1   
    29   14   15 1   
    30   15   16 1   
    31   15   17 2   
    32   16   42 1   
    33   16   43 1   
    34   16   44 1   
    35   17   18 1   
    36   17   29 1   
    37   18   19 1   
    38   18   45 1   
    39   18   46 1   
    40   19   20 1   
    41   19   47 1   
    42   19   48 1   
    43   20   21 1   
    44   21   22 1   
    45   21   23 1   
    46   21   24 1   
    47   24   25 1   
    48   25   26 1   
    49   25   27 1   
    50   25   28 1   
@<TRIPOS>SUBSTRUCTURE
     1 HE3         1 TEMP              0 ****  ****    0 ROOT
