@<TRIPOS>MOLECULE
HE4
   24    23     1     0     0
SMALL
bcc


@<TRIPOS>ATOM
      1 CAA         4.4380   -0.2780    0.0000 c3        1 HE4     -0.092100
      2 CAC         3.1660    0.5290    0.0000 c3        1 HE4     -0.080400
      3 CAE         1.9420   -0.3630    0.0000 c3        1 HE4     -0.079400
      4 CAG         0.6670    0.4510   -0.0000 c3        1 HE4     -0.078400
      5 CAH        -0.5550   -0.4420    0.0000 c3        1 HE4     -0.078400
      6 CAF        -1.8270    0.3760   -0.0000 c3        1 HE4     -0.084400
      7 CAD        -3.0460   -0.5310    0.0000 c3        1 HE4      0.131400
      8 OAB        -4.1900    0.3080   -0.0000 oh        1 HE4     -0.601800
      9 HAA1        5.3270    0.3990    0.0000 hc        1 HE4      0.032700
     10 HAA2        4.4920   -0.9300    0.9050 hc        1 HE4      0.032700
     11 HAA3        4.4920   -0.9300   -0.9050 hc        1 HE4      0.032700
     12 HAC1        3.1420    1.1950    0.9020 hc        1 HE4      0.038700
     13 HAC2        3.1420    1.1950   -0.9020 hc        1 HE4      0.038700
     14 HAE1        1.9640   -1.0300   -0.9030 hc        1 HE4      0.039700
     15 HAE2        1.9640   -1.0300    0.9030 hc        1 HE4      0.039700
     16 HAG1        0.6460    1.1170    0.9030 hc        1 HE4      0.041700
     17 HAG2        0.6460    1.1170   -0.9030 hc        1 HE4      0.041700
     18 HAH1       -0.5340   -1.1080   -0.9030 hc        1 HE4      0.038700
     19 HAH2       -0.5340   -1.1080    0.9030 hc        1 HE4      0.038700
     20 HAF1       -1.8620    1.0410    0.9020 hc        1 HE4      0.055700
     21 HAF2       -1.8620    1.0410   -0.9020 hc        1 HE4      0.055700
     22 HAD1       -3.0510   -1.1860   -0.9130 h1        1 HE4      0.019700
     23 HAD2       -3.0510   -1.1860    0.9130 h1        1 HE4      0.019700
     24 HAB        -4.9580   -0.2750   -0.0000 ho        1 HE4      0.398000
@<TRIPOS>BOND
     1    1    2 1   
     2    1    9 1   
     3    1   10 1   
     4    1   11 1   
     5    2    3 1   
     6    2   12 1   
     7    2   13 1   
     8    3    4 1   
     9    3   14 1   
    10    3   15 1   
    11    4    5 1   
    12    4   16 1   
    13    4   17 1   
    14    5    6 1   
    15    5   18 1   
    16    5   19 1   
    17    6    7 1   
    18    6   20 1   
    19    6   21 1   
    20    7    8 1   
    21    7   22 1   
    22    7   23 1   
    23    8   24 1   
@<TRIPOS>SUBSTRUCTURE
     1 HE4         1 TEMP              0 ****  ****    0 ROOT
