@<TRIPOS>MOLECULE
HE7
   54    57     1     0     0
SMALL
bcc


@<TRIPOS>ATOM
      1 OAB        -0.1500    0.5320   -0.1310 o         1 HE7     -0.843300
      2 CAR         0.9930   -0.0090   -0.1720 c         1 HE7      0.913600
      3 OAC         1.5350   -0.6070    0.7980 o         1 HE7     -0.843300
      4 CAI         1.7960    0.0730   -1.4880 c3        1 HE7     -0.201400
      5 CAK         0.8630    0.2190   -2.6660 c3        1 HE7     -0.109400
      6 CAV         1.5980    0.5540   -3.9230 c         1 HE7      0.638100
      7 OAE         2.3420    1.5010   -4.1890 o         1 HE7     -0.573000
      8 OAQ         1.3600   -0.3620   -4.9270 os        1 HE7     -0.448900
      9 CAW         2.0300   -0.2000   -6.1740 c3        1 HE7      0.152100
     10 CBA         1.1710    0.5450   -7.2290 c3        1 HE7     -0.067000
     11 CAA        -0.2910    0.1990   -7.0090 c3        1 HE7     -0.078100
     12 CAM         2.2430   -1.6110   -6.7660 c3        1 HE7     -0.085400
     13 CAO         1.8920   -1.5300   -8.2540 c3        1 HE7     -0.070400
     14 CAZ         1.7580   -0.0400   -8.5360 c3        1 HE7     -0.065700
     15 CAY         0.9690    0.4340   -9.7360 c3        1 HE7     -0.046700
     16 CAX         1.1110    1.9650   -9.8200 c3        1 HE7     -0.011400
     17 CAN         0.7030    2.6450   -8.5160 c3        1 HE7     -0.070400
     18 CAP         1.3610    2.0500   -7.2810 c3        1 HE7     -0.065400
     19 CAL         1.4690   -0.1800  -11.0300 c3        1 HE7     -0.074400
     20 CAJ         0.5830    0.2370  -12.1840 c3        1 HE7     -0.036100
     21 CAT         0.1760    1.6700  -12.1460 ca        1 HE7     -0.039300
     22 CAU         0.3790    2.4880  -11.0170 ca        1 HE7     -0.089300
     23 CAH        -0.4570    2.1830  -13.2830 ca        1 HE7     -0.164000
     24 CAS        -0.8910    3.5140  -13.2960 ca        1 HE7      0.114100
     25 OAD        -1.5040    3.9540  -14.4510 oh        1 HE7     -0.505100
     26 CAF        -0.6990    4.3370  -12.1810 ca        1 HE7     -0.216000
     27 CAG        -0.0650    3.8160  -11.0570 ca        1 HE7     -0.091000
     28 HAI1        2.4240   -0.8450   -1.5920 hc        1 HE7      0.036700
     29 HAI2        2.4780    0.9580   -1.4210 hc        1 HE7      0.036700
     30 HAK1        0.2720   -0.7230   -2.8070 hc        1 HE7      0.087200
     31 HAK2        0.1350    1.0520   -2.4490 hc        1 HE7      0.087200
     32 HAW         3.0050    0.3350   -6.0230 h1        1 HE7      0.071700
     33 HAA1       -0.9480    0.6670   -7.7780 hc        1 HE7      0.038700
     34 HAA2       -0.4330   -0.9080   -7.0380 hc        1 HE7      0.038700
     35 HAA3       -0.6090    0.5640   -6.0010 hc        1 HE7      0.038700
     36 HAM1        3.3050   -1.9240   -6.6200 hc        1 HE7      0.054200
     37 HAM2        1.5880   -2.3480   -6.2390 hc        1 HE7      0.054200
     38 HAO1        0.9330   -2.0650   -8.4660 hc        1 HE7      0.037200
     39 HAO2        2.6880   -1.9920   -8.8860 hc        1 HE7      0.037200
     40 HAZ         2.8080    0.3650   -8.6460 hc        1 HE7      0.044700
     41 HAY        -0.1160    0.1670   -9.6090 hc        1 HE7      0.062700
     42 HAX         2.2070    2.1930   -9.9860 hc        1 HE7      0.053700
     43 HAN1       -0.4120    2.5990   -8.4100 hc        1 HE7      0.039200
     44 HAN2        0.9920    3.7280   -8.5630 hc        1 HE7      0.039200
     45 HAP1        2.4570    2.2880   -7.2850 hc        1 HE7      0.054700
     46 HAP2        0.9260    2.5170   -6.3590 hc        1 HE7      0.054700
     47 HAL1        2.5260    0.1430  -11.2200 hc        1 HE7      0.042700
     48 HAL2        1.4700   -1.2980  -10.9410 hc        1 HE7      0.042700
     49 HAJ1       -0.3530   -0.3880  -12.1770 hc        1 HE7      0.048200
     50 HAJ2        1.1110    0.0260  -13.1530 hc        1 HE7      0.048200
     51 HAH        -0.6180    1.5510  -14.1670 ha        1 HE7      0.143000
     52 HOAD       -1.7640    4.8750  -14.3110 ho        1 HE7      0.414000
     53 HAF        -1.0430    5.3800  -12.1910 ha        1 HE7      0.129000
     54 HAG         0.0830    4.4740  -10.1870 ha        1 HE7      0.138000
@<TRIPOS>BOND
     1    1    2 1   
     2    2    3 1   
     3    2    4 1   
     4    4    5 1   
     5    4   28 1   
     6    4   29 1   
     7    5    6 1   
     8    5   30 1   
     9    5   31 1   
    10    6    7 2   
    11    6    8 1   
    12    8    9 1   
    13    9   10 1   
    14    9   12 1   
    15    9   32 1   
    16   10   11 1   
    17   10   14 1   
    18   10   18 1   
    19   11   33 1   
    20   11   34 1   
    21   11   35 1   
    22   12   13 1   
    23   12   36 1   
    24   12   37 1   
    25   13   14 1   
    26   13   38 1   
    27   13   39 1   
    28   14   15 1   
    29   14   40 1   
    30   15   16 1   
    31   15   19 1   
    32   15   41 1   
    33   16   17 1   
    34   16   22 1   
    35   16   42 1   
    36   17   18 1   
    37   17   43 1   
    38   17   44 1   
    39   18   45 1   
    40   18   46 1   
    41   19   20 1   
    42   19   47 1   
    43   19   48 1   
    44   20   21 1   
    45   20   49 1   
    46   20   50 1   
    47   21   22 ar  
    48   21   23 ar  
    49   22   27 ar  
    50   23   24 ar  
    51   23   51 1   
    52   24   25 1   
    53   24   26 ar  
    54   25   52 1   
    55   26   27 ar  
    56   26   53 1   
    57   27   54 1   
@<TRIPOS>SUBSTRUCTURE
     1 HE7         1 TEMP              0 ****  ****    0 ROOT
