@<TRIPOS>MOLECULE
HE7
   54    57     1     0     0
SMALL
bcc


@<TRIPOS>ATOM
      1 OAB        -0.1200    0.4550   -0.1120 o         1 HE7     -0.843300
      2 CAR         1.0380   -0.0500   -0.1640 c         1 HE7      0.913600
      3 OAC         1.6050   -0.6370    0.7990 o         1 HE7     -0.843300
      4 CAI         1.8300    0.0660   -1.4840 c3        1 HE7     -0.201400
      5 CAK         0.8850    0.1920   -2.6550 c3        1 HE7     -0.109400
      6 CAV         1.6020    0.5550   -3.9150 c         1 HE7      0.638100
      7 OAE         2.3140    1.5280   -4.1800 o         1 HE7     -0.573000
      8 OAQ         1.3890   -0.3640   -4.9220 os        1 HE7     -0.448900
      9 CAW         2.0460   -0.1750   -6.1710 c3        1 HE7      0.152100
     10 CBA         1.1580    0.5450   -7.2200 c3        1 HE7     -0.067000
     11 CAA        -0.2910    0.1480   -6.9930 c3        1 HE7     -0.078100
     12 CAM         2.3050   -1.5750   -6.7700 c3        1 HE7     -0.085400
     13 CAO         1.9430   -1.5010   -8.2550 c3        1 HE7     -0.070400
     14 CAZ         1.7570   -0.0150   -8.5310 c3        1 HE7     -0.065700
     15 CAY         0.9470    0.4360   -9.7250 c3        1 HE7     -0.046700
     16 CAX         1.0360    1.9710   -9.8050 c3        1 HE7     -0.011400
     17 CAN         0.6110    2.6320   -8.4970 c3        1 HE7     -0.070400
     18 CAP         1.2960    2.0550   -7.2670 c3        1 HE7     -0.065400
     19 CAL         1.4600   -0.1560  -11.0250 c3        1 HE7     -0.074400
     20 CAJ         0.5550    0.2340  -12.1730 c3        1 HE7     -0.036100
     21 CAT         0.1000    1.6530  -12.1270 ca        1 HE7     -0.039300
     22 CAU         0.2810    2.4740  -10.9970 ca        1 HE7     -0.089300
     23 CAH        -0.5560    2.1480  -13.2590 ca        1 HE7     -0.164000
     24 CAS        -1.0350    3.4630  -13.2660 ca        1 HE7      0.114100
     25 OAD        -1.6680    3.8860  -14.4150 oh        1 HE7     -0.505100
     26 CAF        -0.8650    4.2890  -12.1480 ca        1 HE7     -0.216000
     27 CAG        -0.2080    3.7850  -11.0290 ca        1 HE7     -0.091000
     28 HAI1        2.4840   -0.8330   -1.5990 hc        1 HE7      0.036700
     29 HAI2        2.4860    0.9690   -1.4150 hc        1 HE7      0.036700
     30 HAK1        0.1350    1.0010   -2.4280 hc        1 HE7      0.087200
     31 HAK2        0.3220   -0.7670   -2.7990 hc        1 HE7      0.087200
     32 HAW         3.0040    0.3930   -6.0240 h1        1 HE7      0.071700
     33 HAA1       -0.6160    0.4990   -5.9820 hc        1 HE7      0.038700
     34 HAA2       -0.9670    0.5970   -7.7570 hc        1 HE7      0.038700
     35 HAA3       -0.3950   -0.9630   -7.0250 hc        1 HE7      0.038700
     36 HAM1        1.6770   -2.3350   -6.2420 hc        1 HE7      0.054200
     37 HAM2        3.3770   -1.8530   -6.6300 hc        1 HE7      0.054200
     38 HAO1        2.7520   -1.9330   -8.8930 hc        1 HE7      0.037200
     39 HAO2        1.0020   -2.0670   -8.4650 hc        1 HE7      0.037200
     40 HAZ         2.7920    0.4250   -8.6460 hc        1 HE7      0.044700
     41 HAY        -0.1280    0.1320   -9.5940 hc        1 HE7      0.062700
     42 HAX         2.1230    2.2360   -9.9760 hc        1 HE7      0.053700
     43 HAN1        0.8640    3.7250   -8.5410 hc        1 HE7      0.039200
     44 HAN2       -0.5010    2.5480   -8.3850 hc        1 HE7      0.039200
     45 HAP1        2.3830    2.3310   -7.2760 hc        1 HE7      0.054700
     46 HAP2        0.8490    2.5040   -6.3410 hc        1 HE7      0.054700
     47 HAL1        1.5000   -1.2740  -10.9400 hc        1 HE7      0.042700
     48 HAL2        2.5040    0.2030  -11.2190 hc        1 HE7      0.042700
     49 HAJ1       -0.3590   -0.4220  -12.1620 hc        1 HE7      0.048200
     50 HAJ2        1.0850    0.0450  -13.1450 hc        1 HE7      0.048200
     51 HAH        -0.7000    1.5140  -14.1450 ha        1 HE7      0.143000
     52 HOAD       -1.9590    4.7980  -14.2710 ho        1 HE7      0.414000
     53 HAF        -1.2440    5.3200  -12.1530 ha        1 HE7      0.129000
     54 HAG        -0.0790    4.4450  -10.1580 ha        1 HE7      0.138000
@<TRIPOS>BOND
     1    1    2 1   
     2    2    3 1   
     3    2    4 1   
     4    4    5 1   
     5    4   28 1   
     6    4   29 1   
     7    5    6 1   
     8    5   30 1   
     9    5   31 1   
    10    6    7 2   
    11    6    8 1   
    12    8    9 1   
    13    9   10 1   
    14    9   12 1   
    15    9   32 1   
    16   10   11 1   
    17   10   14 1   
    18   10   18 1   
    19   11   33 1   
    20   11   34 1   
    21   11   35 1   
    22   12   13 1   
    23   12   36 1   
    24   12   37 1   
    25   13   14 1   
    26   13   38 1   
    27   13   39 1   
    28   14   15 1   
    29   14   40 1   
    30   15   16 1   
    31   15   19 1   
    32   15   41 1   
    33   16   17 1   
    34   16   22 1   
    35   16   42 1   
    36   17   18 1   
    37   17   43 1   
    38   17   44 1   
    39   18   45 1   
    40   18   46 1   
    41   19   20 1   
    42   19   47 1   
    43   19   48 1   
    44   20   21 1   
    45   20   49 1   
    46   20   50 1   
    47   21   22 ar  
    48   21   23 ar  
    49   22   27 ar  
    50   23   24 ar  
    51   23   51 1   
    52   24   25 1   
    53   24   26 ar  
    54   25   52 1   
    55   26   27 ar  
    56   26   53 1   
    57   27   54 1   
@<TRIPOS>SUBSTRUCTURE
     1 HE7         1 TEMP              0 ****  ****    0 ROOT
