@<TRIPOS>MOLECULE
HE7
   54    57     1     0     0
SMALL
bcc


@<TRIPOS>ATOM
      1 OAB        -7.0370   -2.0710    1.1790 o         1 HE7     -0.843300
      2 CAR        -7.2820   -1.0810    0.4310 c         1 HE7      0.913600
      3 OAC        -8.4310   -0.5910    0.2460 o         1 HE7     -0.843300
      4 CAI        -6.1060   -0.4250   -0.3250 c3        1 HE7     -0.201400
      5 CAK        -4.8110   -0.6520    0.4170 c3        1 HE7     -0.109400
      6 CAV        -3.6230   -0.2570   -0.3990 c         1 HE7      0.638100
      7 OAE        -3.2450   -0.6480   -1.5060 o         1 HE7     -0.573000
      8 OAQ        -2.8410    0.6850    0.2380 os        1 HE7     -0.448900
      9 CAW        -1.6950    1.1930   -0.4380 c3        1 HE7      0.152100
     10 CBA        -0.3860    0.4590   -0.0460 c3        1 HE7     -0.067000
     11 CAA        -0.4800    0.0250    1.4070 c3        1 HE7     -0.078100
     12 CAM        -1.4880    2.6470    0.0410 c3        1 HE7     -0.085400
     13 CAO         0.0100    2.8250    0.3000 c3        1 HE7     -0.070400
     14 CAZ         0.6520    1.5780   -0.2940 c3        1 HE7     -0.065700
     15 CAY         2.0260    1.1450    0.1640 c3        1 HE7     -0.046700
     16 CAX         2.4500   -0.0640   -0.6890 c3        1 HE7     -0.011400
     17 CAN         1.4130   -1.1820   -0.6430 c3        1 HE7     -0.070400
     18 CAP        -0.0060   -0.7160   -0.9290 c3        1 HE7     -0.065400
     19 CAL         3.0580    2.2460    0.0070 c3        1 HE7     -0.074400
     20 CAJ         4.3880    1.8040    0.5790 c3        1 HE7     -0.036100
     21 CAT         4.7450    0.3940    0.2550 ca        1 HE7     -0.039300
     22 CAU         3.8260   -0.5150   -0.3040 ca        1 HE7     -0.089300
     23 CAH         6.0470   -0.0180    0.5580 ca        1 HE7     -0.164000
     24 CAS         6.4340   -1.3400    0.3060 ca        1 HE7      0.114100
     25 OAD         7.7330   -1.6770    0.6270 oh        1 HE7     -0.505100
     26 CAF         5.5290   -2.2550   -0.2460 ca        1 HE7     -0.216000
     27 CAG         4.2390   -1.8310   -0.5460 ca        1 HE7     -0.091000
     28 HAI1       -6.0550   -0.8810   -1.3450 hc        1 HE7      0.036700
     29 HAI2       -6.3090    0.6680   -0.4410 hc        1 HE7      0.036700
     30 HAK1       -4.8170   -0.0850    1.3830 hc        1 HE7      0.087200
     31 HAK2       -4.7230   -1.7480    0.6620 hc        1 HE7      0.087200
     32 HAW        -1.8470    1.1430   -1.5490 h1        1 HE7      0.071700
     33 HAA1       -1.3200   -0.7050    1.5200 hc        1 HE7      0.038700
     34 HAA2        0.4600   -0.4610    1.7550 hc        1 HE7      0.038700
     35 HAA3       -0.6950    0.9060    2.0580 hc        1 HE7      0.038700
     36 HAM1       -1.8480    3.3560   -0.7420 hc        1 HE7      0.054200
     37 HAM2       -2.0800    2.8280    0.9720 hc        1 HE7      0.054200
     38 HAO1        0.4000    3.7520   -0.1860 hc        1 HE7      0.037200
     39 HAO2        0.2190    2.8990    1.3950 hc        1 HE7      0.037200
     40 HAZ         0.7110    1.7440   -1.4110 hc        1 HE7      0.044700
     41 HAY         1.9900    0.8420    1.2470 hc        1 HE7      0.062700
     42 HAX         2.5140    0.2880   -1.7630 hc        1 HE7      0.053700
     43 HAN1        1.6740   -1.9560   -1.4140 hc        1 HE7      0.039200
     44 HAN2        1.4520   -1.6810    0.3600 hc        1 HE7      0.039200
     45 HAP1       -0.7230   -1.5620   -0.7610 hc        1 HE7      0.054700
     46 HAP2       -0.0960   -0.4160   -2.0070 hc        1 HE7      0.054700
     47 HAL1        3.1730    2.5060   -1.0770 hc        1 HE7      0.042700
     48 HAL2        2.7080    3.1690    0.5380 hc        1 HE7      0.042700
     49 HAJ1        5.1980    2.4880    0.2070 hc        1 HE7      0.048200
     50 HAJ2        4.3610    1.9050    1.6990 hc        1 HE7      0.048200
     51 HAH         6.7710    0.6850    0.9940 ha        1 HE7      0.143000
     52 HOAD        7.8510   -2.6150    0.4180 ho        1 HE7      0.414000
     53 HAF         5.8340   -3.2920   -0.4400 ha        1 HE7      0.129000
     54 HAG         3.5370   -2.5580   -0.9820 ha        1 HE7      0.138000
@<TRIPOS>BOND
     1    1    2 1   
     2    2    3 1   
     3    2    4 1   
     4    4    5 1   
     5    4   28 1   
     6    4   29 1   
     7    5    6 1   
     8    5   30 1   
     9    5   31 1   
    10    6    7 2   
    11    6    8 1   
    12    8    9 1   
    13    9   10 1   
    14    9   12 1   
    15    9   32 1   
    16   10   11 1   
    17   10   14 1   
    18   10   18 1   
    19   11   33 1   
    20   11   34 1   
    21   11   35 1   
    22   12   13 1   
    23   12   36 1   
    24   12   37 1   
    25   13   14 1   
    26   13   38 1   
    27   13   39 1   
    28   14   15 1   
    29   14   40 1   
    30   15   16 1   
    31   15   19 1   
    32   15   41 1   
    33   16   17 1   
    34   16   22 1   
    35   16   42 1   
    36   17   18 1   
    37   17   43 1   
    38   17   44 1   
    39   18   45 1   
    40   18   46 1   
    41   19   20 1   
    42   19   47 1   
    43   19   48 1   
    44   20   21 1   
    45   20   49 1   
    46   20   50 1   
    47   21   22 ar  
    48   21   23 ar  
    49   22   27 ar  
    50   23   24 ar  
    51   23   51 1   
    52   24   25 1   
    53   24   26 ar  
    54   25   52 1   
    55   26   27 ar  
    56   26   53 1   
    57   27   54 1   
@<TRIPOS>SUBSTRUCTURE
     1 HE7         1 TEMP              0 ****  ****    0 ROOT
