@<TRIPOS>MOLECULE
HE7
   54    54     1     0     0
SMALL
bcc


@<TRIPOS>ATOM
      1 OAB        -5.4760    0.5520    0.3570 o         1 HE7     -0.580000
      2 CAR        -4.9340    1.6750    0.2300 c1        1 HE7      0.329000
      3 OAC        -5.6270    2.7220    0.3240 o         1 HE7     -0.580000
      4 CAI        -3.4560    1.7750    0.0360 c2        1 HE7     -0.224000
      5 CAK        -2.7460    1.0730    1.1750 c3        1 HE7     -0.183000
      6 CAV        -1.3020    0.9940    0.8810 c2        1 HE7      0.300000
      7 OAE        -0.5390    1.8160    1.3720 o         1 HE7     -0.333000
      8 OAQ        -0.8350    0.1180   -0.1430 os        1 HE7     -0.291000
      9 CAW        -1.0580   -1.5840    0.2160 c3        1 HE7      0.041000
     10 CBA        -0.5300   -1.8270    0.8620 c3        1 HE7     -0.058000
     11 CAA        -1.1340   -2.9860    1.4800 c3        1 HE7     -0.217000
     12 CAM        -0.5850   -2.5070   -1.0930 c3        1 HE7     -0.168000
     13 CAO         0.4280   -2.9580   -0.7810 c3        1 HE7     -0.155000
     14 CAZ         0.7590   -2.2920    0.2520 c3        1 HE7     -0.084000
     15 CAY         1.7290   -1.0550   -0.2540 c3        1 HE7     -0.077000
     16 CAX         1.8910   -0.1230    0.6690 c3        1 HE7     -0.057000
     17 CAN         0.4280    0.2630    1.2950 c3        1 HE7     -0.152000
     18 CAP        -0.4170   -0.9930    1.7310 c3        1 HE7     -0.143000
     19 CAL         1.5110   -0.4940   -1.9120 c3        1 HE7     -0.162000
     20 CAJ         1.0060    0.0920   -2.0040 c3        1 HE7     -0.121000
     21 CAT         1.3490    1.3230   -1.0760 c2        1 HE7     -0.022000
     22 CAU         2.1560    0.9550    0.2260 c2        1 HE7     -0.082000
     23 CAH         1.5800    2.4660   -1.6800 c1        1 HE7     -0.163000
     24 CAS         2.5520    3.3570   -1.1570 c1        1 HE7      0.067000
     25 OAD         2.8480    4.4530   -1.8110 oh        1 HE7     -0.261000
     26 CAF         3.3050    3.0050    0.0620 c1        1 HE7     -0.217000
     27 CAG         3.0700    1.8070    0.7050 c1        1 HE7     -0.091000
     28 HAI1       -3.2080    1.3560   -0.8100 ha        1 HE7      0.079500
     29 HAI2       -3.1910    2.7310    0.0230 ha        1 HE7      0.079500
     30 HAK1       -3.1020    0.1870    1.2780 hc        1 HE7      0.123000
     31 HAK2       -2.8830    1.5840    2.0140 hc        1 HE7      0.123000
     32 HAW        -1.9890   -1.7690    0.4460 h1        1 HE7      0.105000
     33 HAA1       -0.4380   -3.6660    1.6540 hc        1 HE7      0.080000
     34 HAA2       -1.5540   -2.7220    2.3310 hc        1 HE7      0.080000
     35 HAA3       -1.7910   -3.3490    0.9000 hc        1 HE7      0.080000
     36 HAM1       -1.2450   -3.2260   -1.2670 hc        1 HE7      0.091000
     37 HAM2       -0.4780   -1.9560   -1.8660 hc        1 HE7      0.091000
     38 HAO1        1.0820   -2.8420   -1.4850 hc        1 HE7      0.075000
     39 HAO2        0.3230   -3.9190   -0.5550 hc        1 HE7      0.075000
     40 HAZ         1.2400   -2.8600    0.8800 hc        1 HE7      0.079000
     41 HAY         2.5820   -1.4640   -0.2900 hc        1 HE7      0.071000
     42 HAX         2.5100   -0.3910    1.3530 hc        1 HE7      0.085000
     43 HAN1       -0.0800    0.7610    0.6230 hc        1 HE7      0.097000
     44 HAN2        0.5640    0.8350    2.0740 hc        1 HE7      0.097000
     45 HAP1        0.0150   -1.4030    2.4930 hc        1 HE7      0.092000
     46 HAP2       -1.2980   -0.6980    1.9930 hc        1 HE7      0.092000
     47 HAL1        1.1970   -1.2320   -2.4290 hc        1 HE7      0.102000
     48 HAL2        2.3770   -0.1900   -2.2370 hc        1 HE7      0.102000
     49 HAJ1        0.1090   -0.2280   -1.7660 hc        1 HE7      0.085000
     50 HAJ2        1.0450    0.3870   -2.9260 hc        1 HE7      0.085000
     51 HAH         1.0390    2.7350   -2.4090 ha        1 HE7      0.143000
     52 HOAD        3.6910    4.4980   -1.9200 ho        1 HE7      0.211000
     53 HAF         3.9670    3.6170    0.4130 ha        1 HE7      0.126000
     54 HAG         3.5430    1.5980    1.5190 ha        1 HE7      0.133000
@<TRIPOS>BOND
     1    1    2 1   
     2    2    3 1   
     3    4    5 1   
     4    4   28 1   
     5    4   29 1   
     6    5    6 1   
     7    5   30 1   
     8    5   31 1   
     9    6    7 1   
    10    6    8 1   
    11    8    9 1   
    12    9   10 1   
    13    9   12 1   
    14    9   32 1   
    15   10   11 1   
    16   10   14 1   
    17   10   18 1   
    18   11   33 1   
    19   11   34 1   
    20   11   35 1   
    21   12   13 1   
    22   12   36 1   
    23   12   37 1   
    24   13   14 1   
    25   13   38 1   
    26   13   39 1   
    27   14   15 1   
    28   14   40 1   
    29   15   16 1   
    30   15   19 1   
    31   15   41 1   
    32   16   17 1   
    33   16   22 1   
    34   16   42 1   
    35   17   18 1   
    36   17   43 1   
    37   17   44 1   
    38   18   45 1   
    39   18   46 1   
    40   19   20 1   
    41   19   47 1   
    42   19   48 1   
    43   20   21 1   
    44   20   49 1   
    45   20   50 1   
    46   21   22 1   
    47   21   23 1   
    48   22   27 1   
    49   23   51 1   
    50   24   25 1   
    51   24   26 1   
    52   25   52 1   
    53   26   53 1   
    54   27   54 1   
@<TRIPOS>SUBSTRUCTURE
     1 HE7         1 TEMP              0 ****  ****    0 ROOT
