@<TRIPOS>MOLECULE
HED
   18    17     1     0     0
SMALL
bcc


@<TRIPOS>ATOM
      1 C1          0.1480    0.1050   -0.1090 c3        1 HED      0.131400
      2 O1          1.5620    0.1380    0.0180 oh        1 HED     -0.602800
      3 C2         -0.4150    0.0650    1.2950 c3        1 HED     -0.029300
      4 S3         -2.1730    0.0420    1.3400 ss        1 HED     -0.166100
      5 S4         -2.7900   -1.8180    0.5680 ss        1 HED     -0.166100
      6 C5         -2.8930   -2.9340    1.9230 c3        1 HED     -0.029300
      7 C6         -4.0120   -2.6060    2.8860 c3        1 HED      0.131400
      8 O6         -3.9790   -3.5950    3.9050 oh        1 HED     -0.602800
      9 H11        -0.2080    1.0200   -0.6540 h1        1 HED      0.037700
     10 H12        -0.1640   -0.8100   -0.6840 h1        1 HED      0.037700
     11 HO1         1.9180    0.1410   -0.8780 ho        1 HED      0.405000
     12 H21         0.0320   -0.7910    1.8560 h1        1 HED      0.093700
     13 H22        -0.1460    1.0070    1.8420 h1        1 HED      0.093700
     14 H51        -1.9270   -3.0100    2.4790 h1        1 HED      0.093700
     15 H52        -3.0840   -3.9270    1.4380 h1        1 HED      0.093700
     16 H61        -3.8590   -1.5870    3.3360 h1        1 HED      0.037700
     17 H62        -5.0060   -2.6300    2.3630 h1        1 HED      0.037700
     18 HO6        -4.6790   -3.3700    4.5290 ho        1 HED      0.405000
@<TRIPOS>BOND
     1    1    2 1   
     2    1    3 1   
     3    1    9 1   
     4    1   10 1   
     5    2   11 1   
     6    3    4 1   
     7    3   12 1   
     8    3   13 1   
     9    4    5 1   
    10    5    6 1   
    11    6    7 1   
    12    6   14 1   
    13    6   15 1   
    14    7    8 1   
    15    7   16 1   
    16    7   17 1   
    17    8   18 1   
@<TRIPOS>SUBSTRUCTURE
     1 HED         1 TEMP              0 ****  ****    0 ROOT
