@<TRIPOS>MOLECULE
HED
   18    17     1     0     0
SMALL
bcc


@<TRIPOS>ATOM
      1 C1          0.1520    0.1030   -0.1050 c3        1 HED      0.131400
      2 O1          1.5670    0.1290    0.0210 oh        1 HED     -0.602800
      3 C2         -0.4100    0.0610    1.2990 c3        1 HED     -0.029300
      4 S3         -2.1670    0.0450    1.3460 ss        1 HED     -0.166100
      5 S4         -2.7940   -1.8100    0.5670 ss        1 HED     -0.166100
      6 C5         -2.8990   -2.9300    1.9180 c3        1 HED     -0.029300
      7 C6         -4.0160   -2.6010    2.8840 c3        1 HED      0.131400
      8 O6         -3.9850   -3.5950    3.8990 oh        1 HED     -0.602800
      9 H11        -0.2000    1.0220   -0.6470 h1        1 HED      0.037700
     10 H12        -0.1640   -0.8080   -0.6830 h1        1 HED      0.037700
     11 HO1         1.9220    0.1330   -0.8760 ho        1 HED      0.405000
     12 H21         0.0340   -0.7990    1.8570 h1        1 HED      0.093700
     13 H22        -0.1360    1.0000    1.8490 h1        1 HED      0.093700
     14 H51        -1.9330   -3.0140    2.4720 h1        1 HED      0.093700
     15 H52        -3.0950   -3.9210    1.4280 h1        1 HED      0.093700
     16 H61        -3.8570   -1.5850    3.3380 h1        1 HED      0.037700
     17 H62        -5.0110   -2.6190    2.3620 h1        1 HED      0.037700
     18 HO6        -4.6830   -3.3690    4.5240 ho        1 HED      0.405000
@<TRIPOS>BOND
     1    1    2 1   
     2    1    3 1   
     3    1    9 1   
     4    1   10 1   
     5    2   11 1   
     6    3    4 1   
     7    3   12 1   
     8    3   13 1   
     9    4    5 1   
    10    5    6 1   
    11    6    7 1   
    12    6   14 1   
    13    6   15 1   
    14    7    8 1   
    15    7   16 1   
    16    7   17 1   
    17    8   18 1   
@<TRIPOS>SUBSTRUCTURE
     1 HED         1 TEMP              0 ****  ****    0 ROOT
