@<TRIPOS>MOLECULE
HED
   18    17     1     0     0
SMALL
bcc


@<TRIPOS>ATOM
      1 C1          0.2330   -0.0400    2.8900 c3        1 HED      0.131400
      2 O1          0.2300   -1.0800    3.8580 oh        1 HED     -0.602800
      3 C2         -0.7580   -0.4400    1.8190 c3        1 HED     -0.029300
      4 S3         -0.9090    0.7490    0.5320 ss        1 HED     -0.166100
      5 S4          0.9100    0.7480   -0.5320 ss        1 HED     -0.166100
      6 C5          0.7570   -0.4410   -1.8190 c3        1 HED     -0.029300
      7 C6         -0.2330   -0.0400   -2.8900 c3        1 HED      0.131400
      8 O6         -0.2310   -1.0800   -3.8580 oh        1 HED     -0.602800
      9 H11        -0.0700    0.9290    3.3700 h1        1 HED      0.037700
     10 H12         1.2620    0.0720    2.4520 h1        1 HED      0.037700
     11 HO1         0.8780   -0.8330    4.5280 ho        1 HED      0.405000
     12 H21        -0.5020   -1.4540    1.4270 h1        1 HED      0.093700
     13 H22        -1.7910   -0.4950    2.2540 h1        1 HED      0.093700
     14 H51         1.7910   -0.4970   -2.2540 h1        1 HED      0.093700
     15 H52         0.5000   -1.4540   -1.4270 h1        1 HED      0.093700
     16 H61        -1.2620    0.0740   -2.4520 h1        1 HED      0.037700
     17 H62         0.0710    0.9290   -3.3700 h1        1 HED      0.037700
     18 HO6        -0.8790   -0.8320   -4.5280 ho        1 HED      0.405000
@<TRIPOS>BOND
     1    1    2 1   
     2    1    3 1   
     3    1    9 1   
     4    1   10 1   
     5    2   11 1   
     6    3    4 1   
     7    3   12 1   
     8    3   13 1   
     9    4    5 1   
    10    5    6 1   
    11    6    7 1   
    12    6   14 1   
    13    6   15 1   
    14    7    8 1   
    15    7   16 1   
    16    7   17 1   
    17    8   18 1   
@<TRIPOS>SUBSTRUCTURE
     1 HED         1 TEMP              0 ****  ****    0 ROOT
