@<TRIPOS>MOLECULE
HEE
   30    29     1     0     0
SMALL
bcc


@<TRIPOS>ATOM
      1 C1          0.6310   -0.0780   -0.0520 c3        1 HEE     -0.326600
      2 C2         -0.1810    0.0390    1.2040 c3        1 HEE     -0.070400
      3 C3          0.6520   -0.0860    2.4590 c3        1 HEE     -0.068400
      4 C4         -0.2010    0.0370    3.7040 c3        1 HEE     -0.080400
      5 C5          0.6320   -0.0880    4.9630 c3        1 HEE     -0.080400
      6 C6         -0.2130    0.0340    6.2040 c3        1 HEE     -0.090100
      7 P          -0.4670    0.0860   -1.3330 p5        1 HEE      1.337600
      8 O1P        -0.9890    1.4710   -1.4080 o         1 HEE     -0.865500
      9 O2P         0.6080   -0.0690   -2.6040 os        1 HEE     -0.587200
     10 O3P        -1.3640   -1.0910   -1.4140 o         1 HEE     -0.865500
     11 C1'        -0.0580    0.0320   -3.8270 c3        1 HEE      0.166400
     12 C2'         0.9290   -0.1100   -4.9650 c3        1 HEE     -0.089100
     13 H11         1.4160    0.7120   -0.0910 hc        1 HEE      0.063700
     14 H12         1.1560   -1.0610   -0.0940 hc        1 HEE      0.063700
     15 H21        -0.9720   -0.7600    1.1850 hc        1 HEE      0.055700
     16 H22        -0.7100    1.0310    1.1880 hc        1 HEE      0.055700
     17 H31         1.4420    0.7100    2.4650 hc        1 HEE      0.028700
     18 H32         1.1800   -1.0760    2.4620 hc        1 HEE      0.028700
     19 H41        -0.9910   -0.7590    3.6970 hc        1 HEE      0.038700
     20 H42        -0.7290    1.0260    3.7000 hc        1 HEE      0.038700
     21 H51         1.4230    0.7080    4.9660 hc        1 HEE      0.032700
     22 H52         1.1610   -1.0770    4.9630 hc        1 HEE      0.032700
     23 H61         0.4190   -0.0610    7.1200 hc        1 HEE      0.025033
     24 H62        -0.7300    1.0240    6.2320 hc        1 HEE      0.025033
     25 H63        -0.9920   -0.7660    6.2290 hc        1 HEE      0.025033
     26 H1'1       -0.8410   -0.7770   -3.8770 h1        1 HEE      0.025700
     27 H1'2       -0.5760    1.0320   -3.8720 h1        1 HEE      0.025700
     28 H2'1        0.3970   -0.0290   -5.9430 hc        1 HEE      0.017700
     29 H2'2        1.7050    0.6900   -4.9060 hc        1 HEE      0.017700
     30 H2'3        1.4430   -1.0990   -4.9100 hc        1 HEE      0.017700
@<TRIPOS>BOND
     1    1    2 1   
     2    1    7 1   
     3    1   13 1   
     4    1   14 1   
     5    2    3 1   
     6    2   15 1   
     7    2   16 1   
     8    3    4 1   
     9    3   17 1   
    10    3   18 1   
    11    4    5 1   
    12    4   19 1   
    13    4   20 1   
    14    5    6 1   
    15    5   21 1   
    16    5   22 1   
    17    6   23 1   
    18    6   24 1   
    19    6   25 1   
    20    7    8 1   
    21    7    9 1   
    22    7   10 1   
    23    9   11 1   
    24   11   12 1   
    25   11   26 1   
    26   11   27 1   
    27   12   28 1   
    28   12   29 1   
    29   12   30 1   
@<TRIPOS>SUBSTRUCTURE
     1 HEE         1 TEMP              0 ****  ****    0 ROOT
