@<TRIPOS>MOLECULE
HEE
   30    29     1     0     0
SMALL
bcc


@<TRIPOS>ATOM
      1 C1          0.0100    0.0030   -0.1810 c3        1 HEE     -0.326600
      2 C2          1.5060    0.0050   -0.0750 c3        1 HEE     -0.070400
      3 C3          1.9970    0.0010    1.3550 c3        1 HEE     -0.068400
      4 C4          3.5090    0.0030    1.4210 c3        1 HEE     -0.080400
      5 C5          4.0020   -0.0010    2.8530 c3        1 HEE     -0.080400
      6 C6          5.5070    0.0010    2.9240 c3        1 HEE     -0.090100
      7 P          -0.3400    0.0070   -1.8400 p5        1 HEE      1.337600
      8 O1P         0.0350   -1.2850   -2.4630 o         1 HEE     -0.865500
      9 O2P        -2.0080    0.0040   -1.7440 os        1 HEE     -0.587200
     10 O3P         0.0300    1.3040   -2.4540 o         1 HEE     -0.865500
     11 C1'        -2.5750    0.0070   -3.0190 c3        1 HEE      0.166400
     12 C2'        -4.0850    0.0040   -2.9140 c3        1 HEE     -0.089100
     13 H11        -0.4210   -0.8960    0.3180 hc        1 HEE      0.063700
     14 H12        -0.4240    0.8960    0.3240 hc        1 HEE      0.063700
     15 H21         1.8940    0.9120   -0.6140 hc        1 HEE      0.055700
     16 H22         1.8970   -0.8980   -0.6200 hc        1 HEE      0.055700
     17 H31         1.5950    0.9010    1.8910 hc        1 HEE      0.028700
     18 H32         1.5980   -0.9040    1.8850 hc        1 HEE      0.028700
     19 H41         3.9060    0.9080    0.8900 hc        1 HEE      0.038700
     20 H42         3.9090   -0.8970    0.8840 hc        1 HEE      0.038700
     21 H51         3.5990    0.8990    3.3890 hc        1 HEE      0.032700
     22 H52         3.6020   -0.9050    3.3830 hc        1 HEE      0.032700
     23 H61         5.9260   -0.9010    2.4160 hc        1 HEE      0.025033
     24 H62         5.9230    0.9080    2.4210 hc        1 HEE      0.025033
     25 H63         5.8490   -0.0020    3.9860 hc        1 HEE      0.025033
     26 H1'1       -2.2140   -0.9050   -3.5750 h1        1 HEE      0.025700
     27 H1'2       -2.2170    0.9230   -3.5690 h1        1 HEE      0.025700
     28 H2'1       -4.5380    0.0060   -3.9340 hc        1 HEE      0.017700
     29 H2'2       -4.4320   -0.9020   -2.3630 hc        1 HEE      0.017700
     30 H2'3       -4.4350    0.9050   -2.3580 hc        1 HEE      0.017700
@<TRIPOS>BOND
     1    1    2 1   
     2    1    7 1   
     3    1   13 1   
     4    1   14 1   
     5    2    3 1   
     6    2   15 1   
     7    2   16 1   
     8    3    4 1   
     9    3   17 1   
    10    3   18 1   
    11    4    5 1   
    12    4   19 1   
    13    4   20 1   
    14    5    6 1   
    15    5   21 1   
    16    5   22 1   
    17    6   23 1   
    18    6   24 1   
    19    6   25 1   
    20    7    8 1   
    21    7    9 1   
    22    7   10 1   
    23    9   11 1   
    24   11   12 1   
    25   11   26 1   
    26   11   27 1   
    27   12   28 1   
    28   12   29 1   
    29   12   30 1   
@<TRIPOS>SUBSTRUCTURE
     1 HEE         1 TEMP              0 ****  ****    0 ROOT
