@<TRIPOS>MOLECULE
HEE
   30    29     1     0     0
SMALL
bcc


@<TRIPOS>ATOM
      1 C1          0.0100    0.0070   -0.1820 c3        1 HEE     -0.326600
      2 C2          1.5060    0.0040   -0.0750 c3        1 HEE     -0.070400
      3 C3          1.9960    0.0040    1.3550 c3        1 HEE     -0.068400
      4 C4          3.5090    0.0020    1.4220 c3        1 HEE     -0.080400
      5 C5          4.0010    0.0020    2.8540 c3        1 HEE     -0.080400
      6 C6          5.5060   -0.0020    2.9250 c3        1 HEE     -0.090100
      7 P          -0.3390    0.0060   -1.8400 p5        1 HEE      1.337600
      8 O1P         0.0340   -1.2880   -2.4580 o         1 HEE     -0.865500
      9 O2P        -2.0080    0.0050   -1.7450 os        1 HEE     -0.587200
     10 O3P         0.0320    1.3010   -2.4590 o         1 HEE     -0.865500
     11 C1'        -2.5750    0.0040   -3.0200 c3        1 HEE      0.166400
     12 C2'        -4.0840    0.0030   -2.9150 c3        1 HEE     -0.089100
     13 H11        -0.4240   -0.8880    0.3220 hc        1 HEE      0.063700
     14 H12        -0.4210    0.9040    0.3200 hc        1 HEE      0.063700
     15 H21         1.8970    0.9080   -0.6180 hc        1 HEE      0.055700
     16 H22         1.8940   -0.9010   -0.6170 hc        1 HEE      0.055700
     17 H31         1.5980    0.9080    1.8870 hc        1 HEE      0.028700
     18 H32         1.5950   -0.8970    1.8890 hc        1 HEE      0.028700
     19 H41         3.9090    0.9020    0.8860 hc        1 HEE      0.038700
     20 H42         3.9060   -0.9020    0.8890 hc        1 HEE      0.038700
     21 H51         3.6020    0.9060    3.3850 hc        1 HEE      0.032700
     22 H52         3.5970   -0.8980    3.3870 hc        1 HEE      0.032700
     23 H61         5.9210   -0.9080    2.4210 hc        1 HEE      0.025033
     24 H62         5.9260    0.9010    2.4180 hc        1 HEE      0.025033
     25 H63         5.8480   -0.0010    3.9880 hc        1 HEE      0.025033
     26 H1'1       -2.2140   -0.9100   -3.5720 h1        1 HEE      0.025700
     27 H1'2       -2.2160    0.9190   -3.5730 h1        1 HEE      0.025700
     28 H2'1       -4.5370    0.0030   -3.9350 hc        1 HEE      0.017700
     29 H2'2       -4.4320   -0.9010   -2.3610 hc        1 HEE      0.017700
     30 H2'3       -4.4330    0.9070   -2.3620 hc        1 HEE      0.017700
@<TRIPOS>BOND
     1    1    2 1   
     2    1    7 1   
     3    1   13 1   
     4    1   14 1   
     5    2    3 1   
     6    2   15 1   
     7    2   16 1   
     8    3    4 1   
     9    3   17 1   
    10    3   18 1   
    11    4    5 1   
    12    4   19 1   
    13    4   20 1   
    14    5    6 1   
    15    5   21 1   
    16    5   22 1   
    17    6   23 1   
    18    6   24 1   
    19    6   25 1   
    20    7    8 1   
    21    7    9 1   
    22    7   10 1   
    23    9   11 1   
    24   11   12 1   
    25   11   26 1   
    26   11   27 1   
    27   12   28 1   
    28   12   29 1   
    29   12   30 1   
@<TRIPOS>SUBSTRUCTURE
     1 HEE         1 TEMP              0 ****  ****    0 ROOT
