@<TRIPOS>MOLECULE
HEE
   30    29     1     0     0
SMALL
bcc


@<TRIPOS>ATOM
      1 C1         -0.8630   -0.0030   -0.0550 c3        1 HEE     -0.326600
      2 C2          0.6370   -0.0210   -0.0350 c3        1 HEE     -0.070400
      3 C3          1.1280   -0.1130    1.4200 c3        1 HEE     -0.068400
      4 C4          2.6500   -0.1220    1.4390 c3        1 HEE     -0.080400
      5 C5          3.1430   -0.2010    2.8970 c3        1 HEE     -0.080400
      6 C6          4.6360   -0.3060    2.9240 c3        1 HEE     -0.090100
      7 P          -1.4470    0.1980   -1.7440 p5        1 HEE      1.337600
      8 O1P        -0.8790   -0.8970   -2.6080 o         1 HEE     -0.865500
      9 O2P        -3.0560    0.1170   -1.7650 os        1 HEE     -0.587200
     10 O3P        -1.0060    1.5330   -2.2710 o         1 HEE     -0.865500
     11 C1'        -3.7420    0.3870   -3.0050 c3        1 HEE      0.166400
     12 C2'        -5.2290    0.1070   -2.8350 c3        1 HEE     -0.089100
     13 H11        -1.1880    0.7470    0.4950 hc        1 HEE      0.063700
     14 H12        -1.2060   -0.8510    0.3110 hc        1 HEE      0.063700
     15 H21         0.9680   -0.8130   -0.5480 hc        1 HEE      0.055700
     16 H22         0.9830    0.8080   -0.4490 hc        1 HEE      0.055700
     17 H31         0.7950   -0.9270    1.8210 hc        1 HEE      0.028700
     18 H32         0.8020    0.6520    1.9210 hc        1 HEE      0.028700
     19 H41         2.9860    0.7010    1.0240 hc        1 HEE      0.038700
     20 H42         2.9780   -0.8990    0.9390 hc        1 HEE      0.038700
     21 H51         2.8690    0.5950    3.3730 hc        1 HEE      0.032700
     22 H52         2.7610   -0.9780    3.3220 hc        1 HEE      0.032700
     23 H61         4.9490   -0.3510    3.8730 hc        1 HEE      0.025033
     24 H62         4.9170   -1.1240    2.4460 hc        1 HEE      0.025033
     25 H63         5.0330    0.4880    2.4830 hc        1 HEE      0.025033
     26 H1'1       -3.3750   -0.1960   -3.7140 h1        1 HEE      0.025700
     27 H1'2       -3.6130    1.3320   -3.2560 h1        1 HEE      0.025700
     28 H2'1       -5.6820    0.2390   -3.6830 hc        1 HEE      0.017700
     29 H2'2       -5.3520   -0.8080   -2.5420 hc        1 HEE      0.017700
     30 H2'3       -5.5980    0.7070   -2.1780 hc        1 HEE      0.017700
@<TRIPOS>BOND
     1    1    2 1   
     2    1    7 1   
     3    1   13 1   
     4    1   14 1   
     5    2    3 1   
     6    2   15 1   
     7    2   16 1   
     8    3    4 1   
     9    3   17 1   
    10    3   18 1   
    11    4    5 1   
    12    4   19 1   
    13    4   20 1   
    14    5    6 1   
    15    5   21 1   
    16    5   22 1   
    17    6   23 1   
    18    6   24 1   
    19    6   25 1   
    20    7    8 1   
    21    7    9 1   
    22    7   10 1   
    23    9   11 1   
    24   11   12 1   
    25   11   26 1   
    26   11   27 1   
    27   12   28 1   
    28   12   29 1   
    29   12   30 1   
@<TRIPOS>SUBSTRUCTURE
     1 HEE         1 TEMP              0 ****  ****    0 ROOT
