@<TRIPOS>MOLECULE
HEF
   37    38     1     0     0
SMALL
bcc


@<TRIPOS>ATOM
      1 N1          0.0320   -0.1850    0.0110 n         1 HEF     -0.383000
      2 C2          1.4310    0.0880   -0.0630 c         1 HEF      0.799500
      3 O2          2.0390    0.0050   -1.1530 o         1 HEF     -0.648500
      4 N3          2.1310    0.4240    1.1010 n         1 HEF     -0.581500
      5 C4          1.5040    0.5650    2.3470 c         1 HEF      0.712700
      6 O4          2.1810    0.9360    3.3190 o         1 HEF     -0.600500
      7 C5          0.0680    0.2200    2.3980 cc        1 HEF     -0.199400
      8 C6         -0.6070   -0.1210    1.2560 cd        1 HEF      0.135200
      9 CM5        -0.5600    0.2480    3.7350 c3        1 HEF     -0.051900
     10 CM         -0.7050   -0.0810   -1.2450 c3        1 HEF      0.280800
     11 OM         -1.1270    1.2380   -1.5580 os        1 HEF     -0.436600
     12 CE1        -0.1290    2.0520   -2.1790 c3        1 HEF      0.079400
     13 CE2        -0.8010    3.3890   -2.4710 c3        1 HEF      0.131400
     14 OE         -1.1340    4.0770   -1.2840 oh        1 HEF     -0.596800
     15 S'         -2.2880   -0.4410    1.4550 ss        1 HEF     -0.087500
     16 C1'        -2.6590   -1.8760    0.6240 ca        1 HEF     -0.061100
     17 C2'        -3.9740   -1.9770    0.1480 ca        1 HEF     -0.104000
     18 C3'        -4.4190   -3.1590   -0.4370 ca        1 HEF     -0.125000
     19 C4'        -3.5510   -4.2430   -0.5730 ca        1 HEF     -0.114000
     20 C5'        -2.2380   -4.1430   -0.1150 ca        1 HEF     -0.125000
     21 C6'        -1.7940   -2.9670    0.4880 ca        1 HEF     -0.104000
     22 HN3         3.1080    0.6080    1.0110 hn        1 HEF      0.354500
     23 HM51        0.2080    0.0660    4.5300 hc        1 HEF      0.064367
     24 HM52       -1.0180    1.2530    3.9210 hc        1 HEF      0.064367
     25 HM53       -1.3650   -0.5280    3.8160 hc        1 HEF      0.064367
     26 HM1        -1.6720   -0.6560   -1.1550 h2        1 HEF      0.097700
     27 HM2        -0.0480   -0.4990   -2.0620 h2        1 HEF      0.097700
     28 HE11        0.7410    2.1830   -1.4830 h1        1 HEF      0.051700
     29 HE12        0.2200    1.5650   -3.1270 h1        1 HEF      0.051700
     30 HE21       -0.0820    4.0630   -3.0080 h1        1 HEF      0.055200
     31 HE22       -1.7190    3.2290   -3.0960 h1        1 HEF      0.055200
     32 HOE        -1.7160    3.4980   -0.7760 ho        1 HEF      0.411000
     33 H2'        -4.6560   -1.1160    0.2420 ha        1 HEF      0.145500
     34 H3'        -5.4560   -3.2340   -0.7970 ha        1 HEF      0.140500
     35 H4'        -3.9020   -5.1750   -1.0420 ha        1 HEF      0.139000
     36 H5'        -1.5490   -4.9940   -0.2220 ha        1 HEF      0.140500
     37 H6'        -0.7590   -2.8990    0.8580 ha        1 HEF      0.145500
@<TRIPOS>BOND
     1    1    2 1   
     2    1    8 1   
     3    1   10 1   
     4    2    3 2   
     5    2    4 1   
     6    4    5 1   
     7    4   22 1   
     8    5    6 2   
     9    5    7 1   
    10    7    8 2   
    11    7    9 1   
    12    8   15 1   
    13    9   23 1   
    14    9   24 1   
    15    9   25 1   
    16   10   11 1   
    17   10   26 1   
    18   10   27 1   
    19   11   12 1   
    20   12   13 1   
    21   12   28 1   
    22   12   29 1   
    23   13   14 1   
    24   13   30 1   
    25   13   31 1   
    26   14   32 1   
    27   15   16 1   
    28   16   17 ar  
    29   16   21 ar  
    30   17   18 ar  
    31   17   33 1   
    32   18   19 ar  
    33   18   34 1   
    34   19   20 ar  
    35   19   35 1   
    36   20   21 ar  
    37   20   36 1   
    38   21   37 1   
@<TRIPOS>SUBSTRUCTURE
     1 HEF         1 TEMP              0 ****  ****    0 ROOT
