@<TRIPOS>MOLECULE
HEF
   37    38     1     0     0
SMALL
bcc


@<TRIPOS>ATOM
      1 N1          0.2810   -0.6880   -0.5670 n         1 HEF     -0.383000
      2 C2          0.9750   -1.3910   -1.5960 c         1 HEF      0.799500
      3 O2          0.5060   -2.4500   -2.0710 o         1 HEF     -0.648500
      4 N3          2.2030   -0.9050   -2.0580 n         1 HEF     -0.581500
      5 C4          2.7660    0.2900   -1.5910 c         1 HEF      0.712700
      6 O4          3.8250    0.6930   -2.1020 o         1 HEF     -0.600500
      7 C5          2.0510    0.9630   -0.4870 cc        1 HEF     -0.199400
      8 C6          0.8560    0.4730   -0.0320 cd        1 HEF      0.135200
      9 CM5         2.7130    2.1530    0.0860 c3        1 HEF     -0.051900
     10 CM         -1.1470   -0.9690   -0.4530 c3        1 HEF      0.280800
     11 OM         -1.9570   -0.1970   -1.3250 os        1 HEF     -0.436600
     12 CE1        -2.0530   -0.7060   -2.6580 c3        1 HEF      0.079400
     13 CE2        -3.0000    0.2330   -3.3980 c3        1 HEF      0.131400
     14 OE         -2.4450    1.5220   -3.5490 oh        1 HEF     -0.596800
     15 S'          0.1050    1.3890    1.2190 ss        1 HEF     -0.087500
     16 C1'        -0.4040    0.3160    2.4340 ca        1 HEF     -0.061100
     17 C2'        -1.5150    0.7320    3.1800 ca        1 HEF     -0.104000
     18 C3'        -1.9400   -0.0120    4.2790 ca        1 HEF     -0.125000
     19 C4'        -1.2740   -1.1870    4.6280 ca        1 HEF     -0.114000
     20 C5'        -0.1770   -1.6120    3.8800 ca        1 HEF     -0.125000
     21 C6'         0.2620   -0.8610    2.7910 ca        1 HEF     -0.104000
     22 HN3         2.6590   -1.4240   -2.7780 hn        1 HEF      0.354500
     23 HM51        3.8210    2.0930   -0.0640 hc        1 HEF      0.064367
     24 HM52        2.3440    3.0780   -0.4250 hc        1 HEF      0.064367
     25 HM53        2.4940    2.2430    1.1820 hc        1 HEF      0.064367
     26 HM1        -1.2930   -2.0730   -0.6380 h2        1 HEF      0.097700
     27 HM2        -1.5020   -0.6700    0.5760 h2        1 HEF      0.097700
     28 HE11       -1.0390   -0.7130   -3.1350 h1        1 HEF      0.051700
     29 HE12       -2.4630   -1.7500   -2.6350 h1        1 HEF      0.051700
     30 HE21       -3.1590   -0.1420   -4.4440 h1        1 HEF      0.055200
     31 HE22       -3.9810    0.2940   -2.8570 h1        1 HEF      0.055200
     32 HOE        -2.2510    1.8510   -2.6630 ho        1 HEF      0.411000
     33 H2'        -2.0510    1.6520    2.8960 ha        1 HEF      0.145500
     34 H3'        -2.8060    0.3270    4.8660 ha        1 HEF      0.140500
     35 H4'        -1.6140   -1.7770    5.4920 ha        1 HEF      0.139000
     36 H5'         0.3510   -2.5390    4.1510 ha        1 HEF      0.140500
     37 H6'         1.1360   -1.1970    2.2120 ha        1 HEF      0.145500
@<TRIPOS>BOND
     1    1    2 1   
     2    1    8 1   
     3    1   10 1   
     4    2    3 2   
     5    2    4 1   
     6    4    5 1   
     7    4   22 1   
     8    5    6 2   
     9    5    7 1   
    10    7    8 2   
    11    7    9 1   
    12    8   15 1   
    13    9   23 1   
    14    9   24 1   
    15    9   25 1   
    16   10   11 1   
    17   10   26 1   
    18   10   27 1   
    19   11   12 1   
    20   12   13 1   
    21   12   28 1   
    22   12   29 1   
    23   13   14 1   
    24   13   30 1   
    25   13   31 1   
    26   14   32 1   
    27   15   16 1   
    28   16   17 ar  
    29   16   21 ar  
    30   17   18 ar  
    31   17   33 1   
    32   18   19 ar  
    33   18   34 1   
    34   19   20 ar  
    35   19   35 1   
    36   20   21 ar  
    37   20   36 1   
    38   21   37 1   
@<TRIPOS>SUBSTRUCTURE
     1 HEF         1 TEMP              0 ****  ****    0 ROOT
