@<TRIPOS>MOLECULE
HEF
   37    38     1     0     0
SMALL
bcc


@<TRIPOS>ATOM
      1 N1          0.0330   -0.1800    0.0160 n         1 HEF     -0.383000
      2 C2          1.4300    0.0990   -0.0520 c         1 HEF      0.799500
      3 O2          2.0440    0.0150   -1.1400 o         1 HEF     -0.648500
      4 N3          2.1230    0.4420    1.1130 n         1 HEF     -0.581500
      5 C4          1.4900    0.5840    2.3560 c         1 HEF      0.712700
      6 O4          2.1600    0.9600    3.3310 o         1 HEF     -0.600500
      7 C5          0.0550    0.2330    2.4020 cc        1 HEF     -0.199400
      8 C6         -0.6130   -0.1150    1.2570 cd        1 HEF      0.135200
      9 CM5        -0.5790    0.2620    3.7360 c3        1 HEF     -0.051900
     10 CM         -0.6990   -0.0840   -1.2440 c3        1 HEF      0.280800
     11 OM         -1.1250    1.2320   -1.5640 os        1 HEF     -0.436600
     12 CE1        -0.1280    2.0480   -2.1830 c3        1 HEF      0.079400
     13 CE2        -0.8050    3.3800   -2.4850 c3        1 HEF      0.131400
     14 OE         -1.1490    4.0720   -1.3040 oh        1 HEF     -0.596800
     15 S'         -2.2940   -0.4420    1.4490 ss        1 HEF     -0.087500
     16 C1'        -2.6540   -1.8820    0.6220 ca        1 HEF     -0.061100
     17 C2'        -3.9670   -1.9900    0.1420 ca        1 HEF     -0.104000
     18 C3'        -4.4040   -3.1760   -0.4410 ca        1 HEF     -0.125000
     19 C4'        -3.5300   -4.2570   -0.5700 ca        1 HEF     -0.114000
     20 C5'        -2.2190   -4.1490   -0.1070 ca        1 HEF     -0.125000
     21 C6'        -1.7840   -2.9680    0.4930 ca        1 HEF     -0.104000
     22 HN3         3.1000    0.6290    1.0280 hn        1 HEF      0.354500
     23 HM51       -1.0420    1.2660    3.9160 hc        1 HEF      0.064367
     24 HM52       -1.3810   -0.5170    3.8150 hc        1 HEF      0.064367
     25 HM53        0.1850    0.0860    4.5350 hc        1 HEF      0.064367
     26 HM1        -0.0360   -0.5020   -2.0560 h2        1 HEF      0.097700
     27 HM2        -1.6640   -0.6630   -1.1560 h2        1 HEF      0.097700
     28 HE11        0.7370    2.1870   -1.4820 h1        1 HEF      0.051700
     29 HE12        0.2300    1.5580   -3.1260 h1        1 HEF      0.051700
     30 HE21       -0.0860    4.0550   -3.0210 h1        1 HEF      0.055200
     31 HE22       -1.7180    3.2120   -3.1160 h1        1 HEF      0.055200
     32 HOE        -1.7310    3.4920   -0.7970 ho        1 HEF      0.411000
     33 H2'        -4.6530   -1.1330    0.2300 ha        1 HEF      0.145500
     34 H3'        -5.4390   -3.2580   -0.8060 ha        1 HEF      0.140500
     35 H4'        -3.8750   -5.1920   -1.0370 ha        1 HEF      0.139000
     36 H5'        -1.5260   -4.9970   -0.2080 ha        1 HEF      0.140500
     37 H6'        -0.7510   -2.8950    0.8680 ha        1 HEF      0.145500
@<TRIPOS>BOND
     1    1    2 1   
     2    1    8 1   
     3    1   10 1   
     4    2    3 2   
     5    2    4 1   
     6    4    5 1   
     7    4   22 1   
     8    5    6 2   
     9    5    7 1   
    10    7    8 2   
    11    7    9 1   
    12    8   15 1   
    13    9   23 1   
    14    9   24 1   
    15    9   25 1   
    16   10   11 1   
    17   10   26 1   
    18   10   27 1   
    19   11   12 1   
    20   12   13 1   
    21   12   28 1   
    22   12   29 1   
    23   13   14 1   
    24   13   30 1   
    25   13   31 1   
    26   14   32 1   
    27   15   16 1   
    28   16   17 ar  
    29   16   21 ar  
    30   17   18 ar  
    31   17   33 1   
    32   18   19 ar  
    33   18   34 1   
    34   19   20 ar  
    35   19   35 1   
    36   20   21 ar  
    37   20   36 1   
    38   21   37 1   
@<TRIPOS>SUBSTRUCTURE
     1 HEF         1 TEMP              0 ****  ****    0 ROOT
