@<TRIPOS>MOLECULE
HEF
   37    38     1     0     0
SMALL
bcc


@<TRIPOS>ATOM
      1 N1          0.0330   -0.1840    0.0130 n         1 HEF     -0.383000
      2 C2          1.4300    0.0900   -0.0600 c         1 HEF      0.799500
      3 O2          2.0410    0.0050   -1.1490 o         1 HEF     -0.648500
      4 N3          2.1290    0.4310    1.1040 ns        1 HEF     -0.581500
      5 C4          1.4990    0.5760    2.3480 c         1 HEF      0.712700
      6 O4          2.1740    0.9500    3.3210 o         1 HEF     -0.600500
      7 C5          0.0630    0.2300    2.3990 cc        1 HEF     -0.199400
      8 C6         -0.6090   -0.1160    1.2560 cd        1 HEF      0.135200
      9 CM5        -0.5660    0.2620    3.7350 c3        1 HEF     -0.051900
     10 CM         -0.7030   -0.0850   -1.2450 c3        1 HEF      0.280800
     11 OM         -1.1250    1.2320   -1.5640 os        1 HEF     -0.436600
     12 CE1        -0.1270    2.0440   -2.1860 c3        1 HEF      0.079400
     13 CE2        -0.8000    3.3790   -2.4870 c3        1 HEF      0.131400
     14 OE         -1.1380    4.0720   -1.3050 oh        1 HEF     -0.596800
     15 S'         -2.2910   -0.4370    1.4540 ss        1 HEF     -0.087500
     16 C1'        -2.6580   -1.8760    0.6280 ca        1 HEF     -0.061100
     17 C2'        -3.9730   -1.9800    0.1510 ca        1 HEF     -0.104000
     18 C3'        -4.4160   -3.1650   -0.4300 ca        1 HEF     -0.125000
     19 C4'        -3.5460   -4.2480   -0.5610 ca        1 HEF     -0.114000
     20 C5'        -2.2340   -4.1450   -0.1020 ca        1 HEF     -0.125000
     21 C6'        -1.7920   -2.9660    0.4970 ca        1 HEF     -0.104000
     22 HN3         3.1060    0.6150    1.0150 hn        1 HEF      0.354500
     23 HM51       -1.0260    1.2670    3.9160 hc        1 HEF      0.064367
     24 HM52       -1.3710   -0.5140    3.8160 hc        1 HEF      0.064367
     25 HM53        0.2000    0.0830    4.5310 hc        1 HEF      0.064367
     26 HM1        -0.0440   -0.5060   -2.0590 h2        1 HEF      0.097700
     27 HM2        -1.6690   -0.6610   -1.1540 h2        1 HEF      0.097700
     28 HE11        0.7400    2.1800   -1.4880 h1        1 HEF      0.051700
     29 HE12        0.2270    1.5540   -3.1300 h1        1 HEF      0.051700
     30 HE21       -0.0800    4.0510   -3.0250 h1        1 HEF      0.055200
     31 HE22       -1.7160    3.2140   -3.1150 h1        1 HEF      0.055200
     32 HOE        -1.7210    3.4950   -0.7950 ho        1 HEF      0.411000
     33 H2'        -4.6560   -1.1200    0.2410 ha        1 HEF      0.145500
     34 H3'        -5.4520   -3.2420   -0.7910 ha        1 HEF      0.140500
     35 H4'        -3.8960   -5.1820   -1.0270 ha        1 HEF      0.139000
     36 H5'        -1.5440   -4.9960   -0.2050 ha        1 HEF      0.140500
     37 H6'        -0.7580   -2.8950    0.8680 ha        1 HEF      0.145500
@<TRIPOS>BOND
     1    1    2 1   
     2    1    8 1   
     3    1   10 1   
     4    2    3 2   
     5    2    4 1   
     6    4    5 1   
     7    4   22 1   
     8    5    6 2   
     9    5    7 1   
    10    7    8 2   
    11    7    9 1   
    12    8   15 1   
    13    9   23 1   
    14    9   24 1   
    15    9   25 1   
    16   10   11 1   
    17   10   26 1   
    18   10   27 1   
    19   11   12 1   
    20   12   13 1   
    21   12   28 1   
    22   12   29 1   
    23   13   14 1   
    24   13   30 1   
    25   13   31 1   
    26   14   32 1   
    27   15   16 1   
    28   16   17 ar  
    29   16   21 ar  
    30   17   18 ar  
    31   17   33 1   
    32   18   19 ar  
    33   18   34 1   
    34   19   20 ar  
    35   19   35 1   
    36   20   21 ar  
    37   20   36 1   
    38   21   37 1   
@<TRIPOS>SUBSTRUCTURE
     1 HEF         1 TEMP              0 ****  ****    0 ROOT
