@<TRIPOS>MOLECULE
HEL
   54    55     1     0     0
SMALL
bcc


@<TRIPOS>ATOM
      1 S1          3.9210    0.1010   -1.6920 ss        1 HEL     -0.443200
      2 C2          5.1480    1.1890   -0.8580 c3        1 HEL      0.092100
      3 C3          5.8070    0.3490    0.2760 c3        1 HEL     -0.082300
      4 N4          5.0180   -0.8310    0.5610 n         1 HEL     -0.336800
      5 C5          4.1490   -1.2650   -0.5510 cy        1 HEL      0.131800
      6 C6          2.9760   -1.5170    0.4770 cy        1 HEL     -0.018300
      7 C7          3.9580   -0.8640    1.5190 c         1 HEL      0.651500
      8 N8          1.7610   -0.8200    0.2450 n         1 HEL     -0.537900
      9 C9          0.5230   -1.4300    0.2950 c         1 HEL      0.659100
     10 O10         0.3770   -2.6100    0.6740 o         1 HEL     -0.614100
     11 C11        -0.6640   -0.5620   -0.0970 c3        1 HEL     -0.153400
     12 C12        -1.9620   -1.3250    0.0500 c3        1 HEL     -0.074400
     13 C13        -3.1460   -0.4300   -0.2520 c3        1 HEL     -0.081400
     14 C14        -4.4450   -1.1880   -0.0980 c3        1 HEL     -0.086400
     15 C15        -5.6600   -0.3190   -0.4530 c3        1 HEL      0.019700
     16 C16        -6.8990   -1.2180   -0.5370 c         1 HEL      0.610100
     17 O17        -7.9850   -0.7750   -1.2250 oh        1 HEL     -0.587100
     18 O18        -7.0240   -2.3420   -0.0560 o         1 HEL     -0.493000
     19 N19        -5.8650    0.7740    0.4670 n         1 HEL     -0.562900
     20 C20        -6.5140    1.9300    0.0970 c         1 HEL      0.614100
     21 O21        -7.0490    2.0290   -1.0300 o         1 HEL     -0.645100
     22 C22        -6.5690    3.0770    1.1200 c3        1 HEL      0.096800
     23 N23        -7.2700    4.2510    0.6920 n3        1 HEL     -0.885800
     24 C24         6.1480    1.6350   -1.8930 c3        1 HEL     -0.089100
     25 C25         4.3960    2.3670   -0.2890 c3        1 HEL     -0.089100
     26 C26         7.3120    0.0080   -0.0940 c         1 HEL      0.942600
     27 O27         8.1550    0.7790    0.4350 o         1 HEL     -0.810300
     28 O28         7.5560   -0.9440   -0.8730 o         1 HEL     -0.810300
     29 O29         3.8680   -0.5760    2.7050 o         1 HEL     -0.569500
     30 H3          5.8570    0.9760    1.2140 h1        1 HEL      0.081700
     31 H5          4.5250   -2.1670   -1.0790 h2        1 HEL      0.123700
     32 H6          2.7870   -2.6030    0.6830 h1        1 HEL      0.114700
     33 HN8         1.8520    0.0630   -0.2140 hn        1 HEL      0.329500
     34 H111       -0.6800    0.3510    0.5550 hc        1 HEL      0.062700
     35 H112       -0.5370   -0.2240   -1.1590 hc        1 HEL      0.062700
     36 H121       -1.9570   -2.2090   -0.6400 hc        1 HEL      0.063200
     37 H122       -2.0410   -1.7310    1.0940 hc        1 HEL      0.063200
     38 H131       -3.1280    0.4530    0.4390 hc        1 HEL      0.038700
     39 H132       -3.0610   -0.0330   -1.2990 hc        1 HEL      0.038700
     40 H141       -4.4540   -2.0760   -0.7850 hc        1 HEL      0.072200
     41 H142       -4.5470   -1.5850    0.9460 hc        1 HEL      0.072200
     42 H15        -5.5050    0.1180   -1.4900 h1        1 HEL      0.087700
     43 H19        -5.4530    0.6970    1.3660 hn        1 HEL      0.327500
     44 H221       -7.0650    2.6860    2.0540 h1        1 HEL      0.078200
     45 H222       -5.5090    3.3660    1.3750 h1        1 HEL      0.078200
     46 H231       -8.2230    4.0380    0.4690 hn        1 HEL      0.362800
     47 H232       -7.8350    0.1280   -1.5530 ho        1 HEL      0.455000
     48 H233       -6.8360    4.6530   -0.1170 hn        1 HEL      0.362800
     49 H241        6.9730    2.2040   -1.3930 hc        1 HEL      0.046367
     50 H242        6.6030    0.7460   -2.4000 hc        1 HEL      0.046367
     51 H243        5.6590    2.2870   -2.6550 hc        1 HEL      0.046367
     52 H251        3.8460    2.9120   -1.0950 hc        1 HEL      0.046367
     53 H252        3.6610    2.0340    0.4830 hc        1 HEL      0.046367
     54 H253        5.1150    3.0780    0.1900 hc        1 HEL      0.046367
@<TRIPOS>BOND
     1    1    2 1   
     2    1    5 1   
     3    2    3 1   
     4    2   24 1   
     5    2   25 1   
     6    3    4 1   
     7    3   26 1   
     8    3   30 1   
     9    4    5 1   
    10    4    7 1   
    11    5    6 1   
    12    5   31 1   
    13    6    7 1   
    14    6    8 1   
    15    6   32 1   
    16    7   29 2   
    17    8    9 1   
    18    8   33 1   
    19    9   10 2   
    20    9   11 1   
    21   11   12 1   
    22   11   34 1   
    23   11   35 1   
    24   12   13 1   
    25   12   36 1   
    26   12   37 1   
    27   13   14 1   
    28   13   38 1   
    29   13   39 1   
    30   14   15 1   
    31   14   40 1   
    32   14   41 1   
    33   15   16 1   
    34   15   19 1   
    35   15   42 1   
    36   16   17 1   
    37   16   18 2   
    38   17   47 1   
    39   19   20 1   
    40   19   43 1   
    41   20   21 2   
    42   20   22 1   
    43   22   23 1   
    44   22   44 1   
    45   22   45 1   
    46   23   46 1   
    47   23   48 1   
    48   24   49 1   
    49   24   50 1   
    50   24   51 1   
    51   25   52 1   
    52   25   53 1   
    53   25   54 1   
    54   26   27 1   
    55   26   28 1   
@<TRIPOS>SUBSTRUCTURE
     1 HEL         1 TEMP              0 ****  ****    0 ROOT
