@<TRIPOS>MOLECULE
HEL
   56    57     1     0     0
SMALL
bcc


@<TRIPOS>ATOM
      1 S1          0.4430    0.3930    1.0270 ss        1 HEL     -0.357200
      2 C2          0.9760    2.1700    1.1500 c3        1 HEL      0.124100
      3 C3         -0.0430    2.7430    2.1540 c3        1 HEL     -0.063300
      4 N4         -0.2950    1.7640    3.2210 n         1 HEL     -0.291800
      5 C5         -0.1510    0.3710    2.6960 cy        1 HEL      0.075800
      6 C6         -1.6890    0.1130    2.9420 cy        1 HEL     -0.048500
      7 C7         -1.6750    1.5570    3.5720 c         1 HEL      0.670500
      8 N8         -2.4840   -0.0490    1.7050 n4        1 HEL     -0.680800
      9 C9         -3.8180    0.6890    1.7240 c         1 HEL      0.554100
     10 O10        -4.7710    0.0150    2.0750 o         1 HEL     -0.396100
     11 C11        -3.7830    2.1200    1.2710 c3        1 HEL     -0.150400
     12 C12        -5.0590    2.8630    1.6380 c3        1 HEL     -0.079400
     13 C13        -4.8010    4.3560    1.7670 c3        1 HEL     -0.084400
     14 C14        -4.3270    4.7140    3.1600 c3        1 HEL     -0.095400
     15 C15        -3.8500    6.1680    3.2820 c3        1 HEL      0.013700
     16 C16        -3.6500    6.4650    4.7780 c         1 HEL      0.612100
     17 O17        -4.7170    6.5060    5.6120 oh        1 HEL     -0.539100
     18 O18        -2.5660    6.6910    5.3270 o         1 HEL     -0.540000
     19 N19        -2.6420    6.4360    2.5360 n         1 HEL     -0.546900
     20 C20        -2.1070    7.7190    2.5760 c         1 HEL      0.644100
     21 O21        -2.8040    8.7430    2.5950 o         1 HEL     -0.531100
     22 C22        -0.5750    7.8410    2.5680 c3        1 HEL      0.024800
     23 N23         0.0390    7.2160    3.7670 n4        1 HEL     -0.854600
     24 C24         2.3940    2.2400    1.6500 c3        1 HEL     -0.099100
     25 C25         0.8190    2.7970   -0.2090 c3        1 HEL     -0.099100
     26 C26         0.3260    4.1590    2.6420 c         1 HEL      0.928600
     27 O27        -0.1070    5.1060    1.9030 o         1 HEL     -0.821300
     28 O28         0.9460    4.4080    3.7030 o         1 HEL     -0.821300
     29 O29        -2.5170    2.1590    4.2100 o         1 HEL     -0.477500
     30 H3         -1.0010    2.9060    1.5600 h1        1 HEL      0.033700
     31 H5          0.4890   -0.2550    3.3650 h2        1 HEL      0.155700
     32 H6         -1.9220   -0.7040    3.6710 hx        1 HEL      0.149700
     33 HN8        -2.6660   -1.0520    1.5660 hn        1 HEL      0.470300
     34 H111       -2.9060    2.6460    1.7390 hc        1 HEL      0.102200
     35 H112       -3.6380    2.1310    0.1550 hc        1 HEL      0.102200
     36 H121       -5.8300    2.6830    0.8430 hc        1 HEL      0.077200
     37 H122       -5.4760    2.4630    2.6010 hc        1 HEL      0.077200
     38 H131       -5.7560    4.9050    1.5480 hc        1 HEL      0.071200
     39 H132       -4.0520    4.6840    0.9990 hc        1 HEL      0.071200
     40 H141       -5.1720    4.5680    3.8860 hc        1 HEL      0.066700
     41 H142       -3.5010    4.0220    3.4780 hc        1 HEL      0.066700
     42 H15        -4.6540    6.8710    2.9020 h1        1 HEL      0.109700
     43 H19        -5.5390    6.3920    5.1120 ho        1 HEL      0.439000
     44 H221       -0.1590    7.3330    1.6450 hx        1 HEL      0.136200
     45 H222       -0.3190    8.9390    2.5440 hx        1 HEL      0.136200
     46 H231       -0.6630    7.0370    4.4980 hn        1 HEL      0.478133
     47 H232        0.7610    7.8270    4.1490 hn        1 HEL      0.478133
     48 H233        0.4790    6.2980    3.5070 hn        1 HEL      0.478133
     49 H241        2.5050    1.7080    2.6260 hc        1 HEL      0.069367
     50 H242        2.6760    3.3130    1.8080 hc        1 HEL      0.069367
     51 H243        3.0950    1.7850    0.9080 hc        1 HEL      0.069367
     52 H251       -0.1470    2.5000   -0.6850 hc        1 HEL      0.069367
     53 H252        0.8290    3.9140   -0.0980 hc        1 HEL      0.069367
     54 H253        1.6590    2.4940   -0.8820 hc        1 HEL      0.069367
     55 H82        -1.8930    0.2910    0.9080 hn        1 HEL      0.470300
     56 H192       -1.9990    5.6730    2.4380 hn        1 HEL      0.344500
@<TRIPOS>BOND
     1    1    2 1   
     2    1    5 1   
     3    2    3 1   
     4    2   24 1   
     5    2   25 1   
     6    3    4 1   
     7    3   26 1   
     8    3   30 1   
     9    4    5 1   
    10    4    7 1   
    11    5    6 1   
    12    5   31 1   
    13    6    7 1   
    14    6    8 1   
    15    6   32 1   
    16    7   29 2   
    17    8    9 1   
    18    8   33 1   
    19    8   55 1   
    20    9   10 2   
    21    9   11 1   
    22   11   12 1   
    23   11   34 1   
    24   11   35 1   
    25   12   13 1   
    26   12   36 1   
    27   12   37 1   
    28   13   14 1   
    29   13   38 1   
    30   13   39 1   
    31   14   15 1   
    32   14   40 1   
    33   14   41 1   
    34   15   16 1   
    35   15   19 1   
    36   15   42 1   
    37   16   17 1   
    38   16   18 2   
    39   17   43 1   
    40   19   20 1   
    41   19   56 1   
    42   20   21 2   
    43   20   22 1   
    44   22   23 1   
    45   22   44 1   
    46   22   45 1   
    47   23   46 1   
    48   23   47 1   
    49   23   48 1   
    50   24   49 1   
    51   24   50 1   
    52   24   51 1   
    53   25   52 1   
    54   25   53 1   
    55   25   54 1   
    56   26   27 1   
    57   26   28 1   
@<TRIPOS>SUBSTRUCTURE
     1 HEL         1 TEMP              0 ****  ****    0 ROOT
