@<TRIPOS>MOLECULE
HEL
   56    57     1     0     0
SMALL
bcc


@<TRIPOS>ATOM
      1 S1          0.4310    0.3900    1.0150 ss        1 HEL     -0.357200
      2 C2          0.9720    2.1630    1.1500 c3        1 HEL      0.124100
      3 C3         -0.0480    2.7350    2.1540 c3        1 HEL     -0.063300
      4 N4         -0.3080    1.7510    3.2140 n         1 HEL     -0.291800
      5 C5         -0.1680    0.3600    2.6810 cy        1 HEL      0.075800
      6 C6         -1.7080    0.1070    2.9210 cy        1 HEL     -0.048500
      7 C7         -1.6900    1.5480    3.5590 c         1 HEL      0.670500
      8 N8         -2.4990   -0.0440    1.6800 n4        1 HEL     -0.680800
      9 C9         -3.8310    0.7000    1.7000 c         1 HEL      0.554100
     10 O10        -4.7870    0.0280    2.0430 o         1 HEL     -0.396100
     11 C11        -3.7880    2.1330    1.2550 c3        1 HEL     -0.150400
     12 C12        -5.0610    2.8800    1.6230 c3        1 HEL     -0.079400
     13 C13        -4.7970    4.3710    1.7610 c3        1 HEL     -0.084400
     14 C14        -4.3260    4.7190    3.1570 c3        1 HEL     -0.095400
     15 C15        -3.8420    6.1710    3.2880 c3        1 HEL      0.013700
     16 C16        -3.6460    6.4590    4.7860 c         1 HEL      0.612100
     17 O17        -4.7150    6.5000    5.6170 oh        1 HEL     -0.539100
     18 O18        -2.5630    6.6780    5.3400 o         1 HEL     -0.540000
     19 N19        -2.6310    6.4370    2.5470 n         1 HEL     -0.546900
     20 C20        -2.0900    7.7170    2.5950 c         1 HEL      0.644100
     21 O21        -2.7820    8.7440    2.6170 o         1 HEL     -0.531100
     22 C22        -0.5570    7.8330    2.5940 c3        1 HEL      0.024800
     23 N23         0.0500    7.1990    3.7920 n4        1 HEL     -0.854600
     24 C24         2.3890    2.2240    1.6540 c3        1 HEL     -0.099100
     25 C25         0.8220    2.7990   -0.2070 c3        1 HEL     -0.099100
     26 C26         0.3260    4.1470    2.6510 c         1 HEL      0.928600
     27 O27        -0.0990    5.0990    1.9160 o         1 HEL     -0.820800
     28 O28         0.9420    4.3860    3.7160 o         1 HEL     -0.820800
     29 O29        -2.5310    2.1500    4.1980 o         1 HEL     -0.477500
     30 H3         -1.0040    2.9060    1.5570 h1        1 HEL      0.033700
     31 H5          0.4670   -0.2730    3.3490 h2        1 HEL      0.155700
     32 H6         -1.9470   -0.7130    3.6450 hx        1 HEL      0.149700
     33 HN8        -2.6860   -1.0460    1.5350 hn        1 HEL      0.470300
     34 H111       -3.6400    2.1500    0.1390 hc        1 HEL      0.102200
     35 H112       -2.9090    2.6530    1.7280 hc        1 HEL      0.102200
     36 H121       -5.8310    2.7070    0.8250 hc        1 HEL      0.077200
     37 H122       -5.4820    2.4760    2.5820 hc        1 HEL      0.077200
     38 H131       -5.7480    4.9260    1.5420 hc        1 HEL      0.071200
     39 H132       -4.0450    4.7000    0.9970 hc        1 HEL      0.071200
     40 H141       -5.1730    4.5730    3.8800 hc        1 HEL      0.066700
     41 H142       -3.5030    4.0220    3.4730 hc        1 HEL      0.066700
     42 H15        -4.6420    6.8790    2.9080 h1        1 HEL      0.109700
     43 H19        -5.5370    6.3920    5.1130 ho        1 HEL      0.439000
     44 H221       -0.2970    8.9300    2.5760 hx        1 HEL      0.136200
     45 H222       -0.1410    7.3280    1.6700 hx        1 HEL      0.136200
     46 H231        0.7740    7.8040    4.1780 hn        1 HEL      0.478133
     47 H232        0.4840    6.2790    3.5290 hn        1 HEL      0.478133
     48 H233       -0.6560    7.0210    4.5200 hn        1 HEL      0.478133
     49 H241        3.0900    1.7700    0.9130 hc        1 HEL      0.069367
     50 H242        2.6750    3.2950    1.8200 hc        1 HEL      0.069367
     51 H243        2.4930    1.6860    2.6280 hc        1 HEL      0.069367
     52 H251        1.6620    2.4960   -0.8780 hc        1 HEL      0.069367
     53 H252       -0.1440    2.5090   -0.6870 hc        1 HEL      0.069367
     54 H253        0.8360    3.9150   -0.0890 hc        1 HEL      0.069367
     55 H82        -1.9040    0.2980    0.8880 hn        1 HEL      0.470300
     56 H192       -1.9900    5.6710    2.4480 hn        1 HEL      0.344500
@<TRIPOS>BOND
     1    1    2 1   
     2    1    5 1   
     3    2    3 1   
     4    2   24 1   
     5    2   25 1   
     6    3    4 1   
     7    3   26 1   
     8    3   30 1   
     9    4    5 1   
    10    4    7 1   
    11    5    6 1   
    12    5   31 1   
    13    6    7 1   
    14    6    8 1   
    15    6   32 1   
    16    7   29 2   
    17    8    9 1   
    18    8   33 1   
    19    8   55 1   
    20    9   10 2   
    21    9   11 1   
    22   11   12 1   
    23   11   34 1   
    24   11   35 1   
    25   12   13 1   
    26   12   36 1   
    27   12   37 1   
    28   13   14 1   
    29   13   38 1   
    30   13   39 1   
    31   14   15 1   
    32   14   40 1   
    33   14   41 1   
    34   15   16 1   
    35   15   19 1   
    36   15   42 1   
    37   16   17 1   
    38   16   18 2   
    39   17   43 1   
    40   19   20 1   
    41   19   56 1   
    42   20   21 2   
    43   20   22 1   
    44   22   23 1   
    45   22   44 1   
    46   22   45 1   
    47   23   46 1   
    48   23   47 1   
    49   23   48 1   
    50   24   49 1   
    51   24   50 1   
    52   24   51 1   
    53   25   52 1   
    54   25   53 1   
    55   25   54 1   
    56   26   27 1   
    57   26   28 1   
@<TRIPOS>SUBSTRUCTURE
     1 HEL         1 TEMP              0 ****  ****    0 ROOT
