@<TRIPOS>MOLECULE
HEL
   54    55     1     0     0
SMALL
bcc


@<TRIPOS>ATOM
      1 S1          5.2720   -0.1730   -1.2450 ss        1 HEL     -0.410200
      2 C2          6.8800    0.3340   -0.7580 c3        1 HEL      0.085100
      3 C3          6.7000    1.0450    0.4490 c3        1 HEL     -0.081300
      4 N4          5.1540    0.2460    1.1430 n         1 HEL     -0.338800
      5 C5          4.5530   -0.5690    0.0380 cy        1 HEL      0.129800
      6 C6          3.2250    0.0760    0.2410 cy        1 HEL     -0.011300
      7 C7          3.8870    0.9740    1.3080 c         1 HEL      0.645500
      8 N8          3.1840    0.0460    0.2570 n         1 HEL     -0.543900
      9 C9          1.5210    0.4400   -0.3280 c         1 HEL      0.661100
     10 O10         1.3560    1.3520   -1.0360 o         1 HEL     -0.615100
     11 C11         0.0510   -0.5250    0.2620 c3        1 HEL     -0.152400
     12 C12        -1.3620    0.1330   -0.3900 c3        1 HEL     -0.071400
     13 C13        -2.6850   -0.5240    0.3890 c3        1 HEL     -0.088400
     14 C14        -4.0130   -0.1790   -0.4760 c3        1 HEL     -0.091400
     15 C15        -5.3090   -0.3170    0.4310 c3        1 HEL      0.066700
     16 C16        -5.6110    1.0230    1.0720 c         1 HEL      0.863600
     17 O17        -5.4960    1.1700    2.3700 o         1 HEL     -0.600800
     18 O18        -6.1340    1.9720    0.3580 o         1 HEL     -0.600800
     19 N19        -6.3970   -0.7090   -0.3550 n         1 HEL     -0.553900
     20 C20        -7.7650   -0.6520    0.1960 c         1 HEL      0.658100
     21 O21        -7.9340   -0.5620    1.4050 o         1 HEL     -0.606100
     22 C22        -8.9430   -0.8040   -0.7080 c3        1 HEL      0.085800
     23 N23       -10.0860   -0.9890    0.0650 n4        1 HEL     -1.128600
     24 C24         7.6580   -0.9860   -0.3790 c3        1 HEL     -0.087600
     25 C25         7.3770    1.3460   -1.8530 c3        1 HEL     -0.087600
     26 C26         7.7880    1.0200    1.3280 c         1 HEL      0.941600
     27 O27         8.9500    1.3310    0.9170 o         1 HEL     -0.812800
     28 O28         7.6360    0.5310    2.5100 o         1 HEL     -0.812800
     29 O29         3.5630    2.0510    1.8740 o         1 HEL     -0.578500
     30 H3          6.5840    2.0430    0.2950 h1        1 HEL      0.080700
     31 H5          4.5570   -1.4890    0.2110 h2        1 HEL      0.113700
     32 H6          2.8100    0.6300   -0.6680 h1        1 HEL      0.124700
     33 HN8         3.3680   -0.9080    0.8760 hn        1 HEL      0.319500
     34 H111        0.0030   -0.4890    1.2980 hc        1 HEL      0.064700
     35 H112        0.1340   -1.4940   -0.0410 hc        1 HEL      0.064700
     36 H121       -1.4140   -0.0850   -1.3650 hc        1 HEL      0.059700
     37 H122       -1.3590    1.1270   -0.2750 hc        1 HEL      0.059700
     38 H131       -2.5800   -1.4800    0.4580 hc        1 HEL      0.049700
     39 H132       -2.7620   -0.1510    1.2600 hc        1 HEL      0.049700
     40 H141       -4.0770   -0.7850   -1.2280 hc        1 HEL      0.062200
     41 H142       -3.9460    0.7510   -0.8090 hc        1 HEL      0.062200
     42 H15        -5.1590   -0.9650    1.1020 h1        1 HEL      0.122700
     43 H19        -6.2670   -0.9670   -1.2020 hn        1 HEL      0.337500
     44 H221       -8.8150   -1.5590   -1.2780 hx        1 HEL      0.060700
     45 H222       -9.0410   -0.0200   -1.2380 hx        1 HEL      0.060700
     46 H231      -10.8250   -0.9490   -0.4690 hn        1 HEL      0.390133
     47 H232      -10.1300   -0.3450    0.6890 hn        1 HEL      0.390133
     48 H233      -10.0500   -1.8090    0.4770 hn        1 HEL      0.390133
     49 H241        7.3440   -1.3060    0.5250 hc        1 HEL      0.045700
     50 H242        7.4640   -1.7340   -1.1030 hc        1 HEL      0.045700
     51 H243        8.6730   -0.7950   -0.3440 hc        1 HEL      0.045700
     52 H251        6.8020    2.1560   -1.8330 hc        1 HEL      0.045700
     53 H252        7.3160    0.9140   -2.7600 hc        1 HEL      0.045700
     54 H253        8.3510    1.6080   -1.6680 hc        1 HEL      0.045700
@<TRIPOS>BOND
     1    1    2 1   
     2    1    5 1   
     3    2    3 1   
     4    2   24 1   
     5    2   25 1   
     6    3    4 1   
     7    3   26 1   
     8    3   30 1   
     9    4    5 1   
    10    4    7 1   
    11    5    6 1   
    12    5   31 1   
    13    6    7 1   
    14    6    8 1   
    15    6   32 1   
    16    7   29 2   
    17    8    9 1   
    18    8   33 1   
    19    9   10 2   
    20    9   11 1   
    21   11   12 1   
    22   11   34 1   
    23   11   35 1   
    24   12   13 1   
    25   12   36 1   
    26   12   37 1   
    27   13   14 1   
    28   13   38 1   
    29   13   39 1   
    30   14   15 1   
    31   14   40 1   
    32   14   41 1   
    33   15   16 1   
    34   15   19 1   
    35   15   42 1   
    36   16   17 1   
    37   16   18 1   
    38   19   20 1   
    39   19   43 1   
    40   20   21 2   
    41   20   22 1   
    42   22   23 1   
    43   22   44 1   
    44   22   45 1   
    45   23   46 1   
    46   23   47 1   
    47   23   48 1   
    48   24   49 1   
    49   24   50 1   
    50   24   51 1   
    51   25   52 1   
    52   25   53 1   
    53   25   54 1   
    54   26   27 1   
    55   26   28 1   
@<TRIPOS>SUBSTRUCTURE
     1 HEL         1 TEMP              0 ****  ****    0 ROOT
