@<TRIPOS>MOLECULE
HEL
   56    57     1     0     0
SMALL
bcc


@<TRIPOS>ATOM
      1 S1          0.3870    0.5270    0.6880 ss        1 HEL     -0.377200
      2 C2          0.8480    2.3270    0.7260 c3        1 HEL      0.130100
      3 C3          0.0900    2.8980    1.9450 c3        1 HEL     -0.055300
      4 N4         -0.0880    1.8620    2.9660 n         1 HEL     -0.302800
      5 C5          0.0770    0.4820    2.4310 cy        1 HEL      0.089800
      6 C6         -1.3860    0.1250    2.8990 cy        1 HEL     -0.047500
      7 C7         -1.4170    1.6090    3.4340 c         1 HEL      0.676500
      8 N8         -2.3140   -0.2080    1.7970 ny        1 HEL     -0.679800
      9 C9         -3.6860    0.4320    1.9350 c         1 HEL      0.554100
     10 O10        -4.5260   -0.2620    2.4830 o         1 HEL     -0.398100
     11 C11        -3.8480    1.8030    1.3420 c3        1 HEL     -0.145400
     12 C12        -4.6390    2.7060    2.2800 c3        1 HEL     -0.083400
     13 C13        -4.1280    4.1330    2.2110 c3        1 HEL     -0.078400
     14 C14        -4.8580    5.0090    3.2050 c3        1 HEL     -0.090400
     15 C15        -4.2070    6.3990    3.3400 c3        1 HEL      0.011700
     16 C16        -5.1830    7.2690    4.1400 c         1 HEL      0.600100
     17 O17        -6.2310    7.8450    3.4940 oh        1 HEL     -0.552100
     18 O18        -5.1310    7.4950    5.3460 o         1 HEL     -0.471000
     19 N19        -2.9080    6.3530    3.9700 ns        1 HEL     -0.534900
     20 C20        -1.8170    6.9950    3.4350 c         1 HEL      0.652100
     21 O21        -1.8420    7.5680    2.3280 o         1 HEL     -0.593100
     22 C22        -0.5160    6.9250    4.2490 c3        1 HEL      0.025800
     23 N23         0.6790    7.1200    3.3950 nz        1 HEL     -0.841600
     24 C24         2.3440    2.4240    0.8740 c3        1 HEL     -0.102100
     25 C25         0.3730    2.9530   -0.5580 c3        1 HEL     -0.102100
     26 C26         0.7210    4.2150    2.4610 c         1 HEL      0.934600
     27 O27         0.9020    5.1250    1.5960 o         1 HEL     -0.826800
     28 O28         0.9250    4.4240    3.6890 o         1 HEL     -0.826800
     29 O29        -2.2480    2.2110    4.0860 o         1 HEL     -0.488500
     30 H3         -0.9340    3.2340    1.5810 h1        1 HEL      0.046700
     31 H5          0.8580   -0.0890    2.9900 h2        1 HEL      0.153700
     32 H6         -1.4460   -0.6460    3.7090 hx        1 HEL      0.148700
     33 HN8        -2.4270   -1.2300    1.7660 hn        1 HEL      0.470800
     34 H111       -4.4010    1.6750    0.3690 hc        1 HEL      0.100200
     35 H112       -2.8510    2.2680    1.1080 hc        1 HEL      0.100200
     36 H121       -5.7260    2.6690    2.0060 hc        1 HEL      0.079700
     37 H122       -4.5480    2.3370    3.3380 hc        1 HEL      0.079700
     38 H131       -3.0280    4.1350    2.4400 hc        1 HEL      0.055700
     39 H132       -4.2590    4.5400    1.1740 hc        1 HEL      0.055700
     40 H141       -5.9190    5.1610    2.8720 hc        1 HEL      0.071700
     41 H142       -4.8900    4.5080    4.2100 hc        1 HEL      0.071700
     42 H15        -4.0810    6.8490    2.3060 h1        1 HEL      0.109700
     43 H19        -2.8830    6.0300    4.9120 hn        1 HEL      0.341500
     44 H221       -0.4120    5.9030    4.7340 hx        1 HEL      0.135200
     45 H222       -0.5490    7.7190    5.0480 hx        1 HEL      0.135200
     46 H231        0.4340    6.9560    2.3930 hn        1 HEL      0.481800
     47 H232        1.0710    8.0510    3.5060 hn        1 HEL      0.481800
     48 H233        1.3780    6.3770    3.6270 hn        1 HEL      0.481800
     49 H241        2.6800    1.9720    1.8390 hc        1 HEL      0.069533
     50 H242        2.8560    1.9010    0.0300 hc        1 HEL      0.069533
     51 H243        2.6430    3.5050    0.8650 hc        1 HEL      0.069533
     52 H251       -0.7120    2.7560   -0.7310 hc        1 HEL      0.069533
     53 H252        0.9550    2.5590   -1.4270 hc        1 HEL      0.069533
     54 H253        0.5320    4.0640   -0.4910 hc        1 HEL      0.069533
     55 H82        -1.8610    0.1040    0.9020 hn        1 HEL      0.470800
     56 H192       -6.1870    7.6610    2.5450 ho        1 HEL      0.432000
@<TRIPOS>BOND
     1    1    2 1   
     2    1    5 1   
     3    2    3 1   
     4    2   24 1   
     5    2   25 1   
     6    3    4 1   
     7    3   26 1   
     8    3   30 1   
     9    4    5 1   
    10    4    7 1   
    11    5    6 1   
    12    5   31 1   
    13    6    7 1   
    14    6    8 1   
    15    6   32 1   
    16    7   29 2   
    17    8    9 1   
    18    8   33 1   
    19    8   55 1   
    20    9   10 2   
    21    9   11 1   
    22   11   12 1   
    23   11   34 1   
    24   11   35 1   
    25   12   13 1   
    26   12   36 1   
    27   12   37 1   
    28   13   14 1   
    29   13   38 1   
    30   13   39 1   
    31   14   15 1   
    32   14   40 1   
    33   14   41 1   
    34   15   16 1   
    35   15   19 1   
    36   15   42 1   
    37   16   17 1   
    38   16   18 2   
    39   17   56 1   
    40   19   20 1   
    41   19   43 1   
    42   20   21 2   
    43   20   22 1   
    44   22   23 1   
    45   22   44 1   
    46   22   45 1   
    47   23   46 1   
    48   23   47 1   
    49   23   48 1   
    50   24   49 1   
    51   24   50 1   
    52   24   51 1   
    53   25   52 1   
    54   25   53 1   
    55   25   54 1   
    56   26   27 1   
    57   26   28 1   
@<TRIPOS>SUBSTRUCTURE
     1 HEL         1 TEMP              0 ****  ****    0 ROOT
