@<TRIPOS>MOLECULE
HEN
   40    40     1     0     0
SMALL
bcc


@<TRIPOS>ATOM
      1 N1         26.1360  170.4190   27.4550 nb        1 HEN     -0.705000
      2 C2         26.4820  171.5260   26.7440 ca        1 HEN      0.275600
      3 C2A        27.1750  171.3730   25.4310 c3        1 HEN     -0.098400
      4 C3         26.2170  172.8360   27.2160 ca        1 HEN      0.032800
      5 O3         26.6800  173.8390   26.3970 oh        1 HEN     -0.553100
      6 C4         25.5730  173.0360   28.4660 ca        1 HEN     -0.098300
      7 C4A        25.3240  174.4380   28.9850 c3        1 HEN      0.167100
      8 C5         25.2390  171.8860   29.1940 ca        1 HEN     -0.165600
      9 C6         25.5350  170.6090   28.6300 ca        1 HEN      0.351200
     10 C5A        24.5670  171.8410   30.5520 c3        1 HEN      0.249700
     11 OP4        25.0420  170.8190   31.3440 os        1 HEN     -0.579200
     12 P          23.9880  169.5050   31.7110 p5        1 HEN      1.321900
     13 OP1        24.2380  168.5650   30.5540 o         1 HEN     -0.937833
     14 OP2        22.6170  170.1300   31.7390 o         1 HEN     -0.937833
     15 OP3        24.5000  169.0160   33.0420 o         1 HEN     -0.937833
     16 N4A        24.8450  175.3520   27.9820 n2        1 HEN     -0.724900
     17 CAI        25.0540  176.6360   27.9740 ce        1 HEN      0.491600
     18 CBC        24.4330  177.3670   26.7530 c         1 HEN      0.846300
     19 O2B        23.2950  177.9010   26.8840 o         1 HEN     -0.855800
     20 O3B        25.0700  177.3380   25.6610 o         1 HEN     -0.855800
     21 CBI        25.7680  177.4360   28.9720 ce        1 HEN     -0.404600
     22 CGI        26.1370  178.7370   28.9160 c2        1 HEN      0.033800
     23 CEI        26.8050  179.4080   30.0330 c3        1 HEN     -0.289400
     24 PG         27.4930  181.0410   29.7160 p5        1 HEN      1.219700
     25 OG1        28.9920  180.8500   29.8690 o         1 HEN     -0.970500
     26 OG2        26.9040  181.8800   30.8400 o         1 HEN     -0.970500
     27 OG3        27.0680  181.4960   28.3390 o         1 HEN     -0.970500
     28 H2A1       26.7610  172.1160   24.7040 hc        1 HEN      0.011033
     29 H2A2       28.2670  171.5840   25.5550 hc        1 HEN      0.011033
     30 H2A3       27.0600  170.3460   25.0060 hc        1 HEN      0.011033
     31 HO3        26.1750  174.6570   26.5720 ho        1 HEN      0.475000
     32 H4A1       24.5470  174.3780   29.8020 h1        1 HEN      0.034200
     33 H4A2       26.2900  174.7710   29.4720 h1        1 HEN      0.034200
     34 HC6        25.2290  169.7000   29.2330 h4        1 HEN      0.122100
     35 H5A1       24.7660  172.8220   31.0780 h1        1 HEN      0.019200
     36 H5A2       23.4530  171.7290   30.3930 h1        1 HEN      0.019200
     37 HBIC       26.0160  176.8820   29.8980 ha        1 HEN      0.079000
     38 HGIC       25.9500  179.3810   28.0340 ha        1 HEN      0.164000
     39 HCE1       26.0700  179.5570   30.8610 hc        1 HEN      0.042700
     40 HCEC       27.6390  178.7820   30.4300 hc        1 HEN      0.042700
@<TRIPOS>BOND
     1    1    2 ar  
     2    1    9 ar  
     3    2    3 1   
     4    2    4 ar  
     5    3   28 1   
     6    3   29 1   
     7    3   30 1   
     8    4    5 1   
     9    4    6 ar  
    10    5   31 1   
    11    6    7 1   
    12    6    8 ar  
    13    7   16 1   
    14    7   32 1   
    15    7   33 1   
    16    8    9 ar  
    17    8   10 1   
    18    9   34 1   
    19   10   11 1   
    20   10   35 1   
    21   10   36 1   
    22   11   12 1   
    23   12   13 1   
    24   12   14 1   
    25   12   15 1   
    26   16   17 2   
    27   17   18 1   
    28   17   21 1   
    29   18   19 1   
    30   18   20 1   
    31   21   22 2   
    32   21   37 1   
    33   22   23 1   
    34   22   38 1   
    35   23   24 1   
    36   23   39 1   
    37   23   40 1   
    38   24   25 1   
    39   24   26 1   
    40   24   27 1   
@<TRIPOS>SUBSTRUCTURE
     1 HEN         1 TEMP              0 ****  ****    0 ROOT
