@<TRIPOS>MOLECULE
HEN
   40    40     1     0     0
SMALL
bcc


@<TRIPOS>ATOM
      1 N1         -0.1980    0.4020    0.6160 nb        1 HEN     -0.705000
      2 C2          0.9720   -0.2780    0.7540 ca        1 HEN      0.272600
      3 C2A         1.6010   -0.9160   -0.4400 c3        1 HEN     -0.097400
      4 C3          1.6200   -0.4160    2.0070 ca        1 HEN      0.036800
      5 O3          2.7690   -1.1680    1.9710 oh        1 HEN     -0.555100
      6 C4          1.0560    0.1580    3.1780 ca        1 HEN     -0.100300
      7 C4A         1.7220   -0.0180    4.5270 c3        1 HEN      0.167100
      8 C5         -0.1590    0.8420    3.0210 ca        1 HEN     -0.165600
      9 C6         -0.7270    0.9390    1.7160 ca        1 HEN      0.349200
     10 C5A        -0.9550    1.5220    4.1160 c3        1 HEN      0.248700
     11 OP4        -2.3160    1.4100    3.9300 os        1 HEN     -0.579200
     12 P          -3.2150    2.8290    3.5430 p5        1 HEN      1.321900
     13 OP1        -3.1400    2.8500    2.0340 o         1 HEN     -0.938167
     14 OP2        -2.4660    3.9400    4.2340 o         1 HEN     -0.938167
     15 OP3        -4.5830    2.5320    4.1020 o         1 HEN     -0.938167
     16 N4A         3.1600    0.0600    4.4820 n2        1 HEN     -0.729900
     17 CAI         3.9560   -0.4250    5.3910 ce        1 HEN      0.505600
     18 CBC         5.4590   -0.1370    5.1300 c         1 HEN      0.852300
     19 O2B         5.9910    0.8230    5.7580 o         1 HEN     -0.856800
     20 O3B         6.0620   -0.8140    4.2490 o         1 HEN     -0.856800
     21 CBI         3.5510   -1.0880    6.6350 ce        1 HEN     -0.397600
     22 CGI         4.1000   -2.0420    7.4140 c2        1 HEN      0.009800
     23 CEI         5.3070   -2.8500    7.3240 c3        1 HEN     -0.291400
     24 PG          5.4300   -4.0410    8.6690 p5        1 HEN      1.218700
     25 OG1         5.3230   -5.4000    7.9990 o         1 HEN     -0.971833
     26 OG2         4.2930   -3.7640    9.6390 o         1 HEN     -0.971833
     27 OG3         6.7980   -3.7980    9.2840 o         1 HEN     -0.971833
     28 H2A1        1.1850   -0.5260   -1.4000 hc        1 HEN      0.010700
     29 H2A2        1.4350   -2.0220   -0.4060 hc        1 HEN      0.010700
     30 H2A3        2.7040   -0.7330   -0.4200 hc        1 HEN      0.010700
     31 HO3         3.3150   -0.9610    2.7570 ho        1 HEN      0.480000
     32 H4A1        1.3510   -1.0020    4.9440 h1        1 HEN      0.034200
     33 H4A2        1.3400    0.7930    5.2150 h1        1 HEN      0.034200
     34 HC6        -1.6930    1.5210    1.6210 h4        1 HEN      0.121100
     35 H5A1       -0.6880    1.0370    5.1010 h1        1 HEN      0.019700
     36 H5A2       -0.6530    2.6110    4.1490 h1        1 HEN      0.019700
     37 HBIC        2.5800   -0.6860    7.0000 ha        1 HEN      0.067000
     38 HGIC        3.5210   -2.3050    8.3370 ha        1 HEN      0.144000
     39 HCE1        5.3390   -3.4150    6.3630 hc        1 HEN      0.064700
     40 HCEC        6.2150   -2.2020    7.3550 hc        1 HEN      0.064700
@<TRIPOS>BOND
     1    1    2 ar  
     2    1    9 ar  
     3    2    3 1   
     4    2    4 ar  
     5    3   28 1   
     6    3   29 1   
     7    3   30 1   
     8    4    5 1   
     9    4    6 ar  
    10    5   31 1   
    11    6    7 1   
    12    6    8 ar  
    13    7   16 1   
    14    7   32 1   
    15    7   33 1   
    16    8    9 ar  
    17    8   10 1   
    18    9   34 1   
    19   10   11 1   
    20   10   35 1   
    21   10   36 1   
    22   11   12 1   
    23   12   13 1   
    24   12   14 1   
    25   12   15 1   
    26   16   17 2   
    27   17   18 1   
    28   17   21 1   
    29   18   19 1   
    30   18   20 1   
    31   21   22 2   
    32   21   37 1   
    33   22   23 1   
    34   22   38 1   
    35   23   24 1   
    36   23   39 1   
    37   23   40 1   
    38   24   25 1   
    39   24   26 1   
    40   24   27 1   
@<TRIPOS>SUBSTRUCTURE
     1 HEN         1 TEMP              0 ****  ****    0 ROOT
