@<TRIPOS>MOLECULE
HEN
   40    40     1     0     0
SMALL
bcc


@<TRIPOS>ATOM
      1 N1         -0.1960    0.3660    0.6060 nb        1 HEN     -0.705000
      2 C2          0.9800   -0.3030    0.7500 ca        1 HEN      0.272600
      3 C2A         1.6170   -0.9410   -0.4400 c3        1 HEN     -0.097400
      4 C3          1.6260   -0.4290    2.0050 ca        1 HEN      0.037800
      5 O3          2.7820   -1.1710    1.9750 oh        1 HEN     -0.555100
      6 C4          1.0530    0.1450    3.1720 ca        1 HEN     -0.100300
      7 C4A         1.7180   -0.0190    4.5240 c3        1 HEN      0.167100
      8 C5         -0.1670    0.8160    3.0090 ca        1 HEN     -0.165600
      9 C6         -0.7330    0.9020    1.7020 ca        1 HEN      0.349200
     10 C5A        -0.9730    1.4940    4.0990 c3        1 HEN      0.248700
     11 OP4        -2.3320    1.3690    3.9100 os        1 HEN     -0.579200
     12 P          -3.2430    2.7780    3.5150 p5        1 HEN      1.321900
     13 OP1        -3.1640    2.7930    2.0060 o         1 HEN     -0.938167
     14 OP2        -2.5060    3.8980    4.2030 o         1 HEN     -0.938167
     15 OP3        -4.6100    2.4700    4.0720 o         1 HEN     -0.938167
     16 N4A         3.1550    0.0700    4.4820 n2        1 HEN     -0.729900
     17 CAI         3.9530   -0.4030    5.3950 ce        1 HEN      0.505600
     18 CBC         5.4540   -0.1050    5.1360 c         1 HEN      0.852300
     19 O2B         5.9770    0.8630    5.7600 o         1 HEN     -0.856800
     20 O3B         6.0640   -0.7810    4.2600 o         1 HEN     -0.856800
     21 CBI         3.5510   -1.0630    6.6420 ce        1 HEN     -0.398600
     22 CGI         4.1070   -2.0070    7.4280 c2        1 HEN      0.010800
     23 CEI         5.3220   -2.8030    7.3470 c3        1 HEN     -0.291400
     24 PG          5.4520   -3.9850    8.6990 p5        1 HEN      1.218700
     25 OG1         5.3600   -5.3490    8.0370 o         1 HEN     -0.971833
     26 OG2         4.3110   -3.7140    9.6640 o         1 HEN     -0.971833
     27 OG3         6.8160   -3.7260    9.3160 o         1 HEN     -0.971833
     28 H2A1        1.4620   -2.0480   -0.4010 hc        1 HEN      0.010700
     29 H2A2        2.7190   -0.7470   -0.4180 hc        1 HEN      0.010700
     30 H2A3        1.2010   -0.5580   -1.4030 hc        1 HEN      0.010700
     31 HO3         3.3230   -0.9560    2.7610 ho        1 HEN      0.480000
     32 H4A1        1.3270    0.7910    5.2070 h1        1 HEN      0.034200
     33 H4A2        1.3540   -1.0050    4.9440 h1        1 HEN      0.034200
     34 HC6        -1.7040    1.4750    1.6020 h4        1 HEN      0.121100
     35 H5A1       -0.7040    1.0150    5.0870 h1        1 HEN      0.019700
     36 H5A2       -0.6800    2.5860    4.1290 h1        1 HEN      0.019700
     37 HBIC        2.5740   -0.6690    7.0010 ha        1 HEN      0.067000
     38 HGIC        3.5270   -2.2710    8.3510 ha        1 HEN      0.143000
     39 HCE1        5.3640   -3.3730    6.3890 hc        1 HEN      0.064700
     40 HCEC        6.2230   -2.1460    7.3770 hc        1 HEN      0.064700
@<TRIPOS>BOND
     1    1    2 ar  
     2    1    9 ar  
     3    2    3 1   
     4    2    4 ar  
     5    3   28 1   
     6    3   29 1   
     7    3   30 1   
     8    4    5 1   
     9    4    6 ar  
    10    5   31 1   
    11    6    7 1   
    12    6    8 ar  
    13    7   16 1   
    14    7   32 1   
    15    7   33 1   
    16    8    9 ar  
    17    8   10 1   
    18    9   34 1   
    19   10   11 1   
    20   10   35 1   
    21   10   36 1   
    22   11   12 1   
    23   12   13 1   
    24   12   14 1   
    25   12   15 1   
    26   16   17 2   
    27   17   18 1   
    28   17   21 1   
    29   18   19 1   
    30   18   20 1   
    31   21   22 2   
    32   21   37 1   
    33   22   23 1   
    34   22   38 1   
    35   23   24 1   
    36   23   39 1   
    37   23   40 1   
    38   24   25 1   
    39   24   26 1   
    40   24   27 1   
@<TRIPOS>SUBSTRUCTURE
     1 HEN         1 TEMP              0 ****  ****    0 ROOT
