@<TRIPOS>MOLECULE
HEN
   40    40     1     0     0
SMALL
bcc


@<TRIPOS>ATOM
      1 N1         -0.2270    0.4440    0.6430 nb        1 HEN     -0.705000
      2 C2          0.9420   -0.2410    0.7640 ca        1 HEN      0.272600
      3 C2A         1.5590   -0.8690   -0.4410 c3        1 HEN     -0.097400
      4 C3          1.6000   -0.3930    2.0110 ca        1 HEN      0.036800
      5 O3          2.7470   -1.1470    1.9570 oh        1 HEN     -0.555100
      6 C4          1.0480    0.1720    3.1920 ca        1 HEN     -0.100300
      7 C4A         1.7250   -0.0200    4.5330 c3        1 HEN      0.167100
      8 C5         -0.1660    0.8600    3.0520 ca        1 HEN     -0.165600
      9 C6         -0.7460    0.9710    1.7530 ca        1 HEN      0.349200
     10 C5A        -0.9520    1.5320    4.1600 c3        1 HEN      0.248700
     11 OP4        -2.3140    1.4250    3.9850 os        1 HEN     -0.579200
     12 P          -3.2120    2.8500    3.6200 p5        1 HEN      1.321900
     13 OP1        -3.1510    2.8860    2.1100 o         1 HEN     -0.938167
     14 OP2        -2.4550    3.9520    4.3150 o         1 HEN     -0.938167
     15 OP3        -4.5770    2.5500    4.1870 o         1 HEN     -0.938167
     16 N4A         3.1630    0.0550    4.4770 n2        1 HEN     -0.729900
     17 CAI         3.9650   -0.4410    5.3730 ce        1 HEN      0.505600
     18 CBC         5.4670   -0.1540    5.1030 c         1 HEN      0.852300
     19 O2B         6.0060    0.7980    5.7360 o         1 HEN     -0.856800
     20 O3B         6.0600   -0.8230    4.2100 o         1 HEN     -0.856800
     21 CBI         3.5700   -1.1160    6.6140 ce        1 HEN     -0.397600
     22 CGI         4.1230   -2.0780    7.3790 c2        1 HEN      0.009800
     23 CEI         5.3270   -2.8890    7.2700 c3        1 HEN     -0.291400
     24 PG          5.4580   -4.0930    8.6010 p5        1 HEN      1.218700
     25 OG1         5.3410   -5.4450    7.9190 o         1 HEN     -0.971833
     26 OG2         4.3310   -3.8240    9.5850 o         1 HEN     -0.971833
     27 OG3         6.8320   -3.8610    9.2070 o         1 HEN     -0.971833
     28 H2A1        1.1360   -0.4680   -1.3940 hc        1 HEN      0.010700
     29 H2A2        1.3900   -1.9740   -0.4160 hc        1 HEN      0.010700
     30 H2A3        2.6630   -0.6890   -0.4290 hc        1 HEN      0.010700
     31 HO3         3.3000   -0.9490    2.7400 ho        1 HEN      0.480000
     32 H4A1        1.3550   -1.0070    4.9430 h1        1 HEN      0.034200
     33 H4A2        1.3510    0.7850    5.2320 h1        1 HEN      0.034200
     34 HC6        -1.7110    1.5570    1.6720 h4        1 HEN      0.121100
     35 H5A1       -0.6780    1.0360    5.1380 h1        1 HEN      0.019700
     36 H5A2       -0.6460    2.6190    4.2020 h1        1 HEN      0.019700
     37 HBIC        2.6020   -0.7150    6.9920 ha        1 HEN      0.067000
     38 HGIC        3.5510   -2.3500    8.3040 ha        1 HEN      0.143000
     39 HCE1        5.3490   -3.4430    6.3030 hc        1 HEN      0.064700
     40 HCEC        6.2360   -2.2430    7.3000 hc        1 HEN      0.064700
@<TRIPOS>BOND
     1    1    2 ar  
     2    1    9 ar  
     3    2    3 1   
     4    2    4 ar  
     5    3   28 1   
     6    3   29 1   
     7    3   30 1   
     8    4    5 1   
     9    4    6 ar  
    10    5   31 1   
    11    6    7 1   
    12    6    8 ar  
    13    7   16 1   
    14    7   32 1   
    15    7   33 1   
    16    8    9 ar  
    17    8   10 1   
    18    9   34 1   
    19   10   11 1   
    20   10   35 1   
    21   10   36 1   
    22   11   12 1   
    23   12   13 1   
    24   12   14 1   
    25   12   15 1   
    26   16   17 2   
    27   17   18 1   
    28   17   21 1   
    29   18   19 1   
    30   18   20 1   
    31   21   22 2   
    32   21   37 1   
    33   22   23 1   
    34   22   38 1   
    35   23   24 1   
    36   23   39 1   
    37   23   40 1   
    38   24   25 1   
    39   24   26 1   
    40   24   27 1   
@<TRIPOS>SUBSTRUCTURE
     1 HEN         1 TEMP              0 ****  ****    0 ROOT
