@<TRIPOS>MOLECULE
HEP
   44    45     1     0     0
SMALL
bcc


@<TRIPOS>ATOM
      1 C1          0.9460    0.7110   -0.3060 c3        1 HEP     -0.092700
      2 C2         -0.5520    0.5530   -0.1080 c3        1 HEP     -0.094400
      3 C3         -1.0280   -0.8720   -0.2740 c3        1 HEP     -0.088400
      4 C4         -2.4870   -1.0080    0.1080 c3        1 HEP     -0.077400
      5 C5         -2.9800   -2.4170   -0.0980 c3        1 HEP     -0.089100
      6 C6          4.2890    4.0160   -1.0360 ca        1 HEP     -0.173500
      7 C7          5.0190    5.0690   -1.5770 ca        1 HEP     -0.118500
      8 C8          4.7470    5.5340   -2.8640 ca        1 HEP     -0.180000
      9 C9          3.7310    4.9410   -3.6130 ca        1 HEP     -0.118500
     10 C10         2.9880    3.8870   -3.0920 ca        1 HEP     -0.173500
     11 C11         3.2570    3.4180   -1.7890 ca        1 HEP      0.211100
     12 C12         2.6530   -1.1750    0.2880 c3        1 HEP      0.737500
     13 C13         5.0440   -0.6280    0.3340 c3        1 HEP     -0.177400
     14 C14         3.8420   -0.7060   -0.5910 c3        1 HEP     -0.143400
     15 C15         4.5790   -1.2400    1.6320 c         1 HEP      0.719600
     16 O1P         0.1860    3.0680   -1.2660 o         1 HEP     -0.819500
     17 O2P         1.6380    2.8770    0.9240 o         1 HEP     -0.819500
     18 O3P         2.6180    2.3240   -1.3170 os        1 HEP     -0.517500
     19 O4          1.8890   -2.1220   -0.0620 o         1 HEP     -0.677500
     20 O5          5.2190   -1.4880    2.6560 o         1 HEP     -0.634500
     21 O6          3.2610   -1.5560    1.6160 os        1 HEP     -0.490900
     22 N1          1.7710    0.1160    0.7510 ny        1 HEP     -0.826000
     23 P           1.1990    2.4300   -0.4140 p5        1 HEP      1.327600
     24 H1          1.2300    0.2040   -1.2720 hx        1 HEP      0.120700
     25 H21        -1.0560    1.2120   -0.8720 hc        1 HEP      0.067700
     26 H22        -0.8340    0.9470    0.9040 hc        1 HEP      0.067700
     27 H31        -0.8860   -1.1860   -1.3420 hc        1 HEP      0.061200
     28 H32        -0.4010   -1.5700    0.3440 hc        1 HEP      0.061200
     29 H41        -2.6220   -0.7170    1.1830 hc        1 HEP      0.031200
     30 H42        -3.1030   -0.2980   -0.5050 hc        1 HEP      0.031200
     31 H51        -2.8890   -2.7120   -1.1710 hc        1 HEP      0.027700
     32 H52        -2.3790   -3.1360    0.5110 hc        1 HEP      0.027700
     33 H53        -4.0510   -2.5050    0.2040 hc        1 HEP      0.027700
     34 H9          3.5120    5.3100   -4.6260 ha        1 HEP      0.114000
     35 H10         2.1790    3.4250   -3.6750 ha        1 HEP      0.146000
     36 H131        5.9190   -1.1970   -0.0640 hc        1 HEP      0.073700
     37 H132        5.3650    0.4290    0.5110 hc        1 HEP      0.073700
     38 H141        3.6550    0.2650   -1.1080 hc        1 HEP      0.084700
     39 H142        3.9870   -1.4910   -1.3750 hc        1 HEP      0.084700
     40 HN1         2.3770    0.8420    1.1440 hn        1 HEP      0.420300
     41 H6          4.4930    3.6540   -0.0180 ha        1 HEP      0.146000
     42 H7          5.8160    5.5370   -0.9830 ha        1 HEP      0.114000
     43 H12         1.1770   -0.2450    1.4980 hn        1 HEP      0.420300
     44 H8          5.3290    6.3650   -3.2840 ha        1 HEP      0.112000
@<TRIPOS>BOND
     1    1    2 1   
     2    1   22 1   
     3    1   23 1   
     4    1   24 1   
     5    2    3 1   
     6    2   25 1   
     7    2   26 1   
     8    3    4 1   
     9    3   27 1   
    10    3   28 1   
    11    4    5 1   
    12    4   29 1   
    13    4   30 1   
    14    5   31 1   
    15    5   32 1   
    16    5   33 1   
    17    6    7 ar  
    18    6   11 ar  
    19    6   41 1   
    20    7    8 ar  
    21    7   42 1   
    22    8    9 ar  
    23    8   44 1   
    24    9   10 ar  
    25    9   34 1   
    26   10   11 ar  
    27   10   35 1   
    28   11   18 1   
    29   12   14 1   
    30   12   19 1   
    31   12   21 1   
    32   12   22 1   
    33   13   14 1   
    34   13   15 1   
    35   13   36 1   
    36   13   37 1   
    37   14   38 1   
    38   14   39 1   
    39   15   20 2   
    40   15   21 1   
    41   16   23 1   
    42   17   23 1   
    43   18   23 1   
    44   22   40 1   
    45   22   43 1   
@<TRIPOS>SUBSTRUCTURE
     1 HEP         1 TEMP              0 ****  ****    0 ROOT
