@<TRIPOS>MOLECULE
HEP
   44    44     1     0     0
SMALL
bcc


@<TRIPOS>ATOM
      1 C1          1.2690    0.3580    0.5340 c3        1 HEP     -0.076700
      2 C2         -0.2030    0.5820    0.2090 c3        1 HEP     -0.085400
      3 C3         -0.6570   -0.2130   -0.9990 c3        1 HEP     -0.078400
      4 C4         -2.1280    0.0110   -1.2800 c3        1 HEP     -0.079400
      5 C5         -2.5860   -0.7640   -2.4880 c3        1 HEP     -0.089100
      6 C6          3.4480    2.7010   -2.9610 ca        1 HEP     -0.180500
      7 C7          3.9010    3.6720   -3.8460 ca        1 HEP     -0.119000
      8 C8          3.2100    4.8740   -3.9980 ca        1 HEP     -0.191000
      9 C9          2.0570    5.1070   -3.2480 ca        1 HEP     -0.119000
     10 C10         1.5860    4.1490   -2.3570 ca        1 HEP     -0.180500
     11 C11         2.2830    2.9320   -2.1970 ca        1 HEP      0.232100
     12 C12         4.6690   -2.1190    0.9850 c         1 HEP      0.739600
     13 C13         4.8790   -0.3190    2.5510 c3        1 HEP     -0.170900
     14 C14         5.3560   -0.7970    1.1810 c3        1 HEP     -0.170900
     15 C15         3.8980   -1.3690    2.9950 c         1 HEP      0.739600
     16 O1P         1.5250    2.9500    0.8910 o         1 HEP     -0.850500
     17 O2P         3.6070    1.5280    0.2400 o         1 HEP     -0.850500
     18 O3P         1.7740    1.9520   -1.4270 os        1 HEP     -0.510500
     19 O4          4.7190   -2.9780    0.1160 o         1 HEP     -0.581500
     20 O5          3.2060   -1.5170    3.9930 o         1 HEP     -0.581500
     21 O6          3.8130   -2.4040    2.0550 os        1 HEP     -0.451200
     22 N1          1.5800   -0.0100    1.8960 n3        1 HEP     -0.891800
     23 P           2.1530    1.8000    0.2170 p5        1 HEP      1.377600
     24 H1          1.6630   -0.4660   -0.1270 h1        1 HEP      0.083700
     25 H21        -0.8590    0.3040    1.0790 hc        1 HEP      0.044200
     26 H22        -0.3650    1.6790    0.0190 hc        1 HEP      0.044200
     27 H31        -0.4710   -1.3050   -0.8260 hc        1 HEP      0.044700
     28 H32        -0.0540    0.0930   -1.8960 hc        1 HEP      0.044700
     29 H41        -2.3120    1.1060   -1.4430 hc        1 HEP      0.033700
     30 H42        -2.7330   -0.2950   -0.3850 hc        1 HEP      0.033700
     31 H51        -3.6720   -0.5870   -2.6790 hc        1 HEP      0.024700
     32 H52        -2.4290   -1.8600   -2.3360 hc        1 HEP      0.024700
     33 H53        -2.0120   -0.4530   -3.3940 hc        1 HEP      0.024700
     34 H9          1.5140    6.0560   -3.3610 ha        1 HEP      0.108000
     35 H10         0.6850    4.3340   -1.7550 ha        1 HEP      0.144500
     36 H131        4.3660    0.6760    2.4600 hc        1 HEP      0.116700
     37 H132        5.7120   -0.2350    3.2900 hc        1 HEP      0.116700
     38 H141        6.4630   -0.9190    1.1270 hc        1 HEP      0.116700
     39 H142        5.0240   -0.0660    0.3820 hc        1 HEP      0.116700
     40 HN1         1.2100    0.6910    2.5130 hn        1 HEP      0.343800
     41 H6          3.9950    1.7580   -2.8280 ha        1 HEP      0.144500
     42 H7          4.8130    3.4890   -4.4320 ha        1 HEP      0.108000
     43 H12         1.1790   -0.8950    2.1410 hn        1 HEP      0.343800
     44 H8          3.5740    5.6350   -4.7000 ha        1 HEP      0.107000
@<TRIPOS>BOND
     1    1    2 1   
     2    1   22 1   
     3    1   23 1   
     4    1   24 1   
     5    2    3 1   
     6    2   25 1   
     7    2   26 1   
     8    3    4 1   
     9    3   27 1   
    10    3   28 1   
    11    4    5 1   
    12    4   29 1   
    13    4   30 1   
    14    5   31 1   
    15    5   32 1   
    16    5   33 1   
    17    6    7 ar  
    18    6   11 ar  
    19    6   41 1   
    20    7    8 ar  
    21    7   42 1   
    22    8    9 ar  
    23    8   44 1   
    24    9   10 ar  
    25    9   34 1   
    26   10   11 ar  
    27   10   35 1   
    28   11   18 1   
    29   12   14 1   
    30   12   19 2   
    31   12   21 1   
    32   13   14 1   
    33   13   15 1   
    34   13   36 1   
    35   13   37 1   
    36   14   38 1   
    37   14   39 1   
    38   15   20 2   
    39   15   21 1   
    40   16   23 1   
    41   17   23 1   
    42   18   23 1   
    43   22   40 1   
    44   22   43 1   
@<TRIPOS>SUBSTRUCTURE
     1 HEP         1 TEMP              0 ****  ****    0 ROOT
