@<TRIPOS>MOLECULE
HEP
   43    43     1     0     0
SMALL
bcc


@<TRIPOS>ATOM
      1 C1          0.1110   -0.1790   -0.0720 c3        1 HEP     -0.145500
      2 C2          1.4060    0.3130    0.5730 c3        1 HEP     -0.074400
      3 C3          2.2270   -0.8290    1.1360 c3        1 HEP     -0.079400
      4 C4          3.5300   -0.3310    1.7250 c3        1 HEP     -0.078400
      5 C5          4.3460   -1.4600    2.3010 c3        1 HEP     -0.087100
      6 C6         -2.2960   -0.5930    4.0150 ca        1 HEP     -0.188500
      7 C7         -2.9650   -0.3580    5.2100 ca        1 HEP     -0.121000
      8 C8         -2.7960    0.8440    5.8980 ca        1 HEP     -0.208000
      9 C9         -1.9560    1.8250    5.3720 ca        1 HEP     -0.121000
     10 C10        -1.2780    1.6120    4.1780 ca        1 HEP     -0.188500
     11 C11        -1.4370    0.3940    3.4780 ca        1 HEP      0.258100
     12 C12         0.6190   -0.4400   -2.4790 c         1 HEP      0.640100
     13 C13         1.2350   -0.5940   -4.9200 c3        1 HEP     -0.181400
     14 C14         0.6130    0.2460   -3.8330 c3        1 HEP     -0.136400
     15 C15         1.5260    0.2290   -6.1840 c         1 HEP      0.904600
     16 O1P        -1.2890    1.8990    0.6880 o         1 HEP     -0.836000
     17 O2P        -2.4100   -0.4570    0.7250 o         1 HEP     -0.836000
     18 O3P        -0.6870    0.1390    2.3980 os        1 HEP     -0.502500
     19 O4          1.1550   -1.5510   -2.2850 o         1 HEP     -0.635100
     20 O5          1.8880    1.4370   -6.0660 o         1 HEP     -0.862800
     21 O6          1.4150   -0.3510   -7.3060 o         1 HEP     -0.862800
     22 N1         -0.0690    0.2060   -1.4470 n         1 HEP     -0.526900
     23 P          -1.2370    0.4290    0.8020 p5        1 HEP      1.354600
     24 H1          0.1050   -1.3080   -0.0480 h1        1 HEP      0.103700
     25 H21         1.1550    1.0400    1.3920 hc        1 HEP      0.043200
     26 H22         2.0450    0.8700   -0.1670 hc        1 HEP      0.043200
     27 H31         2.4390   -1.5690    0.3180 hc        1 HEP      0.049700
     28 H32         1.6370   -1.3590    1.9300 hc        1 HEP      0.049700
     29 H41         3.3120    0.4230    2.5270 hc        1 HEP      0.032700
     30 H42         4.1230    0.1940    0.9300 hc        1 HEP      0.032700
     31 H51         5.3040   -1.0750    2.7270 hc        1 HEP      0.020367
     32 H52         3.7810   -1.9770    3.1140 hc        1 HEP      0.020367
     33 H53         4.5870   -2.2110    1.5110 hc        1 HEP      0.020367
     34 H8         -3.3270    1.0190    6.8420 ha        1 HEP      0.097000
     35 H9         -1.8310    2.7780    5.9040 ha        1 HEP      0.099500
     36 H10        -0.6270    2.3880    3.7490 ha        1 HEP      0.147000
     37 H131        2.2040   -1.0250   -4.5600 hc        1 HEP      0.035200
     38 H132        0.5640   -1.4500   -5.1800 hc        1 HEP      0.035200
     39 H141       -0.4420    0.5040   -4.1130 hc        1 HEP      0.068200
     40 H142        1.1870    1.2110   -3.7550 hc        1 HEP      0.068200
     41 HN1        -0.2290    1.1850   -1.5620 hn        1 HEP      0.300500
     42 H6         -2.4450   -1.5280    3.4540 ha        1 HEP      0.147000
     43 H7         -3.6370   -1.1280    5.6150 ha        1 HEP      0.099500
@<TRIPOS>BOND
     1    1    2 1   
     2    1   22 1   
     3    1   23 1   
     4    1   24 1   
     5    2    3 1   
     6    2   25 1   
     7    2   26 1   
     8    3    4 1   
     9    3   27 1   
    10    3   28 1   
    11    4    5 1   
    12    4   29 1   
    13    4   30 1   
    14    5   31 1   
    15    5   32 1   
    16    5   33 1   
    17    6    7 ar  
    18    6   11 ar  
    19    6   42 1   
    20    7    8 ar  
    21    7   43 1   
    22    8    9 ar  
    23    8   34 1   
    24    9   10 ar  
    25    9   35 1   
    26   10   11 ar  
    27   10   36 1   
    28   11   18 1   
    29   12   14 1   
    30   12   19 2   
    31   12   22 1   
    32   13   14 1   
    33   13   15 1   
    34   13   37 1   
    35   13   38 1   
    36   14   39 1   
    37   14   40 1   
    38   15   20 1   
    39   15   21 1   
    40   16   23 1   
    41   17   23 1   
    42   18   23 1   
    43   22   41 1   
@<TRIPOS>SUBSTRUCTURE
     1 HEP         1 TEMP              0 ****  ****    0 ROOT
