@<TRIPOS>MOLECULE
HEP
   44    45     1     0     0
SMALL
bcc


@<TRIPOS>ATOM
      1 C1          0.9390    0.7210   -0.3280 c3        1 HEP     -0.092700
      2 C2         -0.5650    0.5630   -0.1800 c3        1 HEP     -0.094400
      3 C3         -1.0240   -0.8750   -0.2580 c3        1 HEP     -0.088400
      4 C4         -2.4970   -0.9980    0.0740 c3        1 HEP     -0.077400
      5 C5         -2.9700   -2.4230   -0.0470 c3        1 HEP     -0.089100
      6 C6          4.2840    3.9960   -1.1660 ca        1 HEP     -0.173500
      7 C7          5.0280    5.0140   -1.7550 ca        1 HEP     -0.118500
      8 C8          4.8060    5.3800   -3.0820 ca        1 HEP     -0.180000
      9 C9          3.8250    4.7230   -3.8250 ca        1 HEP     -0.118500
     10 C10         3.0700    3.7030   -3.2570 ca        1 HEP     -0.173500
     11 C11         3.2880    3.3340   -1.9140 ca        1 HEP      0.211100
     12 C12         2.6330   -1.0990    0.4720 c3        1 HEP      0.737500
     13 C13         5.0160   -0.5250    0.5750 c3        1 HEP     -0.177400
     14 C14         3.8540   -0.6840   -0.3900 c3        1 HEP     -0.143400
     15 C15         4.5020   -1.0450    1.8950 c         1 HEP      0.719600
     16 O1P         0.2020    2.9930   -1.4900 o         1 HEP     -0.819500
     17 O2P         1.5640    2.9780    0.7650 o         1 HEP     -0.819500
     18 O3P         2.6390    2.2710   -1.3870 os        1 HEP     -0.517500
     19 O4          1.8910   -2.0770    0.1630 o         1 HEP     -0.677500
     20 O5          5.1020   -1.2100    2.9590 o         1 HEP     -0.634500
     21 O6          3.1890   -1.3740    1.8490 os        1 HEP     -0.490900
     22 N1          1.7240    0.2140    0.8030 n4        1 HEP     -0.826000
     23 P           1.1830    2.4290   -0.5530 p5        1 HEP      1.327600
     24 H1          1.2650    0.1460   -1.2420 hx        1 HEP      0.120700
     25 H21        -0.8910    1.0270    0.7890 hc        1 HEP      0.067700
     26 H22        -1.0430    1.1580   -1.0100 hc        1 HEP      0.067700
     27 H31        -0.4180   -1.5200    0.4350 hc        1 HEP      0.061200
     28 H32        -0.8360   -1.2660   -1.2930 hc        1 HEP      0.061200
     29 H41        -3.0920   -0.3420   -0.6150 hc        1 HEP      0.031200
     30 H42        -2.6780   -0.6290    1.1180 hc        1 HEP      0.031200
     31 H51        -2.3900   -3.0880    0.6380 hc        1 HEP      0.027700
     32 H52        -4.0530   -2.4990    0.2170 hc        1 HEP      0.027700
     33 H53        -2.8340   -2.7960   -1.0910 hc        1 HEP      0.027700
     34 H9          3.6450    5.0140   -4.8700 ha        1 HEP      0.114000
     35 H10         2.2880    3.1910   -3.8360 ha        1 HEP      0.146000
     36 H131        5.9110   -1.1130    0.2560 hc        1 HEP      0.073700
     37 H132        5.3210    0.5450    0.6860 hc        1 HEP      0.073700
     38 H141        3.6810    0.2440   -0.9850 hc        1 HEP      0.084700
     39 H142        4.0360   -1.5230   -1.1070 hc        1 HEP      0.084700
     40 HN1         2.3080    0.9720    1.1650 hn        1 HEP      0.420300
     41 H6          4.4490    3.7120   -0.1170 ha        1 HEP      0.146000
     42 H7          5.7970    5.5330   -1.1650 ha        1 HEP      0.114000
     43 H12         1.1020   -0.0980    1.5500 hn        1 HEP      0.420300
     44 H8          5.3980    6.1840   -3.5380 ha        1 HEP      0.112000
@<TRIPOS>BOND
     1    1    2 1   
     2    1   22 1   
     3    1   23 1   
     4    1   24 1   
     5    2    3 1   
     6    2   25 1   
     7    2   26 1   
     8    3    4 1   
     9    3   27 1   
    10    3   28 1   
    11    4    5 1   
    12    4   29 1   
    13    4   30 1   
    14    5   31 1   
    15    5   32 1   
    16    5   33 1   
    17    6    7 ar  
    18    6   11 ar  
    19    6   41 1   
    20    7    8 ar  
    21    7   42 1   
    22    8    9 ar  
    23    8   44 1   
    24    9   10 ar  
    25    9   34 1   
    26   10   11 ar  
    27   10   35 1   
    28   11   18 1   
    29   12   14 1   
    30   12   19 1   
    31   12   21 1   
    32   12   22 1   
    33   13   14 1   
    34   13   15 1   
    35   13   36 1   
    36   13   37 1   
    37   14   38 1   
    38   14   39 1   
    39   15   20 2   
    40   15   21 1   
    41   16   23 1   
    42   17   23 1   
    43   18   23 1   
    44   22   40 1   
    45   22   43 1   
@<TRIPOS>SUBSTRUCTURE
     1 HEP         1 TEMP              0 ****  ****    0 ROOT
