@<TRIPOS>MOLECULE
HEQ
   96    97     1     0     0
SMALL
bcc


@<TRIPOS>ATOM
      1 C32        48.8270   -7.6090   21.0930 c3        1 HEQ     -0.086100
      2 C1         47.3300   -7.6440   21.3950 c3        1 HEQ     -0.004800
      3 C31        46.7270   -8.8770   20.7250 c3        1 HEQ     -0.086100
      4 C2         47.1780   -7.7590   22.9140 c3        1 HEQ     -0.070400
      5 C3         45.7700   -7.4040   23.3680 c3        1 HEQ      0.142100
      6 O3         45.7410   -7.5830   24.7800 oh        1 HEQ     -0.599800
      7 C4         45.4500   -5.9620   22.9940 c3        1 HEQ     -0.079200
      8 C5         45.7970   -5.6580   21.5800 c2        1 HEQ     -0.098400
      9 C33        45.1390   -4.4340   21.0590 c3        1 HEQ     -0.063900
     10 C6         46.6480   -6.4110   20.8500 ce        1 HEQ     -0.083200
     11 C7         46.9710   -6.0970   19.4610 ce        1 HEQ     -0.114000
     12 C8         46.0530   -5.8730   18.5070 cf        1 HEQ     -0.135000
     13 C9         46.3610   -5.5820   17.1130 cf        1 HEQ     -0.064200
     14 C34        47.7530   -5.1780   16.7970 c3        1 HEQ     -0.063900
     15 C10        45.3830   -5.6990   16.1860 ce        1 HEQ     -0.134000
     16 C11        45.5290   -5.4780   14.7680 ce        1 HEQ     -0.122000
     17 C12        44.4860   -5.5540   13.9190 cf        1 HEQ     -0.127000
     18 C13        44.5680   -5.3430   12.4810 cf        1 HEQ     -0.063200
     19 C35        45.9230   -5.2080   11.8950 c3        1 HEQ     -0.062900
     20 C14        43.4220   -5.2790   11.7640 ce        1 HEQ     -0.132000
     21 C15        43.3150   -5.0560   10.3440 ce        1 HEQ     -0.119000
     22 C16        42.1280   -5.0510    9.7000 cf        1 HEQ     -0.126000
     23 C17        42.0220   -4.8210    8.2820 cf        1 HEQ     -0.124000
     24 C18        40.8840   -4.8360    7.5490 ce        1 HEQ     -0.070200
     25 C36        39.5380   -5.1120    8.1070 c3        1 HEQ     -0.061900
     26 C19        40.9650   -4.5630    6.1220 ce        1 HEQ     -0.118000
     27 C20        39.9050   -4.4330    5.3010 cf        1 HEQ     -0.131000
     28 C21        40.0550   -4.1540    3.8930 cf        1 HEQ     -0.120000
     29 C22        39.0490   -4.0460    2.9940 ce        1 HEQ     -0.077200
     30 C37        37.6160   -4.2270    3.3330 c3        1 HEQ     -0.061900
     31 C23        39.3720   -3.7280    1.6100 ce        1 HEQ     -0.109000
     32 C24        38.4840   -3.2870    0.7040 cf        1 HEQ     -0.139000
     33 C25        38.8100   -2.9430   -0.6760 cf        1 HEQ     -0.013200
     34 C26        39.5520   -3.7430   -1.4770 ce        1 HEQ     -0.186400
     35 C38        40.1250   -5.0380   -1.0330 c3        1 HEQ     -0.058900
     36 C27        39.8490   -3.3870   -2.8830 c         1 HEQ      0.570300
     37 O27        40.6030   -4.0670   -3.5900 o         1 HEQ     -0.537100
     38 C28        39.1690   -2.1660   -3.4350 c3        1 HEQ     -0.180400
     39 C29        38.9660   -1.1120   -2.3750 c3        1 HEQ     -0.067400
     40 C30        38.2100   -1.6430   -1.1550 c3        1 HEQ     -0.022800
     41 C40        38.2970   -0.5830   -0.0600 c3        1 HEQ     -0.085600
     42 C39        36.7420   -1.8670   -1.5090 c3        1 HEQ     -0.085600
     43 H321       49.2570   -6.6160   21.3640 hc        1 HEQ      0.037867
     44 H322       49.3500   -8.3990   21.6860 hc        1 HEQ      0.037867
     45 H323       49.0170   -7.8040   20.0110 hc        1 HEQ      0.037867
     46 H311       45.6490   -8.9820   20.9930 hc        1 HEQ      0.037867
     47 H312       46.8110   -8.7890   19.6150 hc        1 HEQ      0.037867
     48 H313       47.2700   -9.7940   21.0550 hc        1 HEQ      0.037867
     49 HC21       47.4200   -8.8030   23.2390 hc        1 HEQ      0.057700
     50 HC22       47.9030   -7.0710   23.4210 hc        1 HEQ      0.057700
     51 HC31       45.0200   -8.0990   22.8960 h1        1 HEQ      0.037700
     52 HO31       44.8670   -7.3010   25.0750 ho        1 HEQ      0.398000
     53 HC41       44.3570   -5.7660   23.1650 hc        1 HEQ      0.055700
     54 HC42       46.0220   -5.2710   23.6710 hc        1 HEQ      0.055700
     55 H331       45.7000   -3.9960   20.1980 hc        1 HEQ      0.045033
     56 H332       44.1020   -4.6770   20.7150 hc        1 HEQ      0.045033
     57 H333       45.0660   -3.6590   21.8630 hc        1 HEQ      0.045033
     58 HC71       48.0500   -6.0710   19.2250 ha        1 HEQ      0.131000
     59 HC81       44.9770   -5.9220   18.7560 ha        1 HEQ      0.127000
     60 H341       47.8200   -4.6350   15.8230 hc        1 HEQ      0.045367
     61 H342       48.1540   -4.5010   17.5920 hc        1 HEQ      0.045367
     62 H343       48.4100   -6.0820   16.7420 hc        1 HEQ      0.045367
     63 H101       44.3690   -5.9970   16.5160 ha        1 HEQ      0.122000
     64 H111       46.5410   -5.2470   14.3950 ha        1 HEQ      0.127000
     65 H121       43.4770   -5.7840   14.3070 ha        1 HEQ      0.123000
     66 H351       45.9090   -5.2420   10.7790 hc        1 HEQ      0.045367
     67 H352       46.3800   -4.2350   12.2100 hc        1 HEQ      0.045367
     68 H353       46.5830   -6.0380   12.2540 hc        1 HEQ      0.045367
     69 H141       42.4570   -5.4010   12.2930 ha        1 HEQ      0.122000
     70 H151       44.2480   -4.8800    9.7810 ha        1 HEQ      0.125000
     71 H161       41.1960   -5.2220   10.2640 ha        1 HEQ      0.126000
     72 H171       42.9800   -4.6120    7.7690 ha        1 HEQ      0.121000
     73 H361       38.9080   -4.1870    8.0580 hc        1 HEQ      0.045367
     74 H362       39.0320   -5.9130    7.5120 hc        1 HEQ      0.045367
     75 H363       39.5790   -5.4490    9.1700 hc        1 HEQ      0.045367
     76 H191       41.9890   -4.4570    5.7170 ha        1 HEQ      0.123000
     77 H201       38.8770   -4.5270    5.6910 ha        1 HEQ      0.128000
     78 H211       41.0960   -4.0130    3.5470 ha        1 HEQ      0.123000
     79 H371       37.0860   -4.7700    2.5110 hc        1 HEQ      0.045700
     80 H372       37.4800   -4.8150    4.2720 hc        1 HEQ      0.045700
     81 H373       37.1270   -3.2290    3.4670 hc        1 HEQ      0.045700
     82 H231       40.4350   -3.8480    1.3300 ha        1 HEQ      0.131000
     83 H242       37.4240   -3.1320    0.9750 ha        1 HEQ      0.133000
     84 H381       40.1750   -5.7550   -1.8900 hc        1 HEQ      0.052033
     85 H382       41.1680   -4.8830   -0.6560 hc        1 HEQ      0.052033
     86 H383       39.5160   -5.4960   -0.2150 hc        1 HEQ      0.052033
     87 H281       39.7790   -1.7480   -4.2790 hc        1 HEQ      0.072700
     88 H282       38.1810   -2.4880   -3.8630 hc        1 HEQ      0.072700
     89 H291       39.9640   -0.7220   -2.0430 hc        1 HEQ      0.050700
     90 H292       38.3970   -0.2500   -2.8120 hc        1 HEQ      0.050700
     91 H401       37.9450    0.4000   -0.4590 hc        1 HEQ      0.039867
     92 H402       37.6570   -0.8600    0.8110 hc        1 HEQ      0.039867
     93 H403       39.3500   -0.4710    0.2910 hc        1 HEQ      0.039867
     94 H391       36.2930   -0.9150   -1.8820 hc        1 HEQ      0.039867
     95 H392       36.6420   -2.6460   -2.3010 hc        1 HEQ      0.039867
     96 H393       36.1720   -2.2000   -0.6090 hc        1 HEQ      0.039867
@<TRIPOS>BOND
     1    1    2 1   
     2    1   43 1   
     3    1   44 1   
     4    1   45 1   
     5    2    3 1   
     6    2    4 1   
     7    2   10 1   
     8    3   46 1   
     9    3   47 1   
    10    3   48 1   
    11    4    5 1   
    12    4   49 1   
    13    4   50 1   
    14    5    6 1   
    15    5    7 1   
    16    5   51 1   
    17    6   52 1   
    18    7    8 1   
    19    7   53 1   
    20    7   54 1   
    21    8    9 1   
    22    8   10 2   
    23    9   55 1   
    24    9   56 1   
    25    9   57 1   
    26   10   11 1   
    27   11   12 2   
    28   11   58 1   
    29   12   13 1   
    30   12   59 1   
    31   13   14 1   
    32   13   15 2   
    33   14   60 1   
    34   14   61 1   
    35   14   62 1   
    36   15   16 1   
    37   15   63 1   
    38   16   17 2   
    39   16   64 1   
    40   17   18 1   
    41   17   65 1   
    42   18   19 1   
    43   18   20 2   
    44   19   66 1   
    45   19   67 1   
    46   19   68 1   
    47   20   21 1   
    48   20   69 1   
    49   21   22 2   
    50   21   70 1   
    51   22   23 1   
    52   22   71 1   
    53   23   24 2   
    54   23   72 1   
    55   24   25 1   
    56   24   26 1   
    57   25   73 1   
    58   25   74 1   
    59   25   75 1   
    60   26   27 2   
    61   26   76 1   
    62   27   28 1   
    63   27   77 1   
    64   28   29 2   
    65   28   78 1   
    66   29   30 1   
    67   29   31 1   
    68   30   79 1   
    69   30   80 1   
    70   30   81 1   
    71   31   32 2   
    72   31   82 1   
    73   32   33 1   
    74   32   83 1   
    75   33   34 2   
    76   33   40 1   
    77   34   35 1   
    78   34   36 1   
    79   35   84 1   
    80   35   85 1   
    81   35   86 1   
    82   36   37 2   
    83   36   38 1   
    84   38   39 1   
    85   38   87 1   
    86   38   88 1   
    87   39   40 1   
    88   39   89 1   
    89   39   90 1   
    90   40   41 1   
    91   40   42 1   
    92   41   91 1   
    93   41   92 1   
    94   41   93 1   
    95   42   94 1   
    96   42   95 1   
    97   42   96 1   
@<TRIPOS>SUBSTRUCTURE
     1 HEQ         1 TEMP              0 ****  ****    0 ROOT
