@<TRIPOS>MOLECULE
HEQ
   96   111     1     0     0
SMALL
bcc


@<TRIPOS>ATOM
      1 C32         0.0000    0.0000    0.0000 c3        1 HEQ     -0.123000
      2 C1          1.5130    0.0000    0.0000 c3        1 HEQ     -0.011000
      3 C31         2.0530    1.2580   -0.6310 c3        1 HEQ     -0.123000
      4 C2          1.8690    0.0000    1.4580 c3        1 HEQ     -0.145000
      5 C3          2.5540   -1.1810    1.9690 c3        1 HEQ      0.101000
      6 O3          2.3100   -1.3460    3.2960 oh        1 HEQ     -0.302000
      7 C4          2.3860   -2.4870    1.2710 c3        1 HEQ     -0.086000
      8 C5          2.4030   -2.3290   -0.1870 c2        1 HEQ     -0.038000
      9 C33         2.8450   -3.5140   -1.0460 c3        1 HEQ     -0.086000
     10 C6          2.0300   -1.2130   -0.7940 c3        1 HEQ     -0.064000
     11 C7          1.9910   -1.2010   -2.2870 c2        1 HEQ     -0.188000
     12 C8          3.0190   -1.3070   -3.1560 c2        1 HEQ      0.020000
     13 C9          2.7640   -1.3310   -4.6050 c3        1 HEQ      0.079000
     14 C34         1.3710   -1.0350   -5.1030 c3        1 HEQ     -0.111000
     15 C10         3.7710   -1.6370   -5.4630 c3        1 HEQ     -0.481000
     16 C11         3.6730   -1.8210   -6.8660 c3        1 HEQ     -0.129000
     17 C12         4.7800   -1.9370   -7.6670 c2        1 HEQ     -0.053000
     18 C13         4.7180   -2.2350   -9.0910 c3        1 HEQ      0.066000
     19 C35         3.4260   -2.1440   -9.8580 c3        1 HEQ     -0.103000
     20 C14         5.8700   -2.7010   -9.6780 c3        1 HEQ     -0.431000
     21 C15         5.9910   -3.1900  -11.0240 c3        1 HEQ     -0.142000
     22 C16         7.1710   -3.6240  -11.5210 c2        1 HEQ     -0.109000
     23 C17         7.3010   -4.2940  -12.7820 c3        1 HEQ      0.202000
     24 C18         8.5060   -4.8240  -13.2660 c3        1 HEQ     -0.164000
     25 C36         9.7800   -4.5980  -12.5090 c3        1 HEQ     -0.131000
     26 C19         8.4930   -5.6280  -14.4260 c2        1 HEQ     -0.388000
     27 C20         9.5820   -6.2010  -15.0820 c2        1 HEQ     -0.501000
     28 C21         9.2950   -7.0640  -16.1890 c3        1 HEQ      0.029000
     29 C22        10.2550   -7.4420  -17.0840 c3        1 HEQ     -0.309000
     30 C37        11.6280   -6.8700  -16.8860 c3        1 HEQ     -0.056000
     31 C23         9.9710   -8.3420  -18.1650 c2        1 HEQ     -0.129000
     32 C24        11.0070   -8.9140  -18.7820 c2        1 HEQ     -0.282000
     33 C25        11.0530   -9.9420  -19.7850 c3        1 HEQ      0.183000
     34 C26        11.5390   -9.8330  -20.9970 c2        1 HEQ     -0.367000
     35 C38        12.0440   -8.4900  -21.5390 c3        1 HEQ     -0.027000
     36 C27        11.6960  -11.0200  -21.8040 c2        1 HEQ      0.341000
     37 O27        12.4030  -10.9600  -22.8350 o         1 HEQ     -0.392000
     38 C28        11.1060  -12.2890  -21.4550 c3        1 HEQ     -0.145000
     39 C29        10.2630  -12.2860  -20.2710 c3        1 HEQ     -0.099000
     40 C30        10.6840  -11.2850  -19.2340 c3        1 HEQ     -0.044000
     41 C40         9.5890  -11.0670  -18.2010 c3        1 HEQ     -0.125000
     42 C39        11.8780  -11.9660  -18.5500 c3        1 HEQ     -0.125000
     43 H321       -0.3610    0.0580   -1.0200 hc        1 HEQ      0.055000
     44 H322       -0.3610   -0.9120    0.4600 hc        1 HEQ      0.055000
     45 H323       -0.3610    0.8540    0.5600 hc        1 HEQ      0.055000
     46 H311        1.7930    2.1110   -0.0160 hc        1 HEQ      0.055000
     47 H312        1.6240    1.3800   -1.6180 hc        1 HEQ      0.055000
     48 H313        3.1310    1.1870   -0.7120 hc        1 HEQ      0.055000
     49 HC21        2.5040    0.8580    1.6450 hc        1 HEQ      0.081000
     50 HC22        0.9540    0.1230    2.0240 hc        1 HEQ      0.081000
     51 HC31        3.6090   -0.9520    1.8870 h1        1 HEQ      0.016000
     52 HO31        3.1060   -1.2080    3.7810 ho        1 HEQ      0.197000
     53 HC41        1.4400   -2.9250    1.5670 hc        1 HEQ      0.087000
     54 HC42        3.1930   -3.1480    1.5630 hc        1 HEQ      0.087000
     55 H331        2.0870   -3.7220   -1.7920 hc        1 HEQ      0.064667
     56 H332        3.7800   -3.2750   -1.5380 hc        1 HEQ      0.064667
     57 H333        2.9800   -4.3860   -0.4170 hc        1 HEQ      0.064667
     58 HC71        2.6160   -0.5340   -1.7050 DU        1 HEQ      0.176000
     59 HC81        2.6160   -2.1450   -3.7120 DU        1 HEQ      0.085000
     60 H341        0.6520   -1.2740   -4.3280 hc        1 HEQ      0.073000
     61 H342        1.2940    0.0150   -5.3560 hc        1 HEQ      0.073000
     62 H343        1.1670   -1.6350   -5.9820 hc        1 HEQ      0.073000
     63 H101        3.4920   -0.8250   -6.1230 DU        1 HEQ      0.229000
     64 H111        3.9310   -0.8630   -6.4290 DU        1 HEQ      0.229000
     65 H121        4.2690   -2.7650   -8.1430 DU        1 HEQ      0.124000
     66 H351        2.9150   -3.0980   -9.8180 hc        1 HEQ      0.067000
     67 H352        2.7980   -1.3790   -9.4190 hc        1 HEQ      0.067000
     68 H353        3.6370   -1.8900  -10.8900 hc        1 HEQ      0.067000
     69 H141        5.7900   -2.0310  -10.5260 DU        1 HEQ      0.205500
     70 H151        6.2730   -2.1710  -10.7880 DU        1 HEQ      0.205500
     71 H161        7.1430   -3.0570  -12.4440 DU        1 HEQ      0.048000
     72 H171        6.3960   -4.4700  -13.3510 hc        1 HEQ      0.115000
     73 H361       10.1580   -3.6060  -12.7270 hc        1 HEQ      0.065667
     74 H362        9.5890   -4.6860  -11.4460 hc        1 HEQ      0.065667
     75 H363       10.5130   -5.3380  -12.8070 hc        1 HEQ      0.065667
     76 H191        9.0220   -4.6830  -14.3840 DU        1 HEQ      0.322000
     77 H201        9.4810   -5.8310  -16.0950 DU        1 HEQ      0.235000
     78 H211        8.2900   -7.4540  -16.2970 hc        1 HEQ      0.089000
     79 H371       12.3080   -7.3060  -17.6080 hc        1 HEQ      0.051333
     80 H372       11.9720   -7.0970  -15.8840 hc        1 HEQ      0.051333
     81 H373       11.5960   -5.7960  -17.0220 hc        1 HEQ      0.051333
     82 H231       10.1350   -7.2860  -18.3430 DU        1 HEQ      0.233000
     83 H242       10.4700   -8.8040  -19.7170 DU        1 HEQ      0.121000
     84 H381       12.8170   -8.1050  -20.8850 hc        1 HEQ      0.043667
     85 H382       12.4490   -8.6310  -22.5340 hc        1 HEQ      0.043667
     86 H383       11.2220   -7.7850  -21.5800 hc        1 HEQ      0.043667
     87 H281       10.5080  -12.6250  -22.2930 hc        1 HEQ      0.079000
     88 H282       11.9070  -13.0000  -21.2950 hc        1 HEQ      0.079000
     89 H291        9.2460  -12.0630  -20.5730 hc        1 HEQ      0.056500
     90 H292       10.2890  -13.2740  -19.8270 hc        1 HEQ      0.056500
     91 H401        8.8190  -10.4300  -18.6200 hc        1 HEQ      0.054500
     92 H402        9.1570  -12.0220  -17.9260 hc        1 HEQ      0.054500
     93 H403       10.0100  -10.5950  -17.3220 hc        1 HEQ      0.054500
     94 H391       12.1680  -11.3940  -17.6760 hc        1 HEQ      0.054500
     95 H392       12.7110  -12.0150  -19.2410 hc        1 HEQ      0.054500
     96 H393       11.5980  -12.9680  -18.2490 hc        1 HEQ      0.054500
@<TRIPOS>BOND
     1    1    2 1   
     2    1   43 1   
     3    1   44 1   
     4    1   45 1   
     5    2    3 1   
     6    2    4 1   
     7    2   10 1   
     8    3   46 1   
     9    3   47 1   
    10    3   48 1   
    11    4    5 1   
    12    4   49 1   
    13    4   50 1   
    14    5    6 1   
    15    5    7 1   
    16    5   51 1   
    17    6   52 1   
    18    7    8 1   
    19    7   53 1   
    20    7   54 1   
    21    8    9 1   
    22    8   10 1   
    23    9   55 1   
    24    9   56 1   
    25    9   57 1   
    26   10   11 1   
    27   10   58 1   
    28   11   12 1   
    29   11   58 1   
    30   12   13 1   
    31   12   59 1   
    32   13   14 1   
    33   13   15 1   
    34   13   59 1   
    35   14   60 1   
    36   14   61 1   
    37   14   62 1   
    38   15   16 1   
    39   15   63 1   
    40   15   64 1   
    41   16   17 1   
    42   16   63 1   
    43   16   64 1   
    44   17   18 1   
    45   17   65 1   
    46   18   19 1   
    47   18   20 1   
    48   18   65 1   
    49   19   66 1   
    50   19   67 1   
    51   19   68 1   
    52   20   21 1   
    53   20   69 1   
    54   20   70 1   
    55   21   22 1   
    56   21   69 1   
    57   21   70 1   
    58   22   23 1   
    59   22   71 1   
    60   23   24 1   
    61   23   71 1   
    62   23   72 1   
    63   24   25 1   
    64   24   26 1   
    65   24   76 1   
    66   25   73 1   
    67   25   74 1   
    68   25   75 1   
    69   26   27 1   
    70   26   76 1   
    71   27   28 1   
    72   27   77 1   
    73   28   29 1   
    74   28   77 1   
    75   28   78 1   
    76   29   30 1   
    77   29   31 1   
    78   29   82 1   
    79   30   79 1   
    80   30   80 1   
    81   30   81 1   
    82   31   32 1   
    83   31   82 1   
    84   32   33 1   
    85   32   83 1   
    86   33   34 1   
    87   33   40 1   
    88   33   83 1   
    89   34   35 1   
    90   34   36 1   
    91   35   84 1   
    92   35   85 1   
    93   35   86 1   
    94   36   37 1   
    95   36   38 1   
    96   38   39 1   
    97   38   87 1   
    98   38   88 1   
    99   39   40 1   
   100   39   89 1   
   101   39   90 1   
   102   40   41 1   
   103   40   42 1   
   104   41   91 1   
   105   41   92 1   
   106   41   93 1   
   107   42   94 1   
   108   42   95 1   
   109   42   96 1   
   110   63   64 1   
   111   69   70 1   
@<TRIPOS>SUBSTRUCTURE
     1 HEQ         1 TEMP              0 ****  ****    0 ROOT
