@<TRIPOS>MOLECULE
HEQ
   96    87     1     0     0
SMALL
bcc


@<TRIPOS>ATOM
      1 C32        -3.2680   -4.3270    9.3660 c3        1 HEQ     -0.205500
      2 C1         -1.7550   -4.3110    9.1830 c3        1 HEQ     -0.004000
      3 C31        -1.5560   -5.5470    8.3280 c3        1 HEQ     -0.205500
      4 C2         -1.0030   -4.4730   10.6100 c3        1 HEQ     -0.186000
      5 C3          0.2670   -4.3780   10.5810 c3        1 HEQ      0.032000
      6 O3          0.7830   -4.5130   12.0080 oh        1 HEQ     -0.329000
      7 C4          0.8620   -2.9770    9.9550 c3        1 HEQ     -0.127000
      8 C5          0.2880   -2.6590    8.6720 c2        1 HEQ     -0.081000
      9 C33         0.8750   -1.5520    7.8410 c3        1 HEQ     -0.188000
     10 C6         -1.3330   -3.1070    8.4620 c2        1 HEQ     -0.088000
     11 C7         -2.3770   -2.0420    8.0780 c2        1 HEQ     -0.108000
     12 C8         -2.6080   -1.7370    6.7270 c1        1 HEQ     -0.136000
     13 C9         -1.8240   -2.4620    5.6310 c1        1 HEQ     -0.060000
     14 C34        -1.5620   -3.9530    5.7420 c3        1 HEQ     -0.184000
     15 C10        -1.3530   -1.7540    4.5330 c1        1 HEQ     -0.142000
     16 C11        -1.6210   -0.2330    4.4200 c1        1 HEQ     -0.124750
     17 C12        -1.9110    0.3390    3.1720 c1        1 HEQ     -0.124750
     18 C13        -1.9630   -0.5380    1.9210 c1        1 HEQ     -0.060000
     19 C35        -2.8390   -1.7850    1.9010 c3        1 HEQ     -0.184000
     20 C14        -1.2140   -0.1980    0.8040 c1        1 HEQ     -0.142000
     21 C15        -0.3240    1.0670    0.8230 c1        1 HEQ     -0.124750
     22 C16        -0.0680    1.7520   -0.3540 c1        1 HEQ     -0.124750
     23 C17        -0.6650    1.2570   -1.6700 c1        1 HEQ     -0.132500
     24 C18        -1.0330    2.1580   -2.6400 c1        1 HEQ     -0.068000
     25 C36        -0.8450    3.6670   -2.4000 c2        1 HEQ     -0.184333
     26 C19        -1.6450    1.6510   -3.9820 c2        1 HEQ     -0.119000
     27 C20        -0.9600    1.8410   -5.1770 c1        1 HEQ     -0.126500
     28 C21         0.3810    2.5410   -5.1780 c1        1 HEQ     -0.132500
     29 C22         0.7290    3.3570   -6.2300 c1        1 HEQ     -0.068000
     30 C37        -0.2370    3.5560   -7.3910 c2        1 HEQ     -0.184333
     31 C23         2.1000    4.0740   -6.2320 c2        1 HEQ     -0.119000
     32 C24         2.9690    3.9360   -7.3340 c1        1 HEQ     -0.126500
     33 C25         2.5550    3.0710   -8.5420 c1        1 HEQ     -0.014000
     34 C26         2.6470    1.5150   -8.4510 c1        1 HEQ     -0.155000
     35 C38         3.1110    0.8490   -7.1490 c2        1 HEQ     -0.184333
     36 C27         2.6480    0.7010   -9.7870 c2        1 HEQ      0.262000
     37 O27         2.7190   -0.5160   -9.7720 o         1 HEQ     -0.297000
     38 C28         2.5700    1.4560  -11.1030 c3        1 HEQ     -0.209000
     39 C29         1.9240    2.7780  -10.9470 c3        1 HEQ     -0.146000
     40 C30         2.4720    3.6990   -9.9310 c3        1 HEQ     -0.027000
     41 C40         3.8270    4.2700  -10.3680 c3        1 HEQ     -0.204500
     42 C39         1.6320    4.9730   -9.8780 c3        1 HEQ     -0.204500
     43 H321       -3.5350   -5.1600    9.8020 hc        1 HEQ      0.076833
     44 H322       -3.7040   -4.2640    8.4910 hc        1 HEQ      0.076833
     45 H323       -3.5390   -3.5650    9.9220 hc        1 HEQ      0.076833
     46 H311       -0.7150   -5.4650    7.8210 hc        1 HEQ      0.076833
     47 H312       -1.5140   -6.3400    8.9050 hc        1 HEQ      0.076833
     48 H313       -2.3020   -5.6370    7.7070 hc        1 HEQ      0.076833
     49 HC21       -1.2350   -5.3500   10.9790 hc        1 HEQ      0.088500
     50 HC22       -1.3480   -3.7810   11.2190 hc        1 HEQ      0.088500
     51 HC31        0.6180   -5.1230   10.0540 h1        1 HEQ      0.076000
     52 HO31        1.3880   -5.1560   12.0430 ho        1 HEQ      0.198000
     53 HC41        1.8360   -3.0910    9.9920 hc        1 HEQ      0.104000
     54 HC42        0.7440   -2.1900   10.5300 hc        1 HEQ      0.104000
     55 H331        0.9660   -1.8530    6.9140 hc        1 HEQ      0.086333
     56 H332        0.2830   -0.7690    7.8740 hc        1 HEQ      0.086333
     57 H333        1.7620   -1.3080    8.1960 hc        1 HEQ      0.086333
     58 HC71       -2.8780   -1.5760    8.7760 ha        1 HEQ      0.125000
     59 HC81       -3.2700   -1.0620    6.4870 ha        1 HEQ      0.125000
     60 H341       -1.3980   -4.3240    4.8470 hc        1 HEQ      0.085667
     61 H342       -0.7750   -4.1050    6.3090 hc        1 HEQ      0.085667
     62 H343       -2.3410   -4.3930    6.1410 hc        1 HEQ      0.085667
     63 H101       -0.8520   -2.2150    3.8330 ha        1 HEQ      0.129000
     64 H111       -1.5880    0.3310    5.2210 ha        1 HEQ      0.124250
     65 H121       -2.0790    1.2940    3.1030 ha        1 HEQ      0.124250
     66 H351       -3.4880   -1.7410    2.6360 hc        1 HEQ      0.085667
     67 H352       -2.2780   -2.5790    2.0080 hc        1 HEQ      0.085667
     68 H353       -3.3180   -1.8350    1.0430 hc        1 HEQ      0.085667
     69 H141       -1.2480   -0.7600    0.0030 ha        1 HEQ      0.129000
     70 H151        0.0570    1.3830    1.6650 ha        1 HEQ      0.124250
     71 H161        0.4930    2.5500   -0.3420 ha        1 HEQ      0.124250
     72 H171       -0.7840    0.3020   -1.8220 ha        1 HEQ      0.127000
     73 H361       -1.2880    3.9240   -1.5580 ha        1 HEQ      0.088444
     74 H362        0.1110    3.8720   -2.3410 ha        1 HEQ      0.088444
     75 H363       -1.2410    4.1680   -3.1430 ha        1 HEQ      0.088444
     76 H191       -2.5070    1.2010   -3.9830 ha        1 HEQ      0.126500
     77 H201       -1.3460    1.5210   -6.0190 ha        1 HEQ      0.128000
     78 H211        0.9970    2.4130   -4.4360 ha        1 HEQ      0.127000
     79 H371        0.0050    4.3680   -7.8810 ha        1 HEQ      0.088444
     80 H372       -0.1870    2.7830   -7.9940 ha        1 HEQ      0.088444
     81 H373       -1.1580    3.6430   -7.0420 ha        1 HEQ      0.088444
     82 H231        2.3640    4.6210   -5.4700 ha        1 HEQ      0.126500
     83 H242        3.8360    4.3910   -7.3340 ha        1 HEQ      0.128000
     84 H381        3.2690    1.5340   -6.4690 ha        1 HEQ      0.088444
     85 H382        2.4150    0.2260   -6.8320 ha        1 HEQ      0.088444
     86 H383        3.9470    0.3510   -7.3140 ha        1 HEQ      0.088444
     87 H281        2.2880    0.8720  -11.8470 hc        1 HEQ      0.112000
     88 H282        3.4850    1.6640  -11.3960 hc        1 HEQ      0.112000
     89 H291        0.9850    2.6250  -10.7320 hc        1 HEQ      0.089000
     90 H292        1.9650    3.2360  -11.8210 hc        1 HEQ      0.089000
     91 H401        3.7930    4.4990  -11.3240 hc        1 HEQ      0.079500
     92 H402        4.0260    5.0760   -9.8460 hc        1 HEQ      0.079500
     93 H403        4.5270    3.6020  -10.2180 hc        1 HEQ      0.079500
     94 H391        0.6830    4.7370   -9.8530 hc        1 HEQ      0.079500
     95 H392        1.8130    5.5190  -10.6740 hc        1 HEQ      0.079500
     96 H393        1.8630    5.4840   -9.0720 hc        1 HEQ      0.079500
@<TRIPOS>BOND
     1    1    2 1   
     2    1   43 1   
     3    1   44 1   
     4    1   45 1   
     5    2    3 1   
     6    2    4 1   
     7    2   10 1   
     8    3   46 1   
     9    3   47 1   
    10    3   48 1   
    11    4    5 1   
    12    4   49 1   
    13    4   50 1   
    14    5    6 1   
    15    5    7 1   
    16    5   51 1   
    17    6   52 1   
    18    7    8 1   
    19    7   53 1   
    20    7   54 1   
    21    8    9 1   
    22    8   10 1   
    23    9   55 1   
    24    9   56 1   
    25    9   57 1   
    26   10   11 1   
    27   11   12 1   
    28   11   58 1   
    29   12   59 1   
    30   13   14 1   
    31   13   15 1   
    32   14   60 1   
    33   14   61 1   
    34   14   62 1   
    35   15   63 1   
    36   16   17 1   
    37   16   64 1   
    38   17   65 1   
    39   18   19 1   
    40   18   20 1   
    41   19   66 1   
    42   19   67 1   
    43   19   68 1   
    44   20   69 1   
    45   21   22 1   
    46   21   70 1   
    47   22   71 1   
    48   23   24 1   
    49   23   72 1   
    50   24   26 1   
    51   25   73 1   
    52   25   74 1   
    53   25   75 1   
    54   26   27 1   
    55   26   76 1   
    56   27   77 1   
    57   28   29 1   
    58   28   78 1   
    59   29   31 1   
    60   30   79 1   
    61   30   80 1   
    62   30   81 1   
    63   31   32 1   
    64   31   82 1   
    65   32   83 1   
    66   33   34 1   
    67   33   40 1   
    68   34   36 1   
    69   35   84 1   
    70   35   85 1   
    71   35   86 1   
    72   36   37 1   
    73   36   38 1   
    74   38   39 1   
    75   38   87 1   
    76   38   88 1   
    77   39   40 1   
    78   39   89 1   
    79   39   90 1   
    80   40   41 1   
    81   40   42 1   
    82   41   91 1   
    83   41   92 1   
    84   41   93 1   
    85   42   94 1   
    86   42   95 1   
    87   42   96 1   
@<TRIPOS>SUBSTRUCTURE
     1 HEQ         1 TEMP              0 ****  ****    0 ROOT
