@<TRIPOS>MOLECULE
HET
   64    68     1     0     0
SMALL
bcc


@<TRIPOS>ATOM
      1 N9A        -2.9840   -1.2560    0.6860 na        1 HET     -0.262000
      2 C8A        -2.5260   -2.5960    0.6360 cc        1 HET      0.411700
      3 N7A        -1.1950   -2.7070    0.5200 nd        1 HET     -0.546100
      4 C5A        -0.7220   -1.3880    0.4670 ca        1 HET     -0.220200
      5 C6A         0.5890   -0.8150    0.3520 ca        1 HET      0.755200
      6 N6A         1.6770   -1.6790    0.2980 nh        1 HET     -0.734300
      7 N1A         0.7180    0.5410    0.3120 nb        1 HET     -0.772000
      8 C2A        -0.4120    1.3200    0.4030 ca        1 HET      0.703300
      9 N3A        -1.7040    0.9020    0.5250 nb        1 HET     -0.723000
     10 C4A        -1.8380   -0.4540    0.5550 ca        1 HET      0.454800
     11 C1A        -4.3450   -0.8110    0.7180 c3        1 HET      0.050300
     12 CT0        -4.9510   -0.5110   -0.6600 c3        1 HET     -0.061100
     13 CT1        -6.3510   -0.0290   -0.5020 ca        1 HET     -0.050300
     14 CT2        -6.5970    1.2570   -0.0080 ca        1 HET     -0.161000
     15 CT3        -7.9060    1.7190    0.1310 ca        1 HET     -0.094000
     16 CT4        -8.9850    0.9130   -0.2180 ca        1 HET     -0.153000
     17 CT5        -8.7320   -0.3760   -0.7170 ca        1 HET      0.126100
     18 CT6        -7.4220   -0.8520   -0.8600 ca        1 HET     -0.210000
     19 OH         -9.8350   -1.1310   -1.0480 oh        1 HET     -0.496100
     20 CR1         3.0220   -1.3380    0.1080 ca        1 HET      0.216600
     21 CR2         3.8590   -2.2750   -0.5550 ca        1 HET     -0.186500
     22 CR3         5.2090   -2.0070   -0.7210 ca        1 HET     -0.016000
     23 CR4         5.7740   -0.8220   -0.2460 ca        1 HET     -0.509500
     24 CR5         4.9560    0.0900    0.4120 ca        1 HET     -0.016000
     25 CR6         3.6000   -0.1460    0.6020 ca        1 HET     -0.186500
     26 PA          7.3570   -0.5810   -0.4890 py        1 HET      1.497200
     27 OA1         8.0190   -1.6810   -1.1980 o         1 HET     -0.912300
     28 CA2         8.0090   -0.2790    0.9980 c3        1 HET     -0.457300
     29 CA3         7.4850    0.8680   -1.2710 c3        1 HET     -0.457300
     30 CS1        -0.1990    2.8320    0.3530 c3        1 HET     -0.098000
     31 CS2         0.8050    3.3020    1.4080 c3        1 HET     -0.069400
     32 CS3         2.0640    3.7290    0.6670 c3        1 HET     -0.076400
     33 CS4         1.6590    3.9920   -0.7750 c3        1 HET     -0.076400
     34 CS5         0.3400    3.2700   -1.0130 c3        1 HET     -0.069400
     35 H8A        -3.2270   -3.4360    0.7110 h5        1 HET      0.075800
     36 H6A         1.4460   -2.6410    0.1490 hn        1 HET      0.463800
     37 H1A1       -4.9570   -1.6110    1.2240 h1        1 HET      0.073200
     38 H1A2       -4.3930    0.1280    1.3430 h1        1 HET      0.073200
     39 HT01       -4.3410    0.2780   -1.1780 hc        1 HET      0.065200
     40 HT02       -4.9250   -1.4320   -1.3000 hc        1 HET      0.065200
     41 HT2        -5.7520    1.9070    0.2650 ha        1 HET      0.141000
     42 HT3        -8.0890    2.7320    0.5200 ha        1 HET      0.138000
     43 HT4       -10.0210    1.2630   -0.1150 ha        1 HET      0.153000
     44 HT6        -7.2420   -1.8620   -1.2550 ha        1 HET      0.133000
     45 HOH        -9.5230   -1.9790   -1.3950 ho        1 HET      0.419000
     46 HR2         3.4450   -3.2190   -0.9430 ha        1 HET      0.153500
     47 HR3         5.8740   -2.7250   -1.2400 ha        1 HET      0.152000
     48 HR5         5.3990    1.0240    0.7960 ha        1 HET      0.152000
     49 HR6         2.9990    0.6010    1.1410 ha        1 HET      0.153500
     50 HA21        7.5600    0.5920    1.5290 hc        1 HET      0.090867
     51 HA22        7.9030   -1.1550    1.6840 hc        1 HET      0.090867
     52 HA23        9.1070   -0.0800    0.9330 hc        1 HET      0.090867
     53 HA31        8.5530    1.1540   -1.4370 hc        1 HET      0.090867
     54 HA32        7.0220    0.8330   -2.2880 hc        1 HET      0.090867
     55 HA33        7.0070    1.7220   -0.7380 hc        1 HET      0.090867
     56 HS1        -1.1880    3.3340    0.5400 hc        1 HET      0.075700
     57 HS21        0.3710    4.1730    1.9640 hc        1 HET      0.048700
     58 HS22        1.0310    2.5080    2.1600 hc        1 HET      0.048700
     59 HS31        2.5170    4.6380    1.1340 hc        1 HET      0.042200
     60 HS32        2.8260    2.9090    0.7080 hc        1 HET      0.042200
     61 HS41        1.5350    5.0910   -0.9490 hc        1 HET      0.042200
     62 HS42        2.4450    3.6280   -1.4830 hc        1 HET      0.042200
     63 HS51        0.4910    2.3950   -1.6930 hc        1 HET      0.048700
     64 HS52       -0.3970    3.9500   -1.5100 hc        1 HET      0.048700
@<TRIPOS>BOND
     1    1    2 1   
     2    1   10 1   
     3    1   11 1   
     4    2    3 2   
     5    2   35 1   
     6    3    4 1   
     7    4    5 ar  
     8    4   10 ar  
     9    5    6 1   
    10    5    7 ar  
    11    6   20 1   
    12    6   36 1   
    13    7    8 ar  
    14    8    9 ar  
    15    8   30 1   
    16    9   10 ar  
    17   11   12 1   
    18   11   37 1   
    19   11   38 1   
    20   12   13 1   
    21   12   39 1   
    22   12   40 1   
    23   13   14 ar  
    24   13   18 ar  
    25   14   15 ar  
    26   14   41 1   
    27   15   16 ar  
    28   15   42 1   
    29   16   17 ar  
    30   16   43 1   
    31   17   18 ar  
    32   17   19 1   
    33   18   44 1   
    34   19   45 1   
    35   20   21 ar  
    36   20   25 ar  
    37   21   22 ar  
    38   21   46 1   
    39   22   23 ar  
    40   22   47 1   
    41   23   24 ar  
    42   23   26 1   
    43   24   25 ar  
    44   24   48 1   
    45   25   49 1   
    46   26   27 2   
    47   26   28 1   
    48   26   29 1   
    49   28   50 1   
    50   28   51 1   
    51   28   52 1   
    52   29   53 1   
    53   29   54 1   
    54   29   55 1   
    55   30   31 1   
    56   30   34 1   
    57   30   56 1   
    58   31   32 1   
    59   31   57 1   
    60   31   58 1   
    61   32   33 1   
    62   32   59 1   
    63   32   60 1   
    64   33   34 1   
    65   33   61 1   
    66   33   62 1   
    67   34   63 1   
    68   34   64 1   
@<TRIPOS>SUBSTRUCTURE
     1 HET         1 TEMP              0 ****  ****    0 ROOT
