@<TRIPOS>MOLECULE
HET
   65    69     1     0     0
SMALL
bcc


@<TRIPOS>ATOM
      1 N9A        -0.3460   -0.3870    0.5560 na        1 HET     -0.243000
      2 C8A         1.0220   -0.6670    0.7530 cc        1 HET      0.492700
      3 N7A         1.3060   -1.2350    1.9420 nd        1 HET     -0.588100
      4 C5A         0.0720   -1.3320    2.5920 ca        1 HET     -0.146200
      5 C6A        -0.3590   -1.8230    3.8370 ca        1 HET      0.550200
      6 N6A         0.6470   -2.3930    4.7670 n4        1 HET     -0.621100
      7 N1A        -1.6540   -1.7940    4.2170 nb        1 HET     -0.695000
      8 C2A        -2.5730   -1.2640    3.3360 ca        1 HET      0.704300
      9 N3A        -2.3030   -0.7520    2.0950 nb        1 HET     -0.637000
     10 C4A        -1.0010   -0.7890    1.7310 ca        1 HET      0.458800
     11 C1A        -0.9400    0.2630   -0.5860 c3        1 HET      0.032300
     12 CT0        -1.0370    1.7890   -0.4700 c3        1 HET     -0.052100
     13 CT1        -1.5600    2.3450   -1.7480 ca        1 HET     -0.072300
     14 CT2        -2.8920    2.7600   -1.8470 ca        1 HET     -0.155000
     15 CT3        -3.3730    3.2950   -3.0410 ca        1 HET     -0.082000
     16 CT4        -2.5380    3.4200   -4.1480 ca        1 HET     -0.198000
     17 CT5        -1.2020    3.0030   -4.0450 ca        1 HET      0.136100
     18 CT6        -0.7060    2.4650   -2.8470 ca        1 HET     -0.160000
     19 OH         -0.3110    3.0860   -5.0870 oh        1 HET     -0.493100
     20 CR1         1.1040   -1.4060    5.7580 ca        1 HET     -0.002400
     21 CR2         2.2860   -0.6850    5.5150 ca        1 HET     -0.117500
     22 CR3         2.7170    0.2280    6.4760 ca        1 HET     -0.029000
     23 CR4         1.9900    0.4260    7.6500 ca        1 HET     -0.385500
     24 CR5         0.8200   -0.2870    7.8710 ca        1 HET     -0.029000
     25 CR6         0.3560   -1.2080    6.9310 ca        1 HET     -0.117500
     26 PA          2.5990    1.5360    8.7160 py        1 HET      1.474200
     27 OA1         3.8140    2.1410    8.1730 o         1 HET     -0.886300
     28 CA2         2.7930    0.7130   10.1200 c3        1 HET     -0.478800
     29 CA3         1.3640    2.5790    8.9950 c3        1 HET     -0.478800
     30 CS1        -4.0310   -1.2430    3.7740 c3        1 HET     -0.107000
     31 CS2        -4.5850   -2.6420    4.0510 c3        1 HET     -0.073400
     32 CS3        -5.6090   -2.4780    5.1680 c3        1 HET     -0.081400
     33 CS4        -5.4040   -1.1010    5.7870 c3        1 HET     -0.081400
     34 CS5        -4.2560   -0.4250    5.0470 c3        1 HET     -0.073400
     35 H8A         1.7700   -0.4420   -0.0260 h5        1 HET      0.104800
     36 H6A         0.2400   -3.1980    5.2650 hn        1 HET      0.476300
     37 H1A1       -1.9760   -0.1630   -0.7280 h1        1 HET      0.090200
     38 H1A2       -0.3150   -0.0010   -1.4880 h1        1 HET      0.090200
     39 HT01       -1.7150    2.0640    0.3810 hc        1 HET      0.065200
     40 HT02       -0.0260    2.2280   -0.2540 hc        1 HET      0.065200
     41 HT2        -3.5620    2.6700   -0.9790 ha        1 HET      0.137000
     42 HT3        -4.4220    3.6230   -3.1110 ha        1 HET      0.144000
     43 HT4        -2.9170    3.8430   -5.0900 ha        1 HET      0.146000
     44 HT6         0.3480    2.1580   -2.7900 ha        1 HET      0.145000
     45 HOH        -0.7630    3.4960   -5.8400 ho        1 HET      0.429000
     46 HR2         2.8680   -0.8210    4.5880 ha        1 HET      0.170000
     47 HR3         3.6470    0.8210    6.3290 ha        1 HET      0.188000
     48 HR5         0.2440   -0.1250    8.7980 ha        1 HET      0.188000
     49 HR6        -0.5840   -1.7550    7.1130 ha        1 HET      0.170000
     50 HA21        3.6010   -0.0590   10.0550 hc        1 HET      0.105533
     51 HA22        1.8830    0.1810   10.4850 hc        1 HET      0.105533
     52 HA23        3.1100    1.3870   10.9580 hc        1 HET      0.105533
     53 HA31        1.0230    3.1020    8.0670 hc        1 HET      0.105533
     54 HA32        0.4530    2.1200    9.4470 hc        1 HET      0.105533
     55 HA33        1.6690    3.4020    9.6910 hc        1 HET      0.105533
     56 HS1        -4.6410   -0.7800    2.9450 hc        1 HET      0.094700
     57 HS21       -5.0580   -3.0630    3.1290 hc        1 HET      0.051950
     58 HS22       -3.7830   -3.3520    4.3700 hc        1 HET      0.051950
     59 HS31       -6.6480   -2.5700    4.7600 hc        1 HET      0.053950
     60 HS32       -5.4820   -3.2820    5.9350 hc        1 HET      0.053950
     61 HS41       -5.1700   -1.1850    6.8770 hc        1 HET      0.053950
     62 HS42       -6.3380   -0.4910    5.6950 hc        1 HET      0.053950
     63 HS51       -3.3440   -0.4040    5.6930 hc        1 HET      0.051950
     64 HS52       -4.5090    0.6340    4.7890 hc        1 HET      0.051950
     65 H6A2        1.4530   -2.7090    4.2060 hn        1 HET      0.476300
@<TRIPOS>BOND
     1    1    2 1   
     2    1   10 1   
     3    1   11 1   
     4    2    3 2   
     5    2   35 1   
     6    3    4 1   
     7    4    5 ar  
     8    4   10 ar  
     9    5    6 1   
    10    5    7 ar  
    11    6   20 1   
    12    6   36 1   
    13    6   65 1   
    14    7    8 ar  
    15    8    9 ar  
    16    8   30 1   
    17    9   10 ar  
    18   11   12 1   
    19   11   37 1   
    20   11   38 1   
    21   12   13 1   
    22   12   39 1   
    23   12   40 1   
    24   13   14 ar  
    25   13   18 ar  
    26   14   15 ar  
    27   14   41 1   
    28   15   16 ar  
    29   15   42 1   
    30   16   17 ar  
    31   16   43 1   
    32   17   18 ar  
    33   17   19 1   
    34   18   44 1   
    35   19   45 1   
    36   20   21 ar  
    37   20   25 ar  
    38   21   22 ar  
    39   21   46 1   
    40   22   23 ar  
    41   22   47 1   
    42   23   24 ar  
    43   23   26 1   
    44   24   25 ar  
    45   24   48 1   
    46   25   49 1   
    47   26   27 2   
    48   26   28 1   
    49   26   29 1   
    50   28   50 1   
    51   28   51 1   
    52   28   52 1   
    53   29   53 1   
    54   29   54 1   
    55   29   55 1   
    56   30   31 1   
    57   30   34 1   
    58   30   56 1   
    59   31   32 1   
    60   31   57 1   
    61   31   58 1   
    62   32   33 1   
    63   32   59 1   
    64   32   60 1   
    65   33   34 1   
    66   33   61 1   
    67   33   62 1   
    68   34   63 1   
    69   34   64 1   
@<TRIPOS>SUBSTRUCTURE
     1 HET         1 TEMP              0 ****  ****    0 ROOT
