@<TRIPOS>MOLECULE
HET
   64    59     1     0     0
SMALL
bcc


@<TRIPOS>ATOM
      1 N9A        -0.1720   -1.2170   -1.6560 n2        1 HET     -0.183000
      2 C8A         1.1620   -1.2820   -1.6240 c1        1 HET     -0.042000
      3 N7A         1.5450   -1.3410   -0.3330 n2        1 HET     -0.099000
      4 C5A         0.4310   -1.3120    0.4370 c1        1 HET     -0.195000
      5 C6A         0.2480   -1.3300    1.8300 c1        1 HET      0.210000
      6 N6A         1.3440   -1.4310    2.7910 n2        1 HET     -0.253000
      7 N1A        -0.9810   -1.2710    2.3400 n2        1 HET     -0.248000
      8 C2A        -2.0710   -1.1930    1.5030 c1        1 HET      0.079000
      9 N3A        -1.8940   -1.1750    0.1560 n1        1 HET     -0.184000
     10 C4A        -0.6260   -1.2350   -0.3730 c1        1 HET      0.053000
     11 C1A        -0.7720   -1.3790   -2.9580 c2        1 HET     -0.009000
     12 CT0        -0.4310   -0.1520   -3.8420 c3        1 HET     -0.147000
     13 CT1        -0.5520   -0.5440   -5.3480 c2        1 HET     -0.043000
     14 CT2        -1.7930   -0.4690   -5.9940 c2        1 HET     -0.161000
     15 CT3        -1.8920   -0.7740   -7.3440 c1        1 HET     -0.094000
     16 CT4        -0.7560   -1.1560   -8.0580 c1        1 HET     -0.153000
     17 CT5         0.4750   -1.2310   -7.4170 c1        1 HET      0.081000
     18 CT6         0.5740   -0.9230   -6.0550 c1        1 HET     -0.210000
     19 OH          1.6460   -1.5400   -8.1620 oh        1 HET     -0.250000
     20 CR1         2.1480   -0.2660    3.0970 c2        1 HET      0.134000
     21 CR2         1.7000    0.6620    4.0320 c2        1 HET     -0.191000
     22 CR3         2.4610    1.8000    4.3090 c1        1 HET     -0.020000
     23 CR4         3.6720    2.0070    3.6490 c1        1 HET     -0.900000
     24 CR5         4.1210    1.0780    2.7140 c1        1 HET     -0.004000
     25 CR6         3.3560   -0.0620    2.4380 c1        1 HET     -0.175000
     26 PA          4.7330    3.4860    4.0840 p5        1 HET      2.974000
     27 OA1         6.1470    3.2180    3.6920 o         1 HET     -1.183000
     28 CA2         4.6480    3.7850    5.8750 c3        1 HET     -0.982500
     29 CA3         4.1080    4.9890    3.1690 c3        1 HET     -0.982500
     30 CS1        -3.5460   -1.1970    1.9760 c3        1 HET     -0.045000
     31 CS2        -4.1820   -0.1010    1.5240 c3        1 HET     -0.152500
     32 CS3        -5.6930   -0.5760    1.2530 c3        1 HET     -0.157500
     33 CS4        -5.6650   -2.1670    1.3370 c3        1 HET     -0.157500
     34 CS5        -4.3500   -2.4970    1.3330 c3        1 HET     -0.152500
     35 H8A         1.7530   -1.2280   -2.3910 DU        1 HET      0.206000
     36 H6A         1.4940   -2.2150    3.2300 hn        1 HET      0.241000
     37 H1A1       -0.4260   -2.1870   -3.3760 ha        1 HET      0.112500
     38 H1A2       -1.7510   -1.4520   -2.8620 ha        1 HET      0.112500
     39 HT01       -1.0430    0.5630   -3.6480 hc        1 HET      0.104000
     40 HT02        0.4910    0.1440   -3.6520 hc        1 HET      0.104000
     41 HT2        -2.6050   -0.1950   -5.4840 ha        1 HET      0.141000
     42 HT3        -2.7690   -0.7210   -7.8010 ha        1 HET      0.138000
     43 HT4        -0.8260   -1.3720   -9.0120 ha        1 HET      0.153000
     44 HT6         1.4280   -0.9750   -5.6100 ha        1 HET      0.133000
     45 HOH         1.8470   -2.4090   -8.0570 ho        1 HET      0.218000
     46 HR2         0.8540    0.5180    4.4930 ha        1 HET      0.140000
     47 HR3         2.1510    2.4400    4.9540 ha        1 HET      0.124000
     48 HR5         4.9520    1.2190    2.2600 ha        1 HET      0.178000
     49 HR6         3.6720   -0.7180    1.7780 ha        1 HET      0.150000
     50 HA21        4.7680    2.9480    6.3480 hc        1 HET      0.129833
     51 HA22        3.7810    4.1620    6.1010 hc        1 HET      0.129833
     52 HA23        5.3570    4.4130    6.1370 hc        1 HET      0.129833
     53 HA31        4.7360    5.7300    3.2920 hc        1 HET      0.129833
     54 HA32        3.2280    5.2440    3.5210 hc        1 HET      0.129833
     55 HA33        4.0320    4.7820    2.2200 hc        1 HET      0.129833
     56 HS1        -3.5850   -1.2280    2.9520 hc        1 HET      0.116000
     57 HS21       -3.7730    0.2110    0.6970 hc        1 HET      0.091500
     58 HS22       -4.1650    0.5910    2.1870 hc        1 HET      0.091500
     59 HS31       -5.9840   -0.2890    0.3640 hc        1 HET      0.081250
     60 HS32       -6.3060   -0.2020    1.9570 hc        1 HET      0.081250
     61 HS41       -6.1190   -2.5590    0.5530 hc        1 HET      0.081250
     62 HS42       -6.0820   -2.4670    2.1510 hc        1 HET      0.081250
     63 HS51       -4.1990   -3.2970    1.8890 hc        1 HET      0.091500
     64 HS52       -4.0520   -2.6580    0.4340 hc        1 HET      0.091500
@<TRIPOS>BOND
     1    1    2 1   
     2    1   10 1   
     3    2    3 1   
     4    3    4 1   
     5    4    5 1   
     6    5    7 1   
     7    6   20 1   
     8    6   36 1   
     9    7    8 1   
    10    8   30 1   
    11    9   10 1   
    12   11   12 1   
    13   11   37 1   
    14   11   38 1   
    15   12   13 1   
    16   12   39 1   
    17   12   40 1   
    18   13   14 1   
    19   13   18 1   
    20   14   15 1   
    21   14   41 1   
    22   15   42 1   
    23   16   17 1   
    24   16   43 1   
    25   17   19 1   
    26   18   44 1   
    27   19   45 1   
    28   20   21 1   
    29   20   25 1   
    30   21   22 1   
    31   21   46 1   
    32   22   47 1   
    33   23   24 1   
    34   23   26 1   
    35   24   48 1   
    36   25   49 1   
    37   26   27 1   
    38   26   28 1   
    39   26   29 1   
    40   28   50 1   
    41   28   51 1   
    42   28   52 1   
    43   29   53 1   
    44   29   54 1   
    45   29   55 1   
    46   30   31 1   
    47   30   34 1   
    48   30   56 1   
    49   31   32 1   
    50   31   57 1   
    51   31   58 1   
    52   32   33 1   
    53   32   59 1   
    54   32   60 1   
    55   33   34 1   
    56   33   61 1   
    57   33   62 1   
    58   34   63 1   
    59   34   64 1   
@<TRIPOS>SUBSTRUCTURE
     1 HET         1 TEMP              0 ****  ****    0 ROOT
