@<TRIPOS>MOLECULE
HET
   64    68     1     0     0
SMALL
bcc


@<TRIPOS>ATOM
      1 N9A        -0.1400   -0.2050    0.0120 na        1 HET     -0.262000
      2 C8A         1.2690   -0.2520    0.1420 cc        1 HET      0.411700
      3 N7A         1.6930   -0.2990    1.4130 nd        1 HET     -0.546100
      4 C5A         0.5250   -0.2630    2.1880 ca        1 HET     -0.220200
      5 C6A         0.2780   -0.2880    3.6020 ca        1 HET      0.755200
      6 N6A         1.3730   -0.3920    4.4540 nu        1 HET     -0.734300
      7 N1A        -1.0060   -0.2210    4.0520 nb        1 HET     -0.772000
      8 C2A        -2.0290   -0.1520    3.1360 ca        1 HET      0.703300
      9 N3A        -1.9300   -0.1320    1.7770 nb        1 HET     -0.723000
     10 C4A        -0.6460   -0.1880    1.3220 ca        1 HET      0.454800
     11 C1A        -0.8910   -0.0600   -1.2000 c3        1 HET      0.049300
     12 CT0        -1.2380    1.3900   -1.5660 c3        1 HET     -0.061100
     13 CT1        -2.0400    1.4160   -2.8200 ca        1 HET     -0.050300
     14 CT2        -3.3760    0.9990   -2.8060 ca        1 HET     -0.161000
     15 CT3        -4.1350    1.0320   -3.9750 ca        1 HET     -0.094000
     16 CT4        -3.5820    1.4790   -5.1700 ca        1 HET     -0.153000
     17 CT5        -2.2410    1.8990   -5.1790 ca        1 HET      0.126100
     18 CT6        -1.4660    1.8690   -4.0110 ca        1 HET     -0.210000
     19 OH         -1.7430    2.3320   -6.3860 oh        1 HET     -0.496100
     20 CR1         1.3650   -0.3540    5.8530 ca        1 HET      0.216600
     21 CR2         2.5070    0.1760    6.5120 ca        1 HET     -0.186500
     22 CR3         2.5700    0.1870    7.8960 ca        1 HET     -0.016000
     23 CR4         1.5230   -0.3160    8.6710 ca        1 HET     -0.509500
     24 CR5         0.4090   -0.8420    8.0260 ca        1 HET     -0.016000
     25 CR6         0.3140   -0.8760    6.6400 ca        1 HET     -0.186500
     26 PA          1.6700   -0.2570   10.2830 py        1 HET      1.497200
     27 OA1         2.9330    0.3340   10.7380 o         1 HET     -0.912300
     28 CA2         1.4420   -1.8010   10.8220 c3        1 HET     -0.457300
     29 CA3         0.3380    0.5480   10.8360 c3        1 HET     -0.457300
     30 CS1        -3.4450   -0.0810    3.7060 c3        1 HET     -0.098000
     31 CS2        -3.7310   -1.2340    4.6710 c3        1 HET     -0.069400
     32 CS3        -3.8090   -0.6370    6.0690 c3        1 HET     -0.076400
     33 CS4        -4.0740    0.8510    5.8990 c3        1 HET     -0.076400
     34 CS5        -3.6660    1.2230    4.4790 c3        1 HET     -0.069400
     35 H8A         1.9180   -0.2690   -0.7420 h5        1 HET      0.075800
     36 H6A         2.2620   -0.2460    4.0190 hn        1 HET      0.463800
     37 H1A1       -1.8510   -0.6430   -1.0910 h1        1 HET      0.073200
     38 H1A2       -0.2860   -0.5160   -2.0350 h1        1 HET      0.073200
     39 HT01       -1.8310    1.8580   -0.7340 hc        1 HET      0.065200
     40 HT02       -0.2980    1.9900   -1.6900 hc        1 HET      0.065200
     41 HT2        -3.8280    0.6500   -1.8650 ha        1 HET      0.141000
     42 HT3        -5.1860    0.7030   -3.9530 ha        1 HET      0.138000
     43 HT4        -4.1680    1.5120   -6.0990 ha        1 HET      0.153000
     44 HT6        -0.4200    2.2050   -4.0340 ha        1 HET      0.133000
     45 HOH        -0.8260    2.6100   -6.2500 ho        1 HET      0.419000
     46 HR2         3.3500    0.5810    5.9310 ha        1 HET      0.153500
     47 HR3         3.4510    0.6000    8.4250 ha        1 HET      0.152000
     48 HR5        -0.4170   -1.2480    8.6330 ha        1 HET      0.152000
     49 HR6        -0.5830   -1.3160    6.1780 ha        1 HET      0.153500
     50 HA21        1.5060   -1.8620   11.9360 hc        1 HET      0.090867
     51 HA22        2.2290   -2.4960   10.4380 hc        1 HET      0.090867
     52 HA23        0.4620   -2.2480   10.5350 hc        1 HET      0.090867
     53 HA31        0.3230    1.6110   10.4910 hc        1 HET      0.090867
     54 HA32       -0.6330    0.1020   10.5190 hc        1 HET      0.090867
     55 HA33        0.3180    0.5940   11.9520 hc        1 HET      0.090867
     56 HS1        -4.1730   -0.1320    2.8490 hc        1 HET      0.075700
     57 HS21       -2.9510   -2.0320    4.6180 hc        1 HET      0.048700
     58 HS22       -4.7090   -1.7060    4.3980 hc        1 HET      0.048700
     59 HS31       -2.8390   -0.7950    6.6050 hc        1 HET      0.042200
     60 HS32       -4.6140   -1.1260    6.6700 hc        1 HET      0.042200
     61 HS41       -5.1600    1.0730    6.0580 hc        1 HET      0.042200
     62 HS42       -3.4970    1.4470    6.6470 hc        1 HET      0.042200
     63 HS51       -2.7410    1.8530    4.4920 hc        1 HET      0.048700
     64 HS52       -4.4680    1.8260    3.9840 hc        1 HET      0.048700
@<TRIPOS>BOND
     1    1    2 1   
     2    1   10 1   
     3    1   11 1   
     4    2    3 2   
     5    2   35 1   
     6    3    4 1   
     7    4    5 ar  
     8    4   10 ar  
     9    5    6 1   
    10    5    7 ar  
    11    6   20 1   
    12    6   36 1   
    13    7    8 ar  
    14    8    9 ar  
    15    8   30 1   
    16    9   10 ar  
    17   11   12 1   
    18   11   37 1   
    19   11   38 1   
    20   12   13 1   
    21   12   39 1   
    22   12   40 1   
    23   13   14 ar  
    24   13   18 ar  
    25   14   15 ar  
    26   14   41 1   
    27   15   16 ar  
    28   15   42 1   
    29   16   17 ar  
    30   16   43 1   
    31   17   18 ar  
    32   17   19 1   
    33   18   44 1   
    34   19   45 1   
    35   20   21 ar  
    36   20   25 ar  
    37   21   22 ar  
    38   21   46 1   
    39   22   23 ar  
    40   22   47 1   
    41   23   24 ar  
    42   23   26 1   
    43   24   25 ar  
    44   24   48 1   
    45   25   49 1   
    46   26   27 2   
    47   26   28 1   
    48   26   29 1   
    49   28   50 1   
    50   28   51 1   
    51   28   52 1   
    52   29   53 1   
    53   29   54 1   
    54   29   55 1   
    55   30   31 1   
    56   30   34 1   
    57   30   56 1   
    58   31   32 1   
    59   31   57 1   
    60   31   58 1   
    61   32   33 1   
    62   32   59 1   
    63   32   60 1   
    64   33   34 1   
    65   33   61 1   
    66   33   62 1   
    67   34   63 1   
    68   34   64 1   
@<TRIPOS>SUBSTRUCTURE
     1 HET         1 TEMP              0 ****  ****    0 ROOT
