@<TRIPOS>MOLECULE
HET
   64    68     1     0     0
SMALL
bcc


@<TRIPOS>ATOM
      1 N9A        -0.1430   -0.2090    0.0120 na        1 HET     -0.262000
      2 C8A         1.2670   -0.2580    0.1410 cc        1 HET      0.411700
      3 N7A         1.6910   -0.3050    1.4120 nd        1 HET     -0.546100
      4 C5A         0.5230   -0.2660    2.1880 ca        1 HET     -0.220200
      5 C6A         0.2780   -0.2900    3.6020 ca        1 HET      0.755200
      6 N6A         1.3730   -0.3950    4.4530 nh        1 HET     -0.734300
      7 N1A        -1.0060   -0.2210    4.0530 nb        1 HET     -0.772000
      8 C2A        -2.0300   -0.1500    3.1370 ca        1 HET      0.703300
      9 N3A        -1.9310   -0.1310    1.7780 nb        1 HET     -0.723000
     10 C4A        -0.6480   -0.1890    1.3220 ca        1 HET      0.454800
     11 C1A        -0.8930   -0.0620   -1.2000 c3        1 HET      0.049300
     12 CT0        -1.2370    1.3880   -1.5670 c3        1 HET     -0.061100
     13 CT1        -2.0400    1.4140   -2.8200 ca        1 HET     -0.050300
     14 CT2        -3.3770    1.0030   -2.8040 ca        1 HET     -0.161000
     15 CT3        -4.1380    1.0360   -3.9730 ca        1 HET     -0.094000
     16 CT4        -3.5840    1.4790   -5.1690 ca        1 HET     -0.153000
     17 CT5        -2.2420    1.8930   -5.1800 ca        1 HET      0.126100
     18 CT6        -1.4660    1.8630   -4.0140 ca        1 HET     -0.210000
     19 OH         -1.7440    2.3220   -6.3890 oh        1 HET     -0.496100
     20 CR1         1.3650   -0.3560    5.8520 ca        1 HET      0.216600
     21 CR2         2.5090    0.1730    6.5100 ca        1 HET     -0.186500
     22 CR3         2.5720    0.1850    7.8950 ca        1 HET     -0.016000
     23 CR4         1.5240   -0.3170    8.6710 ca        1 HET     -0.509500
     24 CR5         0.4090   -0.8420    8.0260 ca        1 HET     -0.016000
     25 CR6         0.3130   -0.8760    6.6400 ca        1 HET     -0.186500
     26 PA          1.6720   -0.2560   10.2820 py        1 HET      1.497200
     27 OA1         2.9360    0.3330   10.7360 o         1 HET     -0.912300
     28 CA2         1.4420   -1.8000   10.8220 c3        1 HET     -0.457300
     29 CA3         0.3410    0.5510   10.8350 c3        1 HET     -0.457300
     30 CS1        -3.4450   -0.0760    3.7070 c3        1 HET     -0.098000
     31 CS2        -3.7330   -1.2290    4.6730 c3        1 HET     -0.069400
     32 CS3        -3.8100   -0.6310    6.0700 c3        1 HET     -0.076400
     33 CS4        -4.0720    0.8580    5.9000 c3        1 HET     -0.076400
     34 CS5        -3.6630    1.2280    4.4800 c3        1 HET     -0.069400
     35 H8A         1.9160   -0.2770   -0.7440 h5        1 HET      0.075800
     36 H6A         2.2620   -0.2510    4.0180 hn        1 HET      0.463800
     37 H1A1       -1.8560   -0.6430   -1.0890 h1        1 HET      0.073200
     38 H1A2       -0.2910   -0.5220   -2.0350 h1        1 HET      0.073200
     39 HT01       -1.8270    1.8580   -0.7350 hc        1 HET      0.065200
     40 HT02       -0.2950    1.9850   -1.6930 hc        1 HET      0.065200
     41 HT2        -3.8290    0.6570   -1.8620 ha        1 HET      0.141000
     42 HT3        -5.1900    0.7110   -3.9490 ha        1 HET      0.138000
     43 HT4        -4.1710    1.5120   -6.0980 ha        1 HET      0.153000
     44 HT6        -0.4190    2.1950   -4.0380 ha        1 HET      0.133000
     45 HOH        -0.8250    2.5970   -6.2540 ho        1 HET      0.419000
     46 HR2         3.3520    0.5770    5.9280 ha        1 HET      0.153500
     47 HR3         3.4540    0.5970    8.4230 ha        1 HET      0.152000
     48 HR5        -0.4170   -1.2460    8.6330 ha        1 HET      0.152000
     49 HR6        -0.5840   -1.3150    6.1790 ha        1 HET      0.153500
     50 HA21        0.4620   -2.2460   10.5360 hc        1 HET      0.090867
     51 HA22        2.2290   -2.4960   10.4390 hc        1 HET      0.090867
     52 HA23        1.5060   -1.8600   11.9360 hc        1 HET      0.090867
     53 HA31       -0.6300    0.1040   10.5200 hc        1 HET      0.090867
     54 HA32        0.3260    1.6130   10.4870 hc        1 HET      0.090867
     55 HA33        0.3220    0.6000   11.9510 hc        1 HET      0.090867
     56 HS1        -4.1740   -0.1260    2.8510 hc        1 HET      0.075700
     57 HS21       -2.9540   -2.0280    4.6200 hc        1 HET      0.048700
     58 HS22       -4.7120   -1.6990    4.4000 hc        1 HET      0.048700
     59 HS31       -4.6150   -1.1180    6.6720 hc        1 HET      0.042200
     60 HS32       -2.8390   -0.7910    6.6060 hc        1 HET      0.042200
     61 HS41       -5.1570    1.0820    6.0610 hc        1 HET      0.042200
     62 HS42       -3.4930    1.4530    6.6480 hc        1 HET      0.042200
     63 HS51       -4.4650    1.8320    3.9850 hc        1 HET      0.048700
     64 HS52       -2.7380    1.8560    4.4920 hc        1 HET      0.048700
@<TRIPOS>BOND
     1    1    2 1   
     2    1   10 1   
     3    1   11 1   
     4    2    3 2   
     5    2   35 1   
     6    3    4 1   
     7    4    5 ar  
     8    4   10 ar  
     9    5    6 1   
    10    5    7 ar  
    11    6   20 1   
    12    6   36 1   
    13    7    8 ar  
    14    8    9 ar  
    15    8   30 1   
    16    9   10 ar  
    17   11   12 1   
    18   11   37 1   
    19   11   38 1   
    20   12   13 1   
    21   12   39 1   
    22   12   40 1   
    23   13   14 ar  
    24   13   18 ar  
    25   14   15 ar  
    26   14   41 1   
    27   15   16 ar  
    28   15   42 1   
    29   16   17 ar  
    30   16   43 1   
    31   17   18 ar  
    32   17   19 1   
    33   18   44 1   
    34   19   45 1   
    35   20   21 ar  
    36   20   25 ar  
    37   21   22 ar  
    38   21   46 1   
    39   22   23 ar  
    40   22   47 1   
    41   23   24 ar  
    42   23   26 1   
    43   24   25 ar  
    44   24   48 1   
    45   25   49 1   
    46   26   27 2   
    47   26   28 1   
    48   26   29 1   
    49   28   50 1   
    50   28   51 1   
    51   28   52 1   
    52   29   53 1   
    53   29   54 1   
    54   29   55 1   
    55   30   31 1   
    56   30   34 1   
    57   30   56 1   
    58   31   32 1   
    59   31   57 1   
    60   31   58 1   
    61   32   33 1   
    62   32   59 1   
    63   32   60 1   
    64   33   34 1   
    65   33   61 1   
    66   33   62 1   
    67   34   63 1   
    68   34   64 1   
@<TRIPOS>SUBSTRUCTURE
     1 HET         1 TEMP              0 ****  ****    0 ROOT
