@<TRIPOS>MOLECULE
HEU
   38    38     1     0     0
SMALL
bcc


@<TRIPOS>ATOM
      1 P           2.2630    1.4350    4.1150 p4        1 HEU      1.680200
      2 OP2         1.8510    1.2020    5.5530 os        1 HEU     -1.226000
      3 OP1         1.6800    2.7450    3.6300 o         1 HEU     -0.930000
      4 O5'         1.7190    0.2420    3.2050 os        1 HEU     -0.554200
      5 C5'         1.8160    0.3680    1.7850 c3        1 HEU      0.228400
      6 C4'         2.4670   -0.8750    1.2110 c3        1 HEU      0.032100
      7 O4'         1.3380   -1.9830    0.8690 os        1 HEU     -0.389600
      8 C1'         0.8410   -1.6510   -0.3000 c3        1 HEU      0.307500
      9 N1         -0.3050   -0.8020   -0.1350 n         1 HEU     -0.374000
     10 C2         -0.8320   -0.0570   -1.2880 c         1 HEU      0.792500
     11 O2         -0.2060   -0.0340   -2.3310 o         1 HEU     -0.698500
     12 N3         -2.1660    0.5500   -1.2240 n         1 HEU     -0.501400
     13 C7         -2.7340    1.1730   -2.3990 c3        1 HEU      0.098000
     14 C8         -3.7660    0.2420   -3.0200 c3        1 HEU      0.104400
     15 O9         -4.4800    0.9350   -4.0330 oh        1 HEU     -0.609800
     16 C4         -2.8960    0.5300   -0.0090 c         1 HEU      0.720700
     17 O4         -4.0120    1.0110    0.0370 o         1 HEU     -0.675500
     18 C5         -2.3340   -0.1450    1.1760 cc        1 HEU     -0.382200
     19 C6         -1.0300   -0.8260    1.0840 cd        1 HEU      0.094600
     20 C3'         3.0510   -0.5970    0.1000 c3        1 HEU      0.111100
     21 C2'         1.9720   -0.8870   -1.0130 c3        1 HEU     -0.138400
     22 O3'         4.2310   -1.4710   -0.0910 oh        1 HEU     -0.624800
     23 OP3         3.7710    1.4910    4.0250 o         1 HEU     -0.978800
     24 H5'         0.9260    0.4720    1.4060 h1        1 HEU     -0.005300
     25 H5''        2.3590    1.1540    1.5630 h1        1 HEU     -0.005300
     26 H4'         3.1140   -1.2400    1.8480 h1        1 HEU      0.165700
     27 H1'         0.6000   -2.4570   -0.8110 h2        1 HEU      0.065700
     28 H71        -2.0230    1.3530   -3.0500 h1        1 HEU      0.074200
     29 H72        -3.1660    2.0160   -2.1450 h1        1 HEU      0.074200
     30 H81        -4.3940   -0.0610   -2.3260 h1        1 HEU      0.037200
     31 H82        -3.3140   -0.5320   -3.4110 h1        1 HEU      0.037200
     32 H9         -5.0190    0.3650   -4.4600 ho        1 HEU      0.389000
     33 H5         -2.8350   -0.1590    2.0140 ha        1 HEU      0.184000
     34 H6         -0.7110   -1.3680    1.8290 h4        1 HEU      0.294000
     35 H3'         3.3140    0.3350    0.0800 h1        1 HEU      0.080700
     36 H2'         1.6340   -0.0530   -1.3800 hc        1 HEU      0.058200
     37 H2''        2.3590   -1.4400   -1.7270 hc        1 HEU      0.058200
     38 HO3'        4.9180   -0.9840   -0.3750 ho        1 HEU      0.405000
@<TRIPOS>BOND
     1    1    3 1   
     2    1    4 1   
     3    1   23 2   
     4    4    5 1   
     5    5    6 1   
     6    5   24 1   
     7    5   25 1   
     8    6    7 1   
     9    6   20 1   
    10    6   26 1   
    11    7    8 1   
    12    8    9 1   
    13    8   21 1   
    14    8   27 1   
    15    9   10 1   
    16    9   19 1   
    17   10   11 2   
    18   10   12 1   
    19   12   13 1   
    20   12   16 1   
    21   13   14 1   
    22   13   28 1   
    23   13   29 1   
    24   14   15 1   
    25   14   30 1   
    26   14   31 1   
    27   15   32 1   
    28   16   17 2   
    29   16   18 1   
    30   18   19 2   
    31   18   33 1   
    32   19   34 1   
    33   20   21 1   
    34   20   22 1   
    35   20   35 1   
    36   21   36 1   
    37   21   37 1   
    38   22   38 1   
@<TRIPOS>SUBSTRUCTURE
     1 HEU         1 TEMP              0 ****  ****    0 ROOT
