@<TRIPOS>MOLECULE
HEU
   38    39     1     0     0
SMALL
bcc


@<TRIPOS>ATOM
      1 P          -3.5250   -0.0300    4.6170 p5        1 HEU      1.438800
      2 OP2        -4.6740   -0.9720    3.9320 oh        1 HEU     -0.785400
      3 OP1        -3.8890   -0.0540    6.0480 o         1 HEU     -0.848500
      4 O5'        -2.2280   -1.0190    4.3900 os        1 HEU     -0.585200
      5 C5'        -1.8610   -1.3000    3.0710 c3        1 HEU      0.192400
      6 C4'        -0.6340   -0.4790    2.6420 c3        1 HEU      0.087100
      7 O4'         0.3410   -1.3730    2.0910 os        1 HEU     -0.433600
      8 C1'         0.9820   -0.7730    0.9370 c3        1 HEU      0.330500
      9 N1          1.1550   -1.7570   -0.1220 n         1 HEU     -0.317400
     10 C2          2.3100   -2.5830   -0.0510 c         1 HEU      0.723100
     11 O2          3.2290   -2.4030    0.7950 o         1 HEU     -0.698100
     12 N3          2.4510   -3.6200   -1.0090 n         1 HEU     -0.503400
     13 C7          3.5680   -4.5220   -0.8890 c3        1 HEU      0.062000
     14 C8          4.7480   -4.2320   -1.8300 c3        1 HEU      0.127400
     15 O9          4.6380   -4.9030   -3.0690 oh        1 HEU     -0.652800
     16 C4          1.4820   -3.8080   -2.0420 c         1 HEU      0.674300
     17 O4          1.7000   -4.7340   -2.8730 o         1 HEU     -0.744100
     18 C5          0.3620   -2.9120   -2.0410 ce        1 HEU     -0.550300
     19 C6          0.2000   -1.9210   -1.0910 c1        1 HEU     -0.079900
     20 C3'        -0.9450    0.5990    1.5830 c3        1 HEU      0.138100
     21 C2'         0.1590    0.4690    0.5330 c3        1 HEU     -0.105400
     22 O3'        -0.8940    1.9020    2.1340 oh        1 HEU     -0.646800
     23 OP3        -3.2960    1.1680    3.7800 o         1 HEU     -0.848500
     24 H5'        -1.5930   -2.3930    3.0220 h1        1 HEU      0.038200
     25 H5''       -2.7300   -1.0990    2.3860 h1        1 HEU      0.038200
     26 H4'        -0.1640   -0.0010    3.5460 h1        1 HEU      0.059700
     27 H1'         2.0130   -0.4720    1.2960 h2        1 HEU      0.059700
     28 H71         3.1990   -5.5660   -1.1100 h1        1 HEU      0.061200
     29 H72         3.9520   -4.4850    0.1700 h1        1 HEU      0.061200
     30 H81         5.6930   -4.6300   -1.3710 h1        1 HEU      0.027700
     31 H82         4.8680   -3.1310   -2.0130 h1        1 HEU      0.027700
     32 H9          3.7090   -4.8530   -3.3470 ho        1 HEU      0.444000
     33 H5         -0.3790   -3.0460   -2.8310 ha        1 HEU      0.132000
     34 H6         -5.1210   -1.5040    4.5790 ho        1 HEU      0.422000
     35 H3'        -1.9570    0.4260    1.1260 h1        1 HEU      0.055700
     36 H2'        -0.2900    0.3500   -0.4850 hc        1 HEU      0.069700
     37 H2''        0.8170    1.3710    0.5390 hc        1 HEU      0.069700
     38 HO3'       -1.6670    1.9810    2.7200 ho        1 HEU      0.458000
@<TRIPOS>BOND
     1    1    2 1   
     2    1    3 1   
     3    1    4 1   
     4    1   23 1   
     5    2   34 1   
     6    4    5 1   
     7    5    6 1   
     8    5   24 1   
     9    5   25 1   
    10    6    7 1   
    11    6   20 1   
    12    6   26 1   
    13    7    8 1   
    14    8    9 1   
    15    8   21 1   
    16    8   27 1   
    17    9   10 1   
    18    9   19 2   
    19   10   11 2   
    20   10   12 1   
    21   12   13 1   
    22   12   16 1   
    23   13   14 1   
    24   13   28 1   
    25   13   29 1   
    26   14   15 1   
    27   14   30 1   
    28   14   31 1   
    29   15   32 1   
    30   16   17 2   
    31   16   18 1   
    32   18   19 2   
    33   18   33 1   
    34   20   21 1   
    35   20   22 1   
    36   20   35 1   
    37   21   36 1   
    38   21   37 1   
    39   22   38 1   
@<TRIPOS>SUBSTRUCTURE
     1 HEU         1 TEMP              0 ****  ****    0 ROOT
