@<TRIPOS>MOLECULE
HEX
   20    19     1     0     0
SMALL
bcc


@<TRIPOS>ATOM
      1 C1         -0.2220    0.0000    3.1430 c3        1 HEX     -0.092100
      2 C2          0.5430    0.0000    1.8450 c3        1 HEX     -0.080400
      3 C3         -0.3870   -0.0000    0.6500 c3        1 HEX     -0.079400
      4 C4          0.3870   -0.0000   -0.6500 c3        1 HEX     -0.079400
      5 C5         -0.5430    0.0000   -1.8450 c3        1 HEX     -0.080400
      6 C6          0.2220    0.0000   -3.1430 c3        1 HEX     -0.092100
      7 H11        -0.8730   -0.9050    3.2170 hc        1 HEX      0.032700
      8 H12         0.4820   -0.0000    4.0090 hc        1 HEX      0.032700
      9 H13        -0.8730    0.9050    3.2170 hc        1 HEX      0.032700
     10 H21         1.2090    0.9020    1.8000 hc        1 HEX      0.038700
     11 H22         1.2090   -0.9020    1.8000 hc        1 HEX      0.038700
     12 H31        -1.0520   -0.9020    0.6930 hc        1 HEX      0.038700
     13 H32        -1.0520    0.9020    0.6930 hc        1 HEX      0.038700
     14 H41         1.0520    0.9020   -0.6930 hc        1 HEX      0.038700
     15 H42         1.0520   -0.9020   -0.6930 hc        1 HEX      0.038700
     16 H51        -1.2090   -0.9020   -1.8000 hc        1 HEX      0.038700
     17 H52        -1.2090    0.9020   -1.8000 hc        1 HEX      0.038700
     18 H61        -0.4820   -0.0000   -4.0090 hc        1 HEX      0.032700
     19 H62         0.8730    0.9050   -3.2170 hc        1 HEX      0.032700
     20 H63         0.8730   -0.9050   -3.2170 hc        1 HEX      0.032700
@<TRIPOS>BOND
     1    1    2 1   
     2    1    7 1   
     3    1    8 1   
     4    1    9 1   
     5    2    3 1   
     6    2   10 1   
     7    2   11 1   
     8    3    4 1   
     9    3   12 1   
    10    3   13 1   
    11    4    5 1   
    12    4   14 1   
    13    4   15 1   
    14    5    6 1   
    15    5   16 1   
    16    5   17 1   
    17    6   18 1   
    18    6   19 1   
    19    6   20 1   
@<TRIPOS>SUBSTRUCTURE
     1 HEX         1 TEMP              0 ****  ****    0 ROOT
