@<TRIPOS>MOLECULE
HEY
   43    43     1     0     0
SMALL
bcc


@<TRIPOS>ATOM
      1 N1          0.6030    0.5950    0.0960 nb        1 HEY     -0.703000
      2 C2          1.8390    0.8680    0.5790 ca        1 HEY      0.324600
      3 C2A         2.8750    1.4540   -0.3230 c3        1 HEY     -0.116400
      4 C3          2.1830    0.6350    1.9380 ca        1 HEY      0.018800
      5 O3          3.4610    0.9890    2.3100 oh        1 HEY     -0.570100
      6 C4          1.2270    0.1210    2.8410 ca        1 HEY     -0.090300
      7 C4A         1.4550   -0.0830    4.3090 c3        1 HEY      0.104100
      8 C5         -0.0240   -0.2390    2.3090 ca        1 HEY     -0.124600
      9 C6         -0.2770    0.0500    0.9470 ca        1 HEY      0.361200
     10 C5A        -1.1210   -0.9630    3.0650 c3        1 HEY      0.266700
     11 OP4        -2.2760   -0.2320    3.1230 os        1 HEY     -0.557200
     12 P          -2.7680    0.1670    4.7510 p5        1 HEY      1.327900
     13 OP1        -3.3330   -1.1430    5.2220 o         1 HEY     -0.928500
     14 OP2        -3.7490    1.2810    4.5400 o         1 HEY     -0.928500
     15 OP3        -1.4130    0.5250    5.3260 o         1 HEY     -0.928500
     16 N4A         2.4920    0.7850    4.9500 n4        1 HEY     -0.597800
     17 CAI         3.7210    0.1340    5.4110 ce        1 HEY     -0.246200
     18 CBC         4.0610   -1.2600    4.8890 c         1 HEY      0.931800
     19 O2B         4.4310   -2.1370    5.7120 o         1 HEY     -0.834300
     20 O3B         4.0020   -1.4670    3.6360 o         1 HEY     -0.834300
     21 CBI         4.5940    0.7620    6.2350 c2        1 HEY     -0.034200
     22 CGI         4.5770    2.1470    6.7500 c3        1 HEY     -0.068200
     23 CEI         5.2870    2.3240    8.0550 c3        1 HEY     -0.283600
     24 PG          6.4420    3.7240    8.0030 p5        1 HEY      1.213700
     25 OG1         6.4580    4.1910    6.5590 o         1 HEY     -0.956833
     26 OG2         5.8500    4.7240    8.9730 o         1 HEY     -0.956833
     27 OG3         7.7500    3.1190    8.4710 o         1 HEY     -0.956833
     28 H2A1        2.6790    1.2200   -1.3970 hc        1 HEY      0.028033
     29 H2A2        3.8810    1.0550   -0.0390 hc        1 HEY      0.028033
     30 H2A3        2.8920    2.5650   -0.1960 hc        1 HEY      0.028033
     31 HO3         3.8790    0.1940    2.7150 ho        1 HEY      0.483000
     32 H4A1        0.4510    0.1450    4.8510 hx        1 HEY      0.172200
     33 H4A2        1.7280   -1.1630    4.4850 hx        1 HEY      0.172200
     34 H6         -1.2850   -0.1610    0.5470 h4        1 HEY      0.020100
     35 H5A1       -1.3010   -1.9140    2.4670 h1        1 HEY      0.001200
     36 H5A2       -0.7680   -1.2640    4.0920 h1        1 HEY      0.001200
     37 H4A         2.0490    1.2260    5.7670 hn        1 HEY      0.438300
     38 HBI         5.4760    0.1610    6.5380 ha        1 HEY      0.158000
     39 HGI1        3.5170    2.5210    6.8150 hc        1 HEY      0.070200
     40 HGI2        5.1230    2.8140    5.9940 hc        1 HEY      0.070200
     41 HEI1        5.8940    1.4340    8.3250 hc        1 HEY      0.030200
     42 HEI2        4.5680    2.5200    8.8780 hc        1 HEY      0.030200
     43 H4A3        2.7610    1.5340    4.2980 hn        1 HEY      0.438300
@<TRIPOS>BOND
     1    1    2 ar  
     2    1    9 ar  
     3    2    3 1   
     4    2    4 ar  
     5    3   28 1   
     6    3   29 1   
     7    3   30 1   
     8    4    5 1   
     9    4    6 ar  
    10    5   31 1   
    11    6    7 1   
    12    6    8 ar  
    13    7   16 1   
    14    7   32 1   
    15    7   33 1   
    16    8    9 ar  
    17    8   10 1   
    18    9   34 1   
    19   10   11 1   
    20   10   35 1   
    21   10   36 1   
    22   11   12 1   
    23   12   13 1   
    24   12   14 1   
    25   12   15 1   
    26   16   17 1   
    27   16   37 1   
    28   16   43 1   
    29   17   18 1   
    30   17   21 2   
    31   18   19 1   
    32   18   20 1   
    33   21   22 1   
    34   21   38 1   
    35   22   23 1   
    36   22   39 1   
    37   22   40 1   
    38   23   24 1   
    39   23   41 1   
    40   23   42 1   
    41   24   25 1   
    42   24   26 1   
    43   24   27 1   
@<TRIPOS>SUBSTRUCTURE
     1 HEY         1 TEMP              0 ****  ****    0 ROOT
