@<TRIPOS>MOLECULE
HEY
   43    43     1     0     0
SMALL
bcc


@<TRIPOS>ATOM
      1 N1          0.6260    0.5800    0.0870 nb        1 HEY     -0.703000
      2 C2          1.8620    0.8470    0.5760 ca        1 HEY      0.324600
      3 C2A         2.9070    1.4200   -0.3240 c3        1 HEY     -0.116400
      4 C3          2.1960    0.6210    1.9390 ca        1 HEY      0.018800
      5 O3          3.4740    0.9680    2.3160 oh        1 HEY     -0.570100
      6 C4          1.2310    0.1190    2.8390 ca        1 HEY     -0.090300
      7 C4A         1.4480   -0.0770    4.3100 c3        1 HEY      0.104100
      8 C5         -0.0190   -0.2360    2.3020 ca        1 HEY     -0.124600
      9 C6         -0.2620    0.0460    0.9370 ca        1 HEY      0.361200
     10 C5A        -1.1260   -0.9470    3.0560 c3        1 HEY      0.266700
     11 OP4        -2.2760   -0.2080    3.1020 os        1 HEY     -0.557200
     12 P          -2.7750    0.2050    4.7250 p5        1 HEY      1.327900
     13 OP1        -3.3530   -1.0980    5.2000 o         1 HEY     -0.928500
     14 OP2        -3.7470    1.3250    4.5010 o         1 HEY     -0.928500
     15 OP3        -1.4210    0.5570    5.3050 o         1 HEY     -0.928500
     16 N4A         2.4880    0.7880    4.9510 ny        1 HEY     -0.597800
     17 CAI         3.7090    0.1320    5.4240 ce        1 HEY     -0.246200
     18 CBC         4.0430   -1.2680    4.9130 c         1 HEY      0.931800
     19 O2B         4.4020   -2.1420    5.7450 o         1 HEY     -0.834300
     20 O3B         3.9900   -1.4820    3.6620 o         1 HEY     -0.834300
     21 CBI         4.5820    0.7600    6.2490 c2        1 HEY     -0.034200
     22 CGI         4.5710    2.1480    6.7540 c3        1 HEY     -0.068200
     23 CEI         5.2750    2.3290    8.0620 c3        1 HEY     -0.283600
     24 PG          6.4400    3.7210    8.0080 p5        1 HEY      1.213700
     25 OG1         6.4680    4.1780    6.5610 o         1 HEY     -0.956833
     26 OG2         5.8490    4.7320    8.9680 o         1 HEY     -0.956833
     27 OG3         7.7410    3.1100    8.4870 o         1 HEY     -0.956833
     28 H2A1        2.7160    1.1820   -1.3980 hc        1 HEY      0.028033
     29 H2A2        3.9080    1.0150   -0.0320 hc        1 HEY      0.028033
     30 H2A3        2.9320    2.5310   -0.2030 hc        1 HEY      0.028033
     31 HO3         3.8840    0.1730    2.7290 ho        1 HEY      0.483000
     32 H4A1        0.4430    0.1610    4.8440 hx        1 HEY      0.172200
     33 H4A2        1.7130   -1.1580    4.4940 hx        1 HEY      0.172200
     34 H6         -1.2700   -0.1600    0.5320 h4        1 HEY      0.020100
     35 H5A1       -1.3090   -1.9010    2.4620 h1        1 HEY      0.001200
     36 H5A2       -0.7810   -1.2430    4.0860 h1        1 HEY      0.001200
     37 H4A         2.0430    1.2380    5.7620 hn        1 HEY      0.438300
     38 HBI         5.4580    0.1550    6.5610 ha        1 HEY      0.158000
     39 HGI1        3.5130    2.5290    6.8110 hc        1 HEY      0.070200
     40 HGI2        5.1260    2.8060    5.9970 hc        1 HEY      0.070200
     41 HEI1        5.8750    1.4370    8.3420 hc        1 HEY      0.030200
     42 HEI2        4.5520    2.5350    8.8800 hc        1 HEY      0.030200
     43 H4A3        2.7650    1.5310    4.2960 hn        1 HEY      0.438300
@<TRIPOS>BOND
     1    1    2 ar  
     2    1    9 ar  
     3    2    3 1   
     4    2    4 ar  
     5    3   28 1   
     6    3   29 1   
     7    3   30 1   
     8    4    5 1   
     9    4    6 ar  
    10    5   31 1   
    11    6    7 1   
    12    6    8 ar  
    13    7   16 1   
    14    7   32 1   
    15    7   33 1   
    16    8    9 ar  
    17    8   10 1   
    18    9   34 1   
    19   10   11 1   
    20   10   35 1   
    21   10   36 1   
    22   11   12 1   
    23   12   13 1   
    24   12   14 1   
    25   12   15 1   
    26   16   17 1   
    27   16   37 1   
    28   16   43 1   
    29   17   18 1   
    30   17   21 2   
    31   18   19 1   
    32   18   20 1   
    33   21   22 1   
    34   21   38 1   
    35   22   23 1   
    36   22   39 1   
    37   22   40 1   
    38   23   24 1   
    39   23   41 1   
    40   23   42 1   
    41   24   25 1   
    42   24   26 1   
    43   24   27 1   
@<TRIPOS>SUBSTRUCTURE
     1 HEY         1 TEMP              0 ****  ****    0 ROOT
