@<TRIPOS>MOLECULE
HEY
   43    43     1     0     0
SMALL
bcc


@<TRIPOS>ATOM
      1 N1          0.6340    0.5520    0.0860 nb        1 HEY     -0.703000
      2 C2          1.8720    0.8080    0.5740 ca        1 HEY      0.324600
      3 C2A         2.9280    1.3540   -0.3290 c3        1 HEY     -0.116400
      4 C3          2.2000    0.5940    1.9410 ca        1 HEY      0.018800
      5 O3          3.4810    0.9260    2.3170 oh        1 HEY     -0.570100
      6 C4          1.2250    0.1170    2.8440 ca        1 HEY     -0.090300
      7 C4A         1.4360   -0.0640    4.3180 c3        1 HEY      0.104100
      8 C5         -0.0290   -0.2260    2.3080 ca        1 HEY     -0.124600
      9 C6         -0.2640    0.0420    0.9390 ca        1 HEY      0.361200
     10 C5A        -1.1480   -0.9120    3.0680 c3        1 HEY      0.266700
     11 OP4        -2.2870   -0.1550    3.1020 os        1 HEY     -0.557200
     12 P          -2.7840    0.2840    4.7190 p5        1 HEY      1.327900
     13 OP1        -3.3810   -1.0040    5.2080 o         1 HEY     -0.928500
     14 OP2        -3.7390    1.4160    4.4780 o         1 HEY     -0.928500
     15 OP3        -1.4270    0.6250    5.2980 o         1 HEY     -0.928500
     16 N4A         2.4860    0.7940    4.9510 n4        1 HEY     -0.597800
     17 CAI         3.6970    0.1260    5.4360 ce        1 HEY     -0.246200
     18 CBC         4.0110   -1.2850    4.9440 c         1 HEY      0.931800
     19 O2B         4.3550   -2.1530    5.7870 o         1 HEY     -0.834300
     20 O3B         3.9580   -1.5140    3.6950 o         1 HEY     -0.834300
     21 CBI         4.5760    0.7520    6.2550 c2        1 HEY     -0.034200
     22 CGI         4.5850    2.1470    6.7420 c3        1 HEY     -0.068200
     23 CEI         5.2870    2.3340    8.0500 c3        1 HEY     -0.283600
     24 PG          6.4730    3.7080    7.9820 p5        1 HEY      1.213700
     25 OG1         6.5110    4.1460    6.5290 o         1 HEY     -0.956500
     26 OG2         5.8940    4.7390    8.9270 o         1 HEY     -0.956500
     27 OG3         7.7630    3.0840    8.4720 o         1 HEY     -0.956500
     28 H2A1        2.7350    1.1060   -1.4010 hc        1 HEY      0.028033
     29 H2A2        2.9690    2.4670   -0.2220 hc        1 HEY      0.028033
     30 H2A3        3.9220    0.9390   -0.0290 hc        1 HEY      0.028033
     31 HO3         3.8790    0.1310    2.7410 ho        1 HEY      0.483000
     32 H4A1        0.4320    0.1960    4.8470 hx        1 HEY      0.172200
     33 H4A2        1.6850   -1.1460    4.5170 hx        1 HEY      0.172200
     34 H6         -1.2740   -0.1550    0.5350 h4        1 HEY      0.020100
     35 H5A1       -1.3430   -1.8700    2.4860 h1        1 HEY      0.001200
     36 H5A2       -0.8100   -1.2000    4.1030 h1        1 HEY      0.001200
     37 H4A         2.0460    1.2600    5.7560 hn        1 HEY      0.438300
     38 HBI         5.4420    0.1390    6.5770 ha        1 HEY      0.158000
     39 HGI1        5.1510    2.7870    5.9790 hc        1 HEY      0.070200
     40 HGI2        3.5320    2.5440    6.7920 hc        1 HEY      0.070200
     41 HEI1        4.5660    2.5610    8.8630 hc        1 HEY      0.030200
     42 HEI2        5.8730    1.4360    8.3430 hc        1 HEY      0.030200
     43 H4A3        2.7760    1.5250    4.2880 hn        1 HEY      0.438300
@<TRIPOS>BOND
     1    1    2 ar  
     2    1    9 ar  
     3    2    3 1   
     4    2    4 ar  
     5    3   28 1   
     6    3   29 1   
     7    3   30 1   
     8    4    5 1   
     9    4    6 ar  
    10    5   31 1   
    11    6    7 1   
    12    6    8 ar  
    13    7   16 1   
    14    7   32 1   
    15    7   33 1   
    16    8    9 ar  
    17    8   10 1   
    18    9   34 1   
    19   10   11 1   
    20   10   35 1   
    21   10   36 1   
    22   11   12 1   
    23   12   13 1   
    24   12   14 1   
    25   12   15 1   
    26   16   17 1   
    27   16   37 1   
    28   16   43 1   
    29   17   18 1   
    30   17   21 2   
    31   18   19 1   
    32   18   20 1   
    33   21   22 1   
    34   21   38 1   
    35   22   23 1   
    36   22   39 1   
    37   22   40 1   
    38   23   24 1   
    39   23   41 1   
    40   23   42 1   
    41   24   25 1   
    42   24   26 1   
    43   24   27 1   
@<TRIPOS>SUBSTRUCTURE
     1 HEY         1 TEMP              0 ****  ****    0 ROOT
