@<TRIPOS>MOLECULE
HEY
   42    42     1     0     0
SMALL
bcc


@<TRIPOS>ATOM
      1 N1         27.5930   23.2380   42.2200 nb        1 HEY     -0.696000
      2 C2         28.5500   22.4580   42.7910 ca        1 HEY      0.259600
      3 C2A        29.7020   23.0890   43.4980 c3        1 HEY     -0.095400
      4 C3         28.5000   21.0400   42.7360 ca        1 HEY      0.059800
      5 O3         29.5700   20.4120   43.3090 oh        1 HEY     -0.549100
      6 C4         27.4040   20.3920   42.1040 ca        1 HEY     -0.142300
      7 C4A        27.3950   18.8820   42.0370 c3        1 HEY      0.219100
      8 C5         26.4280   21.2070   41.5170 ca        1 HEY     -0.154600
      9 C6         26.5880   22.6230   41.5970 ca        1 HEY      0.341200
     10 C5A        25.2140   20.7360   40.7450 c3        1 HEY      0.246700
     11 OP4        24.1370   21.5860   40.8610 os        1 HEY     -0.577200
     12 P          23.6540   22.4940   39.4760 p5        1 HEY      1.320900
     13 OP1        24.0660   21.6310   38.3100 o         1 HEY     -0.938167
     14 OP2        24.4490   23.7670   39.6450 o         1 HEY     -0.938167
     15 OP3        22.1660   22.6450   39.6670 o         1 HEY     -0.938167
     16 N4A        27.4740   18.2440   43.3380 nh        1 HEY     -0.734000
     17 CAI        28.1740   17.0050   43.4640 ce        1 HEY     -0.041200
     18 CBC        29.3900   16.8420   42.5550 c         1 HEY      0.925800
     19 O2B        29.4160   15.9150   41.6970 o         1 HEY     -0.863800
     20 O3B        30.3360   17.6920   42.6420 o         1 HEY     -0.863800
     21 CBI        27.8170   16.1090   44.4180 c2        1 HEY     -0.195200
     22 CGI        28.4850   14.8330   44.8020 c3        1 HEY      0.001800
     23 CEI        28.6480   14.6560   46.2860 c3        1 HEY     -0.277600
     24 PG         28.4480   12.9810   46.8780 p5        1 HEY      1.223700
     25 OG1        29.8550   12.4260   47.0330 o         1 HEY     -0.977833
     26 OG2        27.7630   13.1680   48.2270 o         1 HEY     -0.977833
     27 OG3        27.5960   12.2070   45.8900 o         1 HEY     -0.977833
     28 H2A1       29.6920   22.7790   44.5730 hc        1 HEY      0.010367
     29 H2A2       30.6580   22.7230   43.0470 hc        1 HEY      0.010367
     30 H2A3       29.6810   24.2040   43.4440 hc        1 HEY      0.010367
     31 HO3        29.5320   19.4400   43.1570 ho        1 HEY      0.500000
     32 H4A1       26.4770   18.5500   41.4700 h1        1 HEY      0.049700
     33 H4A2       28.2930   18.5740   41.4200 h1        1 HEY      0.049700
     34 H6         25.8080   23.2550   41.0760 h4        1 HEY      0.118100
     35 H5A1       25.5110   20.6280   39.6580 h1        1 HEY      0.018700
     36 H5A2       24.9110   19.7230   41.1430 h1        1 HEY      0.018700
     37 H4A        26.5730   18.2100   43.7710 hn        1 HEY      0.352800
     38 HBI        26.9190   16.3130   45.0340 ha        1 HEY      0.073000
     39 HGI1       27.8530   13.9710   44.4370 hc        1 HEY      0.049200
     40 HGI2       29.4750   14.7720   44.2710 hc        1 HEY      0.049200
     41 HEI1       29.6560   15.0030   46.6060 hc        1 HEY      0.013700
     42 HEI2       27.8970   15.2690   46.8370 hc        1 HEY      0.013700
@<TRIPOS>BOND
     1    1    2 ar  
     2    1    9 ar  
     3    2    3 1   
     4    2    4 ar  
     5    3   28 1   
     6    3   29 1   
     7    3   30 1   
     8    4    5 1   
     9    4    6 ar  
    10    5   31 1   
    11    6    7 1   
    12    6    8 ar  
    13    7   16 1   
    14    7   32 1   
    15    7   33 1   
    16    8    9 ar  
    17    8   10 1   
    18    9   34 1   
    19   10   11 1   
    20   10   35 1   
    21   10   36 1   
    22   11   12 1   
    23   12   13 1   
    24   12   14 1   
    25   12   15 1   
    26   16   17 1   
    27   16   37 1   
    28   17   18 1   
    29   17   21 2   
    30   18   19 1   
    31   18   20 1   
    32   21   22 1   
    33   21   38 1   
    34   22   23 1   
    35   22   39 1   
    36   22   40 1   
    37   23   24 1   
    38   23   41 1   
    39   23   42 1   
    40   24   25 1   
    41   24   26 1   
    42   24   27 1   
@<TRIPOS>SUBSTRUCTURE
     1 HEY         1 TEMP              0 ****  ****    0 ROOT
