@<TRIPOS>MOLECULE
HEY
   42    38     1     0     0
SMALL
bcc


@<TRIPOS>ATOM
      1 N1         -2.6290   -0.2400   -3.1530 n1        1 HEY     -0.179000
      2 C2         -1.2650   -0.3220   -3.1450 c1        1 HEY     -0.143000
      3 C2A        -0.5010   -0.3400   -4.4540 c3        1 HEY     -0.126000
      4 C3         -0.5840   -0.4450   -1.9430 c1        1 HEY      0.063000
      5 O3          0.8110   -0.6140   -1.9400 o         1 HEY     -0.306000
      6 C4         -1.2780   -0.4850   -0.7670 c2        1 HEY     -0.145000
      7 C4A        -0.5320   -0.6870    0.5560 c3        1 HEY     -0.032000
      8 C5         -2.6410   -0.4030   -0.7770 c1        1 HEY     -0.057000
      9 C6         -3.3200   -0.2800   -1.9840 c1        1 HEY     -0.111000
     10 C5A        -3.4120   -0.5560    0.5090 c3        1 HEY      0.085000
     11 OP4        -4.7680   -0.8160    0.2150 os        1 HEY     -0.745000
     12 P          -5.6140   -1.6460    1.2500 p5        1 HEY      1.557500
     13 OP1        -7.0690   -1.2760    1.1210 o         1 HEY     -0.940500
     14 OP2        -5.1380   -1.3390    2.6520 o         1 HEY     -0.940500
     15 OP3        -5.4430   -3.1190    0.9740 o         1 HEY     -0.940500
     16 N4A         0.8060   -0.1490    0.4430 n3        1 HEY     -0.271000
     17 CAI         1.9030   -0.8060    1.1030 c2        1 HEY     -0.117000
     18 CBC         1.8600   -2.3070    1.3350 c2        1 HEY      0.359000
     19 O2B         1.5700   -2.7610    2.4730 o         1 HEY     -0.605500
     20 O3B         2.1270   -3.0990    0.3910 o         1 HEY     -0.605500
     21 CBI         2.9940   -0.0730    1.5260 c1        1 HEY     -0.197000
     22 CGI         3.0390    1.4400    1.2930 c2        1 HEY     -0.051000
     23 CEI         4.3850    1.9920    1.7860 c3        1 HEY     -0.741000
     24 PG          4.3200    3.8250    1.8180 p5        1 HEY      1.620500
     25 OG1         4.1010    4.3460    0.4190 o         1 HEY     -0.964167
     26 OG2         3.1820    4.2730    2.7050 o         1 HEY     -0.964167
     27 OG3         5.6280    4.3680    2.3600 o         1 HEY     -0.964167
     28 H2A1        0.0660    0.4520   -4.5110 hc        1 HEY      0.055667
     29 H2A2       -1.1390   -0.3440   -5.2070 hc        1 HEY      0.055667
     30 H2A3        0.0570   -1.1430   -4.4940 hc        1 HEY      0.055667
     31 HO3         1.0360   -1.2330   -2.5370 ho        1 HEY      0.289000
     32 H4A1       -1.0100   -0.2240    1.2750 h1        1 HEY      0.105500
     33 H4A2       -0.4830   -1.6450    0.7610 h1        1 HEY      0.105500
     34 H6         -4.2890   -0.2220   -1.9910 ha        1 HEY      0.200000
     35 H5A1       -3.3440    0.2700    1.0310 h1        1 HEY      0.067500
     36 H5A2       -3.0410   -1.3010    1.0260 h1        1 HEY      0.067500
     37 H4A         0.9620    0.5790   -0.0890 hn        1 HEY      0.167000
     38 HBI         3.7370   -0.5190    1.9730 ha        1 HEY      0.111000
     39 HGI1        2.3120    1.8660    1.7860 ha        1 HEY      0.053000
     40 HGI2        2.9400    1.6250    0.3410 ha        1 HEY      0.053000
     41 HEI1        5.0990    1.7010    1.1800 hc        1 HEY      0.037500
     42 HEI2        4.5650    1.6560    2.6890 hc        1 HEY      0.037500
@<TRIPOS>BOND
     1    1    9 1   
     2    2    3 1   
     3    2    4 1   
     4    3   28 1   
     5    3   29 1   
     6    3   30 1   
     7    4    6 1   
     8    5   31 1   
     9    6    7 1   
    10    6    8 1   
    11    7   16 1   
    12    7   32 1   
    13    7   33 1   
    14    8   10 1   
    15    9   34 1   
    16   10   11 1   
    17   10   35 1   
    18   10   36 1   
    19   11   12 1   
    20   12   13 1   
    21   12   14 1   
    22   12   15 1   
    23   16   17 1   
    24   16   37 1   
    25   17   18 1   
    26   17   21 1   
    27   18   19 1   
    28   18   20 1   
    29   21   38 1   
    30   22   23 1   
    31   22   39 1   
    32   22   40 1   
    33   23   24 1   
    34   23   41 1   
    35   23   42 1   
    36   24   25 1   
    37   24   26 1   
    38   24   27 1   
@<TRIPOS>SUBSTRUCTURE
     1 HEY         1 TEMP              0 ****  ****    0 ROOT
