@<TRIPOS>MOLECULE
HEZ
   22    21     1     0     0
SMALL
bcc


@<TRIPOS>ATOM
      1 O1          0.0230   -0.0000    0.0610 oh        1 HEZ     -0.601800
      2 C1          1.4400   -0.0000   -0.0030 c3        1 HEZ      0.132400
      3 C2          1.9520   -0.0000    1.4270 c3        1 HEZ     -0.084400
      4 C3          3.4640   -0.0000    1.4510 c3        1 HEZ     -0.078400
      5 C4          3.9860    0.0000    2.8720 c3        1 HEZ     -0.078400
      6 C5          5.4980    0.0000    2.8960 c3        1 HEZ     -0.084400
      7 C6          6.0090    0.0000    4.3260 c3        1 HEZ      0.132400
      8 O6          7.4260    0.0000    4.2620 oh        1 HEZ     -0.601800
      9 HO1        -0.2940    0.0000   -0.8490 ho        1 HEZ      0.399000
     10 H11         1.7980    0.9130   -0.5510 h1        1 HEZ      0.020700
     11 H12         1.7980   -0.9130   -0.5510 h1        1 HEZ      0.020700
     12 H21         1.5540   -0.9020    1.9610 hc        1 HEZ      0.054700
     13 H22         1.5540    0.9020    1.9610 hc        1 HEZ      0.054700
     14 H31         3.8510   -0.9030    0.9090 hc        1 HEZ      0.041700
     15 H32         3.8510    0.9030    0.9090 hc        1 HEZ      0.041700
     16 H41         3.5980    0.9030    3.4140 hc        1 HEZ      0.041700
     17 H42         3.5980   -0.9030    3.4140 hc        1 HEZ      0.041700
     18 H51         5.8950    0.9020    2.3620 hc        1 HEZ      0.054700
     19 H52         5.8950   -0.9020    2.3620 hc        1 HEZ      0.054700
     20 H61         5.6510    0.9130    4.8740 h1        1 HEZ      0.020700
     21 H62         5.6510   -0.9130    4.8740 h1        1 HEZ      0.020700
     22 HO6         7.7430   -0.0000    5.1720 ho        1 HEZ      0.399000
@<TRIPOS>BOND
     1    1    2 1   
     2    1    9 1   
     3    2    3 1   
     4    2   10 1   
     5    2   11 1   
     6    3    4 1   
     7    3   12 1   
     8    3   13 1   
     9    4    5 1   
    10    4   14 1   
    11    4   15 1   
    12    5    6 1   
    13    5   16 1   
    14    5   17 1   
    15    6    7 1   
    16    6   18 1   
    17    6   19 1   
    18    7    8 1   
    19    7   20 1   
    20    7   21 1   
    21    8   22 1   
@<TRIPOS>SUBSTRUCTURE
     1 HEZ         1 TEMP              0 ****  ****    0 ROOT
