@<TRIPOS>MOLECULE
HEZ
   22    21     1     0     0
SMALL
bcc


@<TRIPOS>ATOM
      1 O1         -3.6800    0.0010   -2.1400 oh        1 HEZ     -0.601800
      2 C1         -2.2690    0.0010   -2.1400 c3        1 HEZ      0.132400
      3 C2         -1.7650    0.0010   -0.7130 c3        1 HEZ     -0.084400
      4 C3         -0.2520   -0.0010   -0.7130 c3        1 HEZ     -0.078400
      5 C4          0.2520    0.0010    0.7130 c3        1 HEZ     -0.078400
      6 C5          1.7650   -0.0030    0.7130 c3        1 HEZ     -0.084400
      7 C6          2.2690    0.0010    2.1400 c3        1 HEZ      0.132400
      8 O6          3.6800   -0.0050    2.1400 oh        1 HEZ     -0.601800
      9 HO1        -3.9760    0.0010   -2.9760 ho        1 HEZ      0.399000
     10 H11        -1.9440   -0.7960   -2.6000 h1        1 HEZ      0.020700
     11 H12        -1.9440    0.7980   -2.6000 h1        1 HEZ      0.020700
     12 H21        -2.0890    0.7990   -0.2530 hc        1 HEZ      0.054700
     13 H22        -2.0910   -0.7950   -0.2530 hc        1 HEZ      0.054700
     14 H31         0.0740    0.7950   -1.1750 hc        1 HEZ      0.041700
     15 H32         0.0720   -0.7990   -1.1720 hc        1 HEZ      0.041700
     16 H41        -0.0710    0.8000    1.1710 hc        1 HEZ      0.041700
     17 H42        -0.0760   -0.7940    1.1750 hc        1 HEZ      0.041700
     18 H51         2.0930    0.7910    0.2500 hc        1 HEZ      0.054700
     19 H52         2.0880   -0.8030    0.2560 hc        1 HEZ      0.054700
     20 H61         1.9410   -0.7920    2.6030 h1        1 HEZ      0.020700
     21 H62         1.9470    0.8020    2.5960 h1        1 HEZ      0.020700
     22 HO6         3.9760   -0.0020    2.9760 ho        1 HEZ      0.399000
@<TRIPOS>BOND
     1    1    2 1   
     2    1    9 1   
     3    2    3 1   
     4    2   10 1   
     5    2   11 1   
     6    3    4 1   
     7    3   12 1   
     8    3   13 1   
     9    4    5 1   
    10    4   14 1   
    11    4   15 1   
    12    5    6 1   
    13    5   16 1   
    14    5   17 1   
    15    6    7 1   
    16    6   18 1   
    17    6   19 1   
    18    7    8 1   
    19    7   20 1   
    20    7   21 1   
    21    8   22 1   
@<TRIPOS>SUBSTRUCTURE
     1 HEZ         1 TEMP              0 ****  ****    0 ROOT
