@<TRIPOS>MOLECULE
HEZ
   22    21     1     0     0
SMALL
bcc


@<TRIPOS>ATOM
      1 O1         -0.3110    0.0000    4.2450 oh        1 HEZ     -0.601800
      2 C1          0.5300   -0.0000    3.1020 c3        1 HEZ      0.132400
      3 C2         -0.3750   -0.0000    1.8820 c3        1 HEZ     -0.084400
      4 C3          0.4460   -0.0000    0.6120 c3        1 HEZ     -0.078400
      5 C4         -0.4460    0.0000   -0.6120 c3        1 HEZ     -0.078400
      6 C5          0.3750    0.0000   -1.8820 c3        1 HEZ     -0.084400
      7 C6         -0.5300    0.0000   -3.1020 c3        1 HEZ      0.132400
      8 O6          0.3110    0.0000   -4.2450 oh        1 HEZ     -0.601800
      9 HO1         0.2690   -0.0000    5.0140 ho        1 HEZ      0.399000
     10 H11         1.1850    0.9130    3.1090 h1        1 HEZ      0.020700
     11 H12         1.1850   -0.9130    3.1090 h1        1 HEZ      0.020700
     12 H21        -1.0390   -0.9020    1.9160 hc        1 HEZ      0.054700
     13 H22        -1.0390    0.9020    1.9160 hc        1 HEZ      0.054700
     14 H31         1.1120    0.9030    0.5910 hc        1 HEZ      0.041700
     15 H32         1.1120   -0.9030    0.5910 hc        1 HEZ      0.041700
     16 H41        -1.1120   -0.9030   -0.5910 hc        1 HEZ      0.041700
     17 H42        -1.1120    0.9030   -0.5910 hc        1 HEZ      0.041700
     18 H51         1.0390    0.9020   -1.9160 hc        1 HEZ      0.054700
     19 H52         1.0390   -0.9020   -1.9160 hc        1 HEZ      0.054700
     20 H61        -1.1850   -0.9130   -3.1090 h1        1 HEZ      0.020700
     21 H62        -1.1850    0.9130   -3.1090 h1        1 HEZ      0.020700
     22 HO6        -0.2690   -0.0000   -5.0140 ho        1 HEZ      0.399000
@<TRIPOS>BOND
     1    1    2 1   
     2    1    9 1   
     3    2    3 1   
     4    2   10 1   
     5    2   11 1   
     6    3    4 1   
     7    3   12 1   
     8    3   13 1   
     9    4    5 1   
    10    4   14 1   
    11    4   15 1   
    12    5    6 1   
    13    5   16 1   
    14    5   17 1   
    15    6    7 1   
    16    6   18 1   
    17    6   19 1   
    18    7    8 1   
    19    7   20 1   
    20    7   21 1   
    21    8   22 1   
@<TRIPOS>SUBSTRUCTURE
     1 HEZ         1 TEMP              0 ****  ****    0 ROOT
