@<TRIPOS>MOLECULE
HF1
   27    22     1     0     0
SMALL
bcc


@<TRIPOS>ATOM
      1 P1          1.8910   -2.8090   -3.7370 p3        1 HF1      2.591000
      2 O3          2.6640   -3.4740   -4.8520 o         1 HF1     -1.263000
      3 O1          1.4550   -3.8520   -2.7360 os        1 HF1     -1.247000
      4 O2          0.6750   -2.1210   -4.3090 o         1 HF1     -1.263000
      5 C2          2.4290   -0.7640   -1.9790 c1        1 HF1     -0.216000
      6 C3          0.6880   -0.0180   -0.3920 c3        1 HF1     -0.171000
      7 C9         -1.1200    2.4280    1.4470 c1        1 HF1     -0.160000
      8 C8         -1.4020    1.0800    1.2850 c1        1 HF1     -0.237000
      9 C7         -2.0220    0.3750    2.3030 c1        1 HF1      0.054000
     10 OH         -2.2750   -1.0020    2.1530 oh        1 HF1     -0.273000
     11 C6         -2.3600    1.0170    3.4850 c1        1 HF1     -0.138000
     12 C5         -2.0770    2.3640    3.6470 c1        1 HF1     -0.185000
     13 C10        -1.4570    3.0690    2.6280 c1        1 HF1      0.064000
     14 F          -1.2090    4.3780    2.7740 f         1 HF1     -0.126000
     15 S1         -1.0540    0.2820   -0.2610 ss        1 HF1      0.112000
     16 C4          0.9630   -0.8640   -1.6150 c2        1 HF1     -0.210000
     17 C1          2.9490   -1.5840   -2.9130 c2        1 HF1     -0.612000
     18 H2          2.9980   -0.1050   -1.5360 ha        1 HF1      0.022000
     19 H31         1.1600    0.8350   -0.4720 h1        1 HF1      0.100000
     20 H32         0.9980   -0.4890    0.4070 h1        1 HF1      0.100000
     21 H9         -0.6830    2.9250    0.7290 ha        1 HF1      0.165000
     22 HO7        -3.1510   -1.1490    2.1990 ho        1 HF1      0.239000
     23 H6         -2.7960    0.5200    4.2020 ha        1 HF1      0.131000
     24 H5         -2.3160    2.8160    4.4790 ha        1 HF1      0.126000
     25 H41         0.7370   -1.7970   -1.4240 ha        1 HF1      0.159000
     26 H42         0.4190   -0.5430   -2.3630 ha        1 HF1      0.159000
     27 H1          3.8950   -1.5190   -3.1480 ha        1 HF1      0.080000
@<TRIPOS>BOND
     1    1    2 1   
     2    1    4 1   
     3    1   17 1   
     4    5   17 1   
     5    5   18 1   
     6    6   15 1   
     7    6   16 1   
     8    6   19 1   
     9    6   20 1   
    10    7    8 1   
    11    7   21 1   
    12    8   15 1   
    13    9   10 1   
    14    9   11 1   
    15   10   22 1   
    16   11   23 1   
    17   12   13 1   
    18   12   24 1   
    19   13   14 1   
    20   16   25 1   
    21   16   26 1   
    22   17   27 1   
@<TRIPOS>SUBSTRUCTURE
     1 HF1         1 TEMP              0 ****  ****    0 ROOT
