@<TRIPOS>MOLECULE
HF1
   27    27     1     0     0
SMALL
bcc


@<TRIPOS>ATOM
      1 P1          0.2600    0.3060   -0.3260 p5        1 HF1      1.217100
      2 O3          0.7630    0.1900    1.0920 o         1 HF1     -0.938167
      3 O1         -0.5620   -0.8540   -0.8290 o         1 HF1     -0.938167
      4 O2          1.2980    0.8200   -1.3170 o         1 HF1     -0.938167
      5 C2         -0.9940    2.8240   -0.7380 c2        1 HF1     -0.220200
      6 C3          0.7600    4.5570   -1.1200 c3        1 HF1      0.089700
      7 C9          1.7320    7.4160   -0.4220 ca        1 HF1     -0.160000
      8 C8          0.4910    7.3880   -1.0660 ca        1 HF1     -0.010100
      9 C7         -0.1910    8.6190   -1.2370 ca        1 HF1      0.099100
     10 OH         -1.4230    8.7140   -1.8480 oh        1 HF1     -0.519100
     11 C6          0.3590    9.8280   -0.7980 ca        1 HF1     -0.138000
     12 C5          1.6000    9.8420   -0.1720 ca        1 HF1     -0.185000
     13 C10         2.2840    8.6300    0.0190 ca        1 HF1      0.098900
     14 F           3.4940    8.6350    0.6360 f         1 HF1     -0.160900
     15 S1         -0.2180    5.9770   -1.6520 ss        1 HF1     -0.297000
     16 C4          0.0290    3.3720   -1.6650 c3        1 HF1     -0.127200
     17 C1         -0.9510    1.6130   -0.1950 c2        1 HF1     -0.196600
     18 H2         -1.8280    3.5240   -0.5370 ha        1 HF1      0.022000
     19 H31         0.8330    4.5250   -0.0090 h1        1 HF1      0.060700
     20 H32         1.7790    4.6540   -1.5600 h1        1 HF1      0.060700
     21 HO7        -1.7610    7.8110   -1.9760 ho        1 HF1      0.440000
     22 H6         -0.2010   10.7610   -0.9530 ha        1 HF1      0.131000
     23 H5          2.0430   10.7840    0.1760 ha        1 HF1      0.126000
     24 H41        -0.4220    3.6140   -2.6630 hc        1 HF1      0.119700
     25 H42         0.7950    2.4940   -1.8100 hc        1 HF1      0.119700
     26 H1         -1.7740    1.3030    0.4660 ha        1 HF1      0.080000
     27 H9          2.2870    6.4790   -0.2550 ha        1 HF1      0.165000
@<TRIPOS>BOND
     1    1    2 1   
     2    1    3 1   
     3    1    4 1   
     4    1   17 1   
     5    5   16 1   
     6    5   17 2   
     7    5   18 1   
     8    6   15 1   
     9    6   16 1   
    10    6   19 1   
    11    6   20 1   
    12    7    8 ar  
    13    7   13 ar  
    14    7   27 1   
    15    8    9 ar  
    16    8   15 1   
    17    9   10 1   
    18    9   11 ar  
    19   10   21 1   
    20   11   12 ar  
    21   11   22 1   
    22   12   13 ar  
    23   12   23 1   
    24   13   14 1   
    25   16   24 1   
    26   16   25 1   
    27   17   26 1   
@<TRIPOS>SUBSTRUCTURE
     1 HF1         1 TEMP              0 ****  ****    0 ROOT
