@<TRIPOS>MOLECULE
HF1
   27    27     1     0     0
SMALL
bcc


@<TRIPOS>ATOM
      1 P1          0.1980    0.3040   -0.3770 p5        1 HF1      1.217100
      2 O3          0.6700    0.1690    1.0490 o         1 HF1     -0.938167
      3 O1         -0.6260   -0.8420   -0.9090 o         1 HF1     -0.938167
      4 O2          1.2620    0.8160   -1.3420 o         1 HF1     -0.938167
      5 C2         -1.0200    2.8390   -0.7910 c2        1 HF1     -0.220200
      6 C3          0.7600    4.5560   -1.1210 c3        1 HF1      0.089700
      7 C9          1.7480    7.3980   -0.3770 ca        1 HF1     -0.160000
      8 C8          0.5190    7.3890   -1.0440 ca        1 HF1     -0.010100
      9 C7         -0.1480    8.6290   -1.2140 ca        1 HF1      0.099100
     10 OH         -1.3680    8.7420   -1.8470 oh        1 HF1     -0.519100
     11 C6          0.4050    9.8280   -0.7520 ca        1 HF1     -0.138000
     12 C5          1.6350    9.8230   -0.1020 ca        1 HF1     -0.185000
     13 C10         2.3030    8.6020    0.0880 ca        1 HF1      0.098900
     14 F           3.5020    8.5890    0.7270 f         1 HF1     -0.160900
     15 S1         -0.1930    5.9920   -1.6590 ss        1 HF1     -0.297000
     16 C4          0.0280    3.3850   -1.6920 c3        1 HF1     -0.127200
     17 C1         -1.0010    1.6230   -0.2590 c2        1 HF1     -0.196600
     18 H2         -1.8510    3.5470   -0.6020 ha        1 HF1      0.022000
     19 H31         0.8100    4.5130   -0.0100 h1        1 HF1      0.060700
     20 H32         1.7890    4.6470   -1.5400 h1        1 HF1      0.060700
     21 HO7        -1.7130    7.8440   -1.9900 ho        1 HF1      0.440000
     22 H6         -0.1430   10.7670   -0.9070 ha        1 HF1      0.131000
     23 H5          2.0800   10.7560    0.2630 ha        1 HF1      0.126000
     24 H41        -0.4000    3.6400   -2.6970 hc        1 HF1      0.119700
     25 H42         0.7870    2.5000   -1.8290 hc        1 HF1      0.119700
     26 H1         -1.8410    1.3160    0.3820 ha        1 HF1      0.080000
     27 H9          2.2910    6.4540   -0.2100 ha        1 HF1      0.165000
@<TRIPOS>BOND
     1    1    2 1   
     2    1    3 1   
     3    1    4 1   
     4    1   17 1   
     5    5   16 1   
     6    5   17 2   
     7    5   18 1   
     8    6   15 1   
     9    6   16 1   
    10    6   19 1   
    11    6   20 1   
    12    7    8 ar  
    13    7   13 ar  
    14    7   27 1   
    15    8    9 ar  
    16    8   15 1   
    17    9   10 1   
    18    9   11 ar  
    19   10   21 1   
    20   11   12 ar  
    21   11   22 1   
    22   12   13 ar  
    23   12   23 1   
    24   13   14 1   
    25   16   24 1   
    26   16   25 1   
    27   17   26 1   
@<TRIPOS>SUBSTRUCTURE
     1 HF1         1 TEMP              0 ****  ****    0 ROOT
