@<TRIPOS>MOLECULE
HF1
   27    27     1     0     0
SMALL
bcc


@<TRIPOS>ATOM
      1 P1         -0.0690    0.0860   -4.7780 p5        1 HF1      1.204100
      2 O3         -0.6560   -1.2960   -4.5880 o         1 HF1     -0.950500
      3 O1         -1.0780    1.2130   -4.7830 o         1 HF1     -0.950500
      4 O2          1.0140    0.1850   -5.8280 o         1 HF1     -0.950500
      5 C2          0.8100   -0.5160   -2.3250 c2        1 HF1     -0.268200
      6 C3          0.4330   -0.3570    0.0890 c3        1 HF1      0.040700
      7 C9         -1.1310   -0.2270    2.7350 ca        1 HF1     -0.147000
      8 C8          0.2570   -0.1950    2.8940 ca        1 HF1     -0.016100
      9 C7          0.7730    0.0670    4.1850 ca        1 HF1      0.105100
     10 OH          2.1230    0.1310    4.4570 oh        1 HF1     -0.515100
     11 C6         -0.0730    0.2700    5.2820 ca        1 HF1     -0.138000
     12 C5         -1.4520    0.2240    5.1140 ca        1 HF1     -0.173000
     13 C10        -1.9810   -0.0210    3.8350 ca        1 HF1      0.100900
     14 F          -3.3270   -0.0600    3.6650 f         1 HF1     -0.152900
     15 S1          1.3430   -0.4740    1.6290 ss        1 HF1     -0.292000
     16 C4          1.4800   -0.4270   -0.9980 c3        1 HF1     -0.025200
     17 C1          0.8260    0.4140   -3.2640 c2        1 HF1     -0.178600
     18 H2          0.2570   -1.4520   -2.5320 ha        1 HF1      0.159000
     19 H31        -0.2820   -1.2080    0.0040 h1        1 HF1      0.075700
     20 H32        -0.1320    0.6010    0.0380 h1        1 HF1      0.075700
     21 HO7         2.5960    0.1470    3.6070 ho        1 HF1      0.437000
     22 H6          0.3660    0.4670    6.2700 ha        1 HF1      0.135000
     23 H5         -2.1270    0.3800    5.9660 ha        1 HF1      0.131000
     24 H41         2.1400    0.4790   -0.9460 hc        1 HF1      0.020700
     25 H42         2.1290   -1.3310   -0.8340 hc        1 HF1      0.020700
     26 H1          1.3330    1.3760   -3.1810 ha        1 HF1      0.081000
     27 H9         -1.5720   -0.4150    1.7420 ha        1 HF1      0.170000
@<TRIPOS>BOND
     1    1    2 1   
     2    1    3 1   
     3    1    4 1   
     4    1   17 1   
     5    5   16 1   
     6    5   17 2   
     7    5   18 1   
     8    6   15 1   
     9    6   16 1   
    10    6   19 1   
    11    6   20 1   
    12    7    8 ar  
    13    7   13 ar  
    14    7   27 1   
    15    8    9 ar  
    16    8   15 1   
    17    9   10 1   
    18    9   11 ar  
    19   10   21 1   
    20   11   12 ar  
    21   11   22 1   
    22   12   13 ar  
    23   12   23 1   
    24   13   14 1   
    25   16   24 1   
    26   16   25 1   
    27   17   26 1   
@<TRIPOS>SUBSTRUCTURE
     1 HF1         1 TEMP              0 ****  ****    0 ROOT
