@<TRIPOS>MOLECULE
HF2
   21    18     1     0     0
SMALL
bcc


@<TRIPOS>ATOM
      1 C          -3.1540   -0.9280   -0.1830 c1        1 HF2      0.312000
      2 O          -3.3790   -1.6790   -1.1500 o         1 HF2     -0.568500
      3 CA         -1.7800   -0.7830    0.3370 c2        1 HF2     -0.042000
      4 OA         -1.8080   -0.8120    1.7460 oh        1 HF2     -0.371000
      5 CB         -1.1920    0.5710   -0.1440 c3        1 HF2     -0.144000
      6 CG          0.3320    0.4860   -0.1710 c2        1 HF2     -0.025000
      7 CZ          3.1090    0.4270   -0.2640 c1        1 HF2     -0.150000
      8 CD1         0.9680   -0.1440   -1.2110 c2        1 HF2     -0.131000
      9 CD2         1.0850    1.0970    0.8410 c1        1 HF2     -0.134000
     10 CE1         2.3730   -0.1740   -1.2590 c1        1 HF2     -0.138000
     11 CE2         2.4620    1.0670    0.7930 c1        1 HF2     -0.150000
     12 O3         -4.0780   -0.3100    0.3440 o         1 HF2     -0.568500
     13 HA         -1.1990   -1.5550   -0.0080 h4        1 HF2      0.081000
     14 HOA        -1.8000   -1.6420    2.0190 ho        1 HF2      0.223000
     15 HB         -1.5350    0.7760   -1.0550 hc        1 HF2      0.099000
     16 HBA        -1.4460    1.2350    0.4320 hc        1 HF2      0.099000
     17 HZ          4.1370    0.4280   -0.3140 ha        1 HF2      0.110000
     18 HD1         0.4810   -0.5420   -1.8670 ha        1 HF2      0.148000
     19 HD2         0.6300    1.5840    1.5690 ha        1 HF2      0.129000
     20 HE1         2.8040   -0.6000   -1.9620 ha        1 HF2      0.114000
     21 HE2         2.9900    1.4970    1.5050 ha        1 HF2      0.110000
@<TRIPOS>BOND
     1    1    2 1   
     2    1   12 1   
     3    3    4 1   
     4    3    5 1   
     5    3   13 1   
     6    4   14 1   
     7    5    6 1   
     8    5   15 1   
     9    5   16 1   
    10    6    8 1   
    11    6    9 1   
    12    7   11 1   
    13    7   17 1   
    14    8   10 1   
    15    8   18 1   
    16    9   19 1   
    17   10   20 1   
    18   11   21 1   
@<TRIPOS>SUBSTRUCTURE
     1 HF2         1 TEMP              0 ****  ****    0 ROOT
