@<TRIPOS>MOLECULE
HF2
   21    21     1     0     0
SMALL
bcc


@<TRIPOS>ATOM
      1 C          -2.7440    0.0920   -0.2020 c         1 HF2      0.893600
      2 O          -3.6230   -0.6850    0.2720 o         1 HF2     -0.833300
      3 CA         -1.2920   -0.4600   -0.2570 c3        1 HF2      0.016100
      4 OA         -1.2350   -1.8160    0.1540 oh        1 HF2     -0.654800
      5 CB         -0.3890    0.3960    0.6290 c3        1 HF2     -0.057100
      6 CG          1.0590    0.2960    0.3050 ca        1 HF2     -0.041300
      7 CZ          3.8060    0.1180   -0.2450 ca        1 HF2     -0.159000
      8 CD1         1.8440    1.4530    0.2140 ca        1 HF2     -0.132500
      9 CD2         1.6670   -0.9530    0.1100 ca        1 HF2     -0.132500
     10 CE1         3.2080    1.3630   -0.0590 ca        1 HF2     -0.143500
     11 CE2         3.0300   -1.0390   -0.1620 ca        1 HF2     -0.143500
     12 O3         -2.9580    1.2590   -0.6240 o         1 HF2     -0.833300
     13 HA         -0.9250   -0.4370   -1.3180 h1        1 HF2      0.043700
     14 HOA        -2.1010   -2.0340    0.5370 ho        1 HF2      0.427000
     15 HB         -0.7350    1.4610    0.5280 hc        1 HF2      0.061200
     16 HBA        -0.5360    0.0820    1.6980 hc        1 HF2      0.061200
     17 HZ          4.8810    0.0480   -0.4610 ha        1 HF2      0.109000
     18 HD1         1.3750    2.4380    0.3520 ha        1 HF2      0.146500
     19 HD2         1.0430   -1.8600    0.1660 ha        1 HF2      0.146500
     20 HE1         3.8130    2.2790   -0.1300 ha        1 HF2      0.112000
     21 HE2         3.4960   -2.0230   -0.3150 ha        1 HF2      0.112000
@<TRIPOS>BOND
     1    1    2 1   
     2    1    3 1   
     3    1   12 1   
     4    3    4 1   
     5    3    5 1   
     6    3   13 1   
     7    4   14 1   
     8    5    6 1   
     9    5   15 1   
    10    5   16 1   
    11    6    8 ar  
    12    6    9 ar  
    13    7   10 ar  
    14    7   11 ar  
    15    7   17 1   
    16    8   10 ar  
    17    8   18 1   
    18    9   11 ar  
    19    9   19 1   
    20   10   20 1   
    21   11   21 1   
@<TRIPOS>SUBSTRUCTURE
     1 HF2         1 TEMP              0 ****  ****    0 ROOT
