@<TRIPOS>MOLECULE
HFA
   21    19     1     0     0
SMALL
bcc


@<TRIPOS>ATOM
      1 OA         -2.1950   -0.1940    1.2090 oh        1 HFA     -0.382000
      2 CA         -0.8850   -0.3280    1.7100 c3        1 HFA     -0.045000
      3 C          -0.8920   -0.1630    3.2120 c2        1 HFA      0.313000
      4 O          -0.3040   -1.0050    3.9360 o         1 HFA     -0.568000
      5 CB         -0.0090    0.7190    1.0880 c3        1 HFA     -0.143000
      6 CG          0.3370    0.2940   -0.3530 c2        1 HFA     -0.034000
      7 CD1         1.5400   -0.3730   -0.6120 c1        1 HFA     -0.141000
      8 CD2        -0.4830    0.6910   -1.4120 c2        1 HFA     -0.124000
      9 CE1         1.9180   -0.6400   -1.9230 c1        1 HFA     -0.151500
     10 CE2        -0.1010    0.4240   -2.7140 c1        1 HFA     -0.143000
     11 CZ          1.1060   -0.2460   -2.9710 c1        1 HFA     -0.151500
     12 OXT        -1.4860    0.8140    3.7400 o         1 HFA     -0.568000
     13 HOA        -2.6970   -0.8120    1.5480 ho        1 HFA      0.226000
     14 HA         -0.5110   -1.2980    1.4620 h1        1 HFA      0.083000
     15 HB1         0.7730    0.8070    1.5860 hc        1 HFA      0.100500
     16 HB2        -0.4500    1.5170    1.0700 hc        1 HFA      0.100500
     17 HD1         2.0970   -0.6450    0.1100 ha        1 HFA      0.128000
     18 HD2        -1.2600    1.2940   -1.2390 ha        1 HFA      0.165000
     19 HE1         2.7710   -1.1100   -2.1090 ha        1 HFA      0.110000
     20 HE2        -0.6490    0.6890   -3.4230 ha        1 HFA      0.113000
     21 HZ          1.3810   -0.4380   -3.9160 ha        1 HFA      0.110000
@<TRIPOS>BOND
     1    1    2 1   
     2    1   13 1   
     3    2    3 1   
     4    2    5 1   
     5    2   14 1   
     6    3    4 1   
     7    3   12 1   
     8    5    6 1   
     9    5   15 1   
    10    5   16 1   
    11    6    7 1   
    12    6    8 1   
    13    7   17 1   
    14    8   10 1   
    15    8   18 1   
    16    9   11 1   
    17    9   19 1   
    18   10   20 1   
    19   11   21 1   
@<TRIPOS>SUBSTRUCTURE
     1 HFA         1 TEMP              0 ****  ****    0 ROOT
