@<TRIPOS>MOLECULE
HFA
   21    21     1     0     0
SMALL
bcc


@<TRIPOS>ATOM
      1 OA          1.7810   -0.2280    1.2490 oh        1 HFA     -0.654800
      2 CA          0.4470    0.2510    1.2940 c3        1 HFA      0.016100
      3 C          -0.1170    0.2340    2.7430 c         1 HFA      0.893600
      4 O           0.6300   -0.2700    3.6310 o         1 HFA     -0.833300
      5 CB         -0.4450   -0.6000    0.3920 c3        1 HFA     -0.057100
      6 CG         -0.3200   -0.2920   -1.0580 ca        1 HFA     -0.041300
      7 CD1         0.9400   -0.1650   -1.6590 ca        1 HFA     -0.132500
      8 CD2        -1.4660   -0.1500   -1.8520 ca        1 HFA     -0.132500
      9 CE1         1.0490    0.0920   -3.0230 ca        1 HFA     -0.143500
     10 CE2        -1.3540    0.1060   -3.2170 ca        1 HFA     -0.143500
     11 CZ         -0.0980    0.2270   -3.8080 ca        1 HFA     -0.159000
     12 OXT        -1.2630    0.7150    2.9450 o         1 HFA     -0.833300
     13 HOA         1.9740   -0.6130    2.1200 ho        1 HFA      0.427000
     14 HA          0.4790    1.3090    0.9190 h1        1 HFA      0.043700
     15 HB1        -0.1860   -1.6820    0.5490 hc        1 HFA      0.061200
     16 HB2        -1.5060   -0.4440    0.7290 hc        1 HFA      0.061200
     17 HD1         1.8400   -0.2600   -1.0270 ha        1 HFA      0.146500
     18 HD2        -2.4600   -0.2360   -1.3890 ha        1 HFA      0.146500
     19 HE1         2.0420    0.1930   -3.4830 ha        1 HFA      0.112000
     20 HE2        -2.2610    0.2170   -3.8290 ha        1 HFA      0.112000
     21 HZ         -0.0100    0.4290   -4.8830 ha        1 HFA      0.109000
@<TRIPOS>BOND
     1    1    2 1   
     2    1   13 1   
     3    2    3 1   
     4    2    5 1   
     5    2   14 1   
     6    3    4 1   
     7    3   12 1   
     8    5    6 1   
     9    5   15 1   
    10    5   16 1   
    11    6    7 ar  
    12    6    8 ar  
    13    7    9 ar  
    14    7   17 1   
    15    8   10 ar  
    16    8   18 1   
    17    9   11 ar  
    18    9   19 1   
    19   10   11 ar  
    20   10   20 1   
    21   11   21 1   
@<TRIPOS>SUBSTRUCTURE
     1 HFA         1 TEMP              0 ****  ****    0 ROOT
