@<TRIPOS>MOLECULE
HFB
   12    10     1     0     0
SMALL
bcc


@<TRIPOS>ATOM
      1 F6         -2.7250    0.0000   -0.0000 f         1 HFB     -0.121500
      2 C6         -1.3860    0.0000   -0.0000 ce        1 HFB      0.058400
      3 C1         -0.6930    0.0000    1.2000 c1        1 HFB      0.185200
      4 F1         -1.3630   -0.0010    2.3600 f         1 HFB     -0.059000
      5 C5         -0.6930    0.0000   -1.2000 ce        1 HFB      0.058400
      6 F5         -1.3630   -0.0030   -2.3600 f         1 HFB     -0.121500
      7 C4          0.6930    0.0000   -1.2000 c1        1 HFB      0.185200
      8 F4          1.3630    0.0030   -2.3600 f         1 HFB     -0.059000
      9 C3          1.3860    0.0000   -0.0000 ce        1 HFB      0.058400
     10 F3          2.7250   -0.0010    0.0000 f         1 HFB     -0.121500
     11 C2          0.6930    0.0000    1.2000 ce        1 HFB      0.058400
     12 F2          1.3630   -0.0000    2.3600 f         1 HFB     -0.121500
@<TRIPOS>BOND
     1    1    2 1   
     2    2    3 2   
     3    2    5 1   
     4    3   11 2   
     5    5    6 1   
     6    5    7 2   
     7    7    9 2   
     8    9   10 1   
     9    9   11 1   
    10   11   12 1   
@<TRIPOS>SUBSTRUCTURE
     1 HFB         1 TEMP              0 ****  ****    0 ROOT
