@<TRIPOS>MOLECULE
HFG
   41    43     1     0     0
SMALL
bcc


@<TRIPOS>ATOM
      1 O4'         0.8340    1.9800   -0.1700 o         1 HFG     -0.524100
      2 C21         1.4960    0.9610    0.0360 c         1 HFG      0.573100
      3 C3'         2.1220    0.6560    1.3670 c3        1 HFG     -0.177400
      4 C2'         1.0520    0.2630    2.3930 c3        1 HFG      0.176500
      5 N1'         0.2880   -0.9050    1.9780 n3        1 HFG     -0.801200
      6 C6'        -0.6550   -1.3450    2.9860 c3        1 HFG      0.152800
      7 C5'        -0.0600   -1.5560    4.3800 c3        1 HFG     -0.112400
      8 C4'         0.7060   -0.3310    4.8260 c3        1 HFG     -0.114400
      9 C39         1.7340    0.0890    3.7790 c3        1 HFG      0.107100
     10 O7'         2.3140    1.3450    4.0990 oh        1 HFG     -0.598800
     11 C1'         1.8030   -0.0690   -1.0400 c3        1 HFG     -0.019000
     12 N3          0.9260   -0.0960   -2.1850 n         1 HFG     -0.392300
     13 C4          0.3810   -1.3260   -2.6270 c         1 HFG      0.711100
     14 O11         0.6680   -2.3860   -2.0430 o         1 HFG     -0.620500
     15 C10        -0.5070   -1.2520   -3.8060 ca        1 HFG     -0.176600
     16 C5         -1.0910   -2.4200   -4.3090 ca        1 HFG     -0.055000
     17 C2          0.5910    1.0810   -2.8620 cc        1 HFG      0.512800
     18 N1         -0.1830    1.1800   -3.9160 nd        1 HFG     -0.617100
     19 C9         -0.7580    0.0040   -4.4170 ca        1 HFG      0.183400
     20 C8         -1.6090    0.0500   -5.5470 ca        1 HFG     -0.092000
     21 C7         -2.1840   -1.1140   -6.0420 ca        1 HFG      0.008100
     22 BR1        -3.3020   -1.0030   -7.5400 br        1 HFG     -0.053100
     23 C6         -1.9250   -2.3530   -5.4210 ca        1 HFG      0.005400
     24 CL1        -2.6190   -3.7820   -6.0110 cl        1 HFG     -0.060400
     25 H1          2.6350    1.5790    1.7540 hc        1 HFG      0.079700
     26 H2          2.8910   -0.1530    1.2700 hc        1 HFG      0.079700
     27 H3          0.3230    1.1240    2.4790 h1        1 HFG      0.093700
     28 H4          0.9120   -1.6550    1.7370 hn        1 HFG      0.352800
     29 H6         -1.4670   -0.5660    3.0530 h1        1 HFG      0.060700
     30 H7         -1.1220   -2.3040    2.6300 h1        1 HFG      0.060700
     31 H8          0.6190   -2.4480    4.3730 hc        1 HFG      0.049200
     32 H9         -0.8890   -1.7690    5.1030 hc        1 HFG      0.049200
     33 H10         1.2270   -0.5380    5.7970 hc        1 HFG      0.051700
     34 H11        -0.0030    0.5210    4.9980 hc        1 HFG      0.051700
     35 H12         2.5510   -0.6830    3.7100 h1        1 HFG      0.033700
     36 H13         2.5700    1.3080    5.0290 ho        1 HFG      0.406000
     37 H14         1.7800   -1.0940   -0.5600 h1        1 HFG      0.092700
     38 H15         2.8590    0.1320   -1.3910 h1        1 HFG      0.092700
     39 H16        -0.8800   -3.3820   -3.8110 ha        1 HFG      0.176000
     40 H17         1.0190    2.0220   -2.4450 h5        1 HFG      0.079800
     41 H18        -1.8100    1.0230   -6.0280 ha        1 HFG      0.173000
@<TRIPOS>BOND
     1    1    2 2   
     2    2    3 1   
     3    2   11 1   
     4    3    4 1   
     5    3   25 1   
     6    3   26 1   
     7    4    5 1   
     8    4    9 1   
     9    4   27 1   
    10    5    6 1   
    11    5   28 1   
    12    6    7 1   
    13    6   29 1   
    14    6   30 1   
    15    7    8 1   
    16    7   31 1   
    17    7   32 1   
    18    8    9 1   
    19    8   33 1   
    20    8   34 1   
    21    9   10 1   
    22    9   35 1   
    23   10   36 1   
    24   11   12 1   
    25   11   37 1   
    26   11   38 1   
    27   12   13 1   
    28   12   17 1   
    29   13   14 2   
    30   13   15 1   
    31   15   16 ar  
    32   15   19 ar  
    33   16   23 ar  
    34   16   39 1   
    35   17   18 2   
    36   17   40 1   
    37   18   19 1   
    38   19   20 ar  
    39   20   21 ar  
    40   20   41 1   
    41   21   22 1   
    42   21   23 ar  
    43   23   24 1   
@<TRIPOS>SUBSTRUCTURE
     1 HFG         1 TEMP              0 ****  ****    0 ROOT
