@<TRIPOS>MOLECULE
HFG
   41    43     1     0     0
SMALL
bcc


@<TRIPOS>ATOM
      1 O4'         0.8410    1.9910   -0.1830 o         1 HFG     -0.524100
      2 C21         1.5050    0.9730    0.0250 c         1 HFG      0.573100
      3 C3'         2.1310    0.6710    1.3560 c3        1 HFG     -0.177400
      4 C2'         1.0620    0.2750    2.3820 c3        1 HFG      0.176500
      5 N1'         0.3010   -0.8950    1.9650 n3        1 HFG     -0.801200
      6 C6'        -0.6400   -1.3390    2.9730 c3        1 HFG      0.152800
      7 C5'        -0.0450   -1.5500    4.3670 c3        1 HFG     -0.112400
      8 C4'         0.7180   -0.3230    4.8140 c3        1 HFG     -0.114400
      9 C39         1.7440    0.1010    3.7670 c3        1 HFG      0.107100
     10 O7'         2.3210    1.3580    4.0890 oh        1 HFG     -0.598800
     11 C1'         1.8130   -0.0570   -1.0510 c3        1 HFG     -0.019000
     12 N3          0.9290   -0.0940   -2.1900 n         1 HFG     -0.392300
     13 C4          0.3870   -1.3280   -2.6220 c         1 HFG      0.711100
     14 O11         0.6840   -2.3850   -2.0360 o         1 HFG     -0.620500
     15 C10        -0.5100   -1.2640   -3.7960 ca        1 HFG     -0.176600
     16 C5         -1.0920   -2.4370   -4.2890 ca        1 HFG     -0.055000
     17 C2          0.5830    1.0780   -2.8700 cc        1 HFG      0.511800
     18 N1         -0.2000    1.1690   -3.9180 nd        1 HFG     -0.617100
     19 C9         -0.7720   -0.0120   -4.4100 ca        1 HFG      0.183400
     20 C8         -1.6310    0.0240   -5.5340 ca        1 HFG     -0.092000
     21 C7         -2.2040   -1.1450   -6.0200 ca        1 HFG      0.008100
     22 BR1        -3.3330   -1.0460   -7.5100 br        1 HFG     -0.053100
     23 C6         -1.9340   -2.3800   -5.3950 ca        1 HFG      0.005400
     24 CL1        -2.6250   -3.8160   -5.9740 cl        1 HFG     -0.060400
     25 H1          2.6400    1.5970    1.7430 hc        1 HFG      0.079700
     26 H2          2.9030   -0.1350    1.2590 hc        1 HFG      0.079700
     27 H3          0.3300    1.1340    2.4690 h1        1 HFG      0.093700
     28 H4          0.9270   -1.6440    1.7240 hn        1 HFG      0.352800
     29 H6         -1.4540   -0.5620    3.0400 h1        1 HFG      0.060700
     30 H7         -1.1050   -2.2990    2.6160 h1        1 HFG      0.060700
     31 H8          0.6370   -2.4400    4.3590 hc        1 HFG      0.049200
     32 H9         -0.8730   -1.7660    5.0890 hc        1 HFG      0.049200
     33 H10         0.0060    0.5260    4.9870 hc        1 HFG      0.051700
     34 H11         1.2400   -0.5300    5.7840 hc        1 HFG      0.051700
     35 H12         2.5640   -0.6690    3.6980 h1        1 HFG      0.033700
     36 H13         2.5770    1.3210    5.0180 ho        1 HFG      0.406000
     37 H14         1.8020   -1.0810   -0.5690 h1        1 HFG      0.092700
     38 H15         2.8650    0.1520   -1.4100 h1        1 HFG      0.092700
     39 H16        -0.8710   -3.3970   -3.7890 ha        1 HFG      0.176000
     40 H17         1.0090    2.0230   -2.4590 h5        1 HFG      0.079800
     41 H18        -1.8400    0.9940   -6.0170 ha        1 HFG      0.173000
@<TRIPOS>BOND
     1    1    2 2   
     2    2    3 1   
     3    2   11 1   
     4    3    4 1   
     5    3   25 1   
     6    3   26 1   
     7    4    5 1   
     8    4    9 1   
     9    4   27 1   
    10    5    6 1   
    11    5   28 1   
    12    6    7 1   
    13    6   29 1   
    14    6   30 1   
    15    7    8 1   
    16    7   31 1   
    17    7   32 1   
    18    8    9 1   
    19    8   33 1   
    20    8   34 1   
    21    9   10 1   
    22    9   35 1   
    23   10   36 1   
    24   11   12 1   
    25   11   37 1   
    26   11   38 1   
    27   12   13 1   
    28   12   17 1   
    29   13   14 2   
    30   13   15 1   
    31   15   16 ar  
    32   15   19 ar  
    33   16   23 ar  
    34   16   39 1   
    35   17   18 2   
    36   17   40 1   
    37   18   19 1   
    38   19   20 ar  
    39   20   21 ar  
    40   20   41 1   
    41   21   22 1   
    42   21   23 ar  
    43   23   24 1   
@<TRIPOS>SUBSTRUCTURE
     1 HFG         1 TEMP              0 ****  ****    0 ROOT
