@<TRIPOS>MOLECULE
HFG
   41    43     1     0     0
SMALL
bcc


@<TRIPOS>ATOM
      1 O4'         3.0030    2.3030    0.9160 o         1 HFG     -0.524100
      2 C21         3.3100    1.7360   -0.1350 c         1 HFG      0.573100
      3 C3'         4.7320    1.4090   -0.4940 c3        1 HFG     -0.177400
      4 C2'         5.2580    0.2560    0.3710 c3        1 HFG      0.176500
      5 N1'         4.4640   -0.9560    0.2210 n3        1 HFG     -0.801200
      6 C6'         5.0140   -2.0780    0.9540 c3        1 HFG      0.152800
      7 C5'         6.4920   -2.3650    0.6860 c3        1 HFG     -0.112400
      8 C4'         7.3220   -1.1150    0.8720 c3        1 HFG     -0.114400
      9 C39         6.7650    0.0460    0.0530 c3        1 HFG      0.107100
     10 O7'         7.4150    1.2660    0.3760 oh        1 HFG     -0.598800
     11 C1'         2.3000    1.3610   -1.2080 c3        1 HFG     -0.019000
     12 N3          0.9260    1.2280   -0.7910 n         1 HFG     -0.392300
     13 C4          0.1860    0.0770   -1.1530 c         1 HFG      0.711100
     14 O11         0.7100   -0.8140   -1.8470 o         1 HFG     -0.620500
     15 C10        -1.2130    0.0320   -0.6780 ca        1 HFG     -0.176600
     16 C5         -2.0160   -1.0700   -0.9890 ca        1 HFG     -0.055000
     17 C2          0.3120    2.2170   -0.0150 cc        1 HFG      0.511800
     18 N1         -0.9270    2.2140    0.4130 nd        1 HFG     -0.617100
     19 C9         -1.7270    1.1090    0.0900 ca        1 HFG      0.183400
     20 C8         -3.0700    1.0450    0.5320 ca        1 HFG     -0.092000
     21 C7         -3.8620   -0.0510    0.2180 ca        1 HFG      0.008100
     22 BR1        -5.6330   -0.0900    0.8240 br        1 HFG     -0.053100
     23 C6         -3.3340   -1.1130   -0.5450 ca        1 HFG      0.005400
     24 CL1        -4.2870   -2.4590   -0.9370 cl        1 HFG     -0.060400
     25 H1          4.8200    1.1580   -1.5820 hc        1 HFG      0.079700
     26 H2          5.3800    2.3050   -0.2890 hc        1 HFG      0.079700
     27 H3          5.1810    0.5730    1.4540 h1        1 HFG      0.093700
     28 H4          4.3730   -1.1890   -0.7520 hn        1 HFG      0.352800
     29 H6          4.8790   -1.8640    2.0520 h1        1 HFG      0.060700
     30 H7          4.4040   -2.9900    0.7010 h1        1 HFG      0.060700
     31 H8          6.8440   -3.1620    1.3890 hc        1 HFG      0.049200
     32 H9          6.6220   -2.7550   -0.3580 hc        1 HFG      0.049200
     33 H10         7.3310   -0.8210    1.9550 hc        1 HFG      0.051700
     34 H11         8.3830   -1.3100    0.5670 hc        1 HFG      0.051700
     35 H12         6.9000   -0.1600   -1.0470 h1        1 HFG      0.033700
     36 H13         8.3640    1.0900    0.3670 ho        1 HFG      0.406000
     37 H14         2.3660    2.1550   -2.0090 h1        1 HFG      0.092700
     38 H15         2.6220    0.3740   -1.6610 h1        1 HFG      0.092700
     39 H16        -1.5880   -1.8940   -1.5870 ha        1 HFG      0.176000
     40 H17         0.9560    3.0810    0.2720 h5        1 HFG      0.079800
     41 H18        -3.4770    1.8780    1.1310 ha        1 HFG      0.173000
@<TRIPOS>BOND
     1    1    2 2   
     2    2    3 1   
     3    2   11 1   
     4    3    4 1   
     5    3   25 1   
     6    3   26 1   
     7    4    5 1   
     8    4    9 1   
     9    4   27 1   
    10    5    6 1   
    11    5   28 1   
    12    6    7 1   
    13    6   29 1   
    14    6   30 1   
    15    7    8 1   
    16    7   31 1   
    17    7   32 1   
    18    8    9 1   
    19    8   33 1   
    20    8   34 1   
    21    9   10 1   
    22    9   35 1   
    23   10   36 1   
    24   11   12 1   
    25   11   37 1   
    26   11   38 1   
    27   12   13 1   
    28   12   17 1   
    29   13   14 2   
    30   13   15 1   
    31   15   16 ar  
    32   15   19 ar  
    33   16   23 ar  
    34   16   39 1   
    35   17   18 2   
    36   17   40 1   
    37   18   19 1   
    38   19   20 ar  
    39   20   21 ar  
    40   20   41 1   
    41   21   22 1   
    42   21   23 ar  
    43   23   24 1   
@<TRIPOS>SUBSTRUCTURE
     1 HFG         1 TEMP              0 ****  ****    0 ROOT
