@<TRIPOS>MOLECULE
HFG
   41    36     1     0     0
SMALL
bcc


@<TRIPOS>ATOM
      1 O4'        -0.4980   -1.2010    0.1050 o         1 HFG     -0.284000
      2 C21         0.6940   -0.9700    0.1470 c1        1 HFG      0.231000
      3 C3'         1.4240   -0.9050    1.5170 c2        1 HFG     -0.206000
      4 C2'         0.4370   -0.4450    2.6050 c3        1 HFG     -0.026000
      5 N1'        -0.1470   -1.6160    3.2470 n3        1 HFG     -0.284000
      6 C6'        -0.9810   -1.2710    4.4260 c3        1 HFG     -0.086000
      7 C5'        -0.2650   -0.4040    5.3880 c3        1 HFG     -0.190000
      8 C4'         0.3240    0.7800    4.7420 c3        1 HFG     -0.194000
      9 C39         1.1550    0.4220    3.5570 c3        1 HFG     -0.002000
     10 O7'         1.5490    1.6470    2.8680 oh        1 HFG     -0.323000
     11 C1'         1.5000   -0.8540   -1.1600 c3        1 HFG     -0.090000
     12 N3          0.5840   -0.6240   -2.2740 n3        1 HFG     -0.283000
     13 C4          0.5880    0.6080   -2.9390 c1        1 HFG      0.347000
     14 O11         1.4710    1.4590   -2.6750 o         1 HFG     -0.347000
     15 C10        -0.3890    0.8560   -4.0880 c1        1 HFG     -0.056500
     16 C5         -0.4120    2.0840   -4.7280 c1        1 HFG     -0.054000
     17 C2         -0.3480   -1.6670   -2.6790 c2        1 HFG      0.091000
     18 N1         -1.2910   -1.4210   -3.7600 n1        1 HFG     -0.190000
     19 C9         -1.2820   -0.1410   -4.4650 c1        1 HFG     -0.056500
     20 C8         -2.2100    0.0970   -5.4970 c1        1 HFG     -0.092000
     21 C7         -2.2330    1.3270   -6.1390 c1        1 HFG     -0.132000
     22 BR1        -3.4620    1.7590   -7.5650 br        1 HFG      0.087000
     23 C6         -1.3410    2.3230   -5.7630 c1        1 HFG     -0.073000
     24 CL1        -1.3270    3.7090   -6.7770 cl        1 HFG      0.019000
     25 H1          2.1530   -0.2780    1.4620 ha        1 HFG      0.122500
     26 H2          1.7710   -1.7860    1.7430 ha        1 HFG      0.122500
     27 H3         -0.2810    0.0720    2.1840 h1        1 HFG      0.133000
     28 H4          0.5260   -2.1830    3.5070 hn        1 HFG      0.144000
     29 H6         -1.8290   -0.7830    4.1040 h1        1 HFG      0.099000
     30 H7         -1.2450   -2.0970    4.8800 h1        1 HFG      0.099000
     31 H8          0.4400   -0.9180    5.8120 hc        1 HFG      0.089000
     32 H9         -0.8860   -0.1100    6.0640 hc        1 HFG      0.089000
     33 H10        -0.4220    1.4000    4.4450 hc        1 HFG      0.092500
     34 H11         0.8510    1.2170    5.3490 hc        1 HFG      0.092500
     35 H12         1.9810   -0.0560    3.8720 h1        1 HFG      0.074000
     36 H13         2.1380    2.1080    3.3810 ho        1 HFG      0.205000
     37 H14         2.1450   -0.0830   -1.0900 h1        1 HFG      0.138500
     38 H15         2.0250   -1.7240   -1.3200 h1        1 HFG      0.138500
     39 H16         0.2400    2.8110   -4.4540 ha        1 HFG      0.176000
     40 H17        -0.3130   -2.5250   -2.2610 h5        1 HFG      0.208000
     41 H18        -2.8310   -0.6150   -5.7750 ha        1 HFG      0.173000
@<TRIPOS>BOND
     1    1    2 1   
     2    2   11 1   
     3    3    4 1   
     4    3   25 1   
     5    3   26 1   
     6    4    5 1   
     7    4    9 1   
     8    4   27 1   
     9    5    6 1   
    10    5   28 1   
    11    6    7 1   
    12    6   29 1   
    13    6   30 1   
    14    7    8 1   
    15    7   31 1   
    16    7   32 1   
    17    8    9 1   
    18    8   33 1   
    19    8   34 1   
    20    9   10 1   
    21    9   35 1   
    22   10   36 1   
    23   11   12 1   
    24   11   37 1   
    25   11   38 1   
    26   12   13 1   
    27   12   17 1   
    28   13   14 1   
    29   15   19 1   
    30   16   23 1   
    31   16   39 1   
    32   17   18 1   
    33   17   40 1   
    34   20   21 1   
    35   20   41 1   
    36   21   22 1   
@<TRIPOS>SUBSTRUCTURE
     1 HFG         1 TEMP              0 ****  ****    0 ROOT
