@<TRIPOS>MOLECULE
HFG
   41    43     1     0     0
SMALL
bcc


@<TRIPOS>ATOM
      1 O4'         0.8400    1.9860   -0.1750 o         1 HFG     -0.524100
      2 C21         1.5030    0.9670    0.0290 c         1 HFG      0.573100
      3 C3'         2.1310    0.6620    1.3590 c3        1 HFG     -0.177400
      4 C2'         1.0630    0.2650    2.3860 c3        1 HFG      0.176500
      5 N1'         0.3000   -0.9030    1.9680 n7        1 HFG     -0.801200
      6 C6'        -0.6410   -1.3470    2.9770 c3        1 HFG      0.152800
      7 C5'        -0.0450   -1.5610    4.3690 c3        1 HFG     -0.112400
      8 C4'         0.7210   -0.3360    4.8170 c3        1 HFG     -0.114400
      9 C39         1.7460    0.0890    3.7700 c3        1 HFG      0.107100
     10 O7'         2.3250    1.3450    4.0930 oh        1 HFG     -0.598800
     11 C1'         1.8100   -0.0610   -1.0490 c3        1 HFG     -0.019000
     12 N3          0.9270   -0.0910   -2.1890 n         1 HFG     -0.392300
     13 C4          0.3820   -1.3230   -2.6270 c         1 HFG      0.711100
     14 O11         0.6750   -2.3820   -2.0440 o         1 HFG     -0.620500
     15 C10        -0.5120   -1.2520   -3.8020 ca        1 HFG     -0.176600
     16 C5         -1.0960   -2.4220   -4.3000 ca        1 HFG     -0.055000
     17 C2          0.5850    1.0840   -2.8660 cc        1 HFG      0.511800
     18 N1         -0.1950    1.1800   -3.9150 nd        1 HFG     -0.617100
     19 C9         -0.7700    0.0030   -4.4120 ca        1 HFG      0.183400
     20 C8         -1.6270    0.0450   -5.5380 ca        1 HFG     -0.092000
     21 C7         -2.2020   -1.1210   -6.0280 ca        1 HFG      0.008100
     22 Br1        -3.3290   -1.0140   -7.5190 br        1 HFG     -0.053100
     23 C6         -1.9370   -2.3580   -5.4070 ca        1 HFG      0.005400
     24 Cl1        -2.6310   -3.7900   -5.9920 cl        1 HFG     -0.060400
     25 H1          2.9010   -0.1460    1.2590 hc        1 HFG      0.079700
     26 H2          2.6430    1.5850    1.7470 hc        1 HFG      0.079700
     27 H3          0.3320    1.1250    2.4740 h1        1 HFG      0.093700
     28 H4          0.9250   -1.6520    1.7250 hn        1 HFG      0.352800
     29 H6         -1.1080   -2.3060    2.6190 h1        1 HFG      0.060700
     30 H7         -1.4540   -0.5690    3.0460 h1        1 HFG      0.060700
     31 H8         -0.8720   -1.7760    5.0930 hc        1 HFG      0.049200
     32 H9          0.6360   -2.4520    4.3600 hc        1 HFG      0.049200
     33 H10         0.0110    0.5150    4.9920 hc        1 HFG      0.051700
     34 H11         1.2430   -0.5440    5.7870 hc        1 HFG      0.051700
     35 H12         2.5650   -0.6820    3.6980 h1        1 HFG      0.033700
     36 H13         2.5820    1.3060    5.0220 ho        1 HFG      0.406000
     37 H14         1.7940   -1.0860   -0.5700 h1        1 HFG      0.092700
     38 H15         2.8630    0.1450   -1.4050 h1        1 HFG      0.092700
     39 H16        -0.8800   -3.3840   -3.8030 ha        1 HFG      0.176000
     40 H17         1.0130    2.0260   -2.4510 h5        1 HFG      0.079800
     41 H18        -1.8330    1.0170   -6.0180 ha        1 HFG      0.173000
@<TRIPOS>BOND
     1    1    2 2   
     2    2    3 1   
     3    2   11 1   
     4    3    4 1   
     5    3   25 1   
     6    3   26 1   
     7    4    5 1   
     8    4    9 1   
     9    4   27 1   
    10    5    6 1   
    11    5   28 1   
    12    6    7 1   
    13    6   29 1   
    14    6   30 1   
    15    7    8 1   
    16    7   31 1   
    17    7   32 1   
    18    8    9 1   
    19    8   33 1   
    20    8   34 1   
    21    9   10 1   
    22    9   35 1   
    23   10   36 1   
    24   11   12 1   
    25   11   37 1   
    26   11   38 1   
    27   12   13 1   
    28   12   17 1   
    29   13   14 2   
    30   13   15 1   
    31   15   16 ar  
    32   15   19 ar  
    33   16   23 ar  
    34   16   39 1   
    35   17   18 2   
    36   17   40 1   
    37   18   19 1   
    38   19   20 ar  
    39   20   21 ar  
    40   20   41 1   
    41   21   22 1   
    42   21   23 ar  
    43   23   24 1   
@<TRIPOS>SUBSTRUCTURE
     1 HFG         1 TEMP              0 ****  ****    0 ROOT
