@<TRIPOS>MOLECULE
HFL
   27    27     1     0     0
SMALL
bcc


@<TRIPOS>ATOM
      1 C1          0.4100   -0.6190    0.3300 ca        1 HFL      0.093100
      2 C2          1.7140   -0.0720    0.2510 ca        1 HFL      0.122100
      3 C3          2.2780    0.5610    1.3600 ca        1 HFL     -0.191000
      4 C4          1.5650    0.6480    2.5660 ca        1 HFL     -0.040800
      5 C5          0.2780    0.1130    2.6580 ca        1 HFL     -0.189000
      6 C6         -0.2910   -0.5120    1.5430 ca        1 HFL      0.058100
      7 O7         -0.1000   -1.2320   -0.7870 oh        1 HFL     -0.471100
      8 O8         -1.5560   -1.0670    1.5590 oh        1 HFL     -0.516100
      9 O9          2.3350   -0.2170   -0.9730 os        1 HFL     -0.300900
     10 C10         2.1770    1.3330    3.6960 ce        1 HFL     -0.072200
     11 C11         2.1330    0.9570    4.9780 c2        1 HFL     -0.188200
     12 C12         1.4850   -0.2930    5.4880 c3        1 HFL      0.364100
     13 O13         2.0790   -0.7990    6.6600 oh        1 HFL     -0.631300
     14 O14         0.1510    0.0040    5.8640 oh        1 HFL     -0.631300
     15 C15         3.6520    0.3140   -1.0710 c3        1 HFL      0.109700
     16 H3          3.2870    0.9930    1.3010 ha        1 HFL      0.143000
     17 H5         -0.2890    0.1950    3.6000 ha        1 HFL      0.161000
     18 H7         -1.0060   -1.5120   -0.5800 ho        1 HFL      0.433000
     19 H8         -1.9680   -0.8340    2.4030 ho        1 HFL      0.433000
     20 H10         2.7330    2.2490    3.4220 ha        1 HFL      0.132000
     21 H11         2.6210    1.5660    5.7560 ha        1 HFL      0.133000
     22 H12         1.5270   -1.1360    4.7390 h2        1 HFL      0.084700
     23 H13         2.1350   -0.0850    7.3080 ho        1 HFL      0.414500
     24 H14        -0.2110   -0.7920    6.2740 ho        1 HFL      0.414500
     25 H151        3.6480    1.4180   -0.9050 h1        1 HFL      0.045367
     26 H152        3.9470    0.0730   -2.1250 h1        1 HFL      0.045367
     27 H153        4.3370   -0.1890   -0.3460 h1        1 HFL      0.045367
@<TRIPOS>BOND
     1    1    2 ar  
     2    1    6 ar  
     3    1    7 1   
     4    2    3 ar  
     5    2    9 1   
     6    3    4 ar  
     7    3   16 1   
     8    4    5 ar  
     9    4   10 1   
    10    5    6 ar  
    11    5   17 1   
    12    6    8 1   
    13    7   18 1   
    14    8   19 1   
    15    9   15 1   
    16   10   11 2   
    17   10   20 1   
    18   11   12 1   
    19   11   21 1   
    20   12   13 1   
    21   12   14 1   
    22   12   22 1   
    23   13   23 1   
    24   14   24 1   
    25   15   25 1   
    26   15   26 1   
    27   15   27 1   
@<TRIPOS>SUBSTRUCTURE
     1 HFL         1 TEMP              0 ****  ****    0 ROOT
