@<TRIPOS>MOLECULE
HFL
   27    27     1     0     0
SMALL
bcc


@<TRIPOS>ATOM
      1 C1          0.4540   -0.5890    0.2980 ca        1 HFL      0.092100
      2 C2          1.7190    0.0440    0.2390 ca        1 HFL      0.122100
      3 C3          2.2560    0.6470    1.3780 ca        1 HFL     -0.192000
      4 C4          1.5540    0.6210    2.5950 ca        1 HFL     -0.042800
      5 C5          0.3040    0.0040    2.6650 ca        1 HFL     -0.190000
      6 C6         -0.2380   -0.5950    1.5220 ca        1 HFL      0.061100
      7 O7         -0.0320   -1.1650   -0.8480 oh        1 HFL     -0.471100
      8 O8         -1.4680   -1.2220    1.5160 oh        1 HFL     -0.516100
      9 O9          2.3330    0.0080   -0.9960 os        1 HFL     -0.300900
     10 C10         2.1480    1.2740    3.7530 ce        1 HFL     -0.073200
     11 C11         2.1210    0.8530    5.0220 c2        1 HFL     -0.199200
     12 C12         1.4840   -0.4140    5.4990 c3        1 HFL      0.364100
     13 O13         2.1180   -0.7840    6.7080 oh        1 HFL     -0.633300
     14 O14         0.1210   -0.2790    5.8450 oh        1 HFL     -0.633300
     15 C15         3.6090    0.6340   -1.0770 c3        1 HFL      0.109700
     16 H3          3.2360    1.1430    1.3350 ha        1 HFL      0.143000
     17 H5         -0.2610   -0.0070    3.6120 ha        1 HFL      0.161000
     18 H7         -0.9020   -1.5420   -0.6410 ho        1 HFL      0.434000
     19 H8         -1.8350   -1.1600    2.4100 ho        1 HFL      0.435000
     20 H10         2.6820    2.2140    3.5150 ha        1 HFL      0.132000
     21 H11         2.6230    1.4320    5.8160 ha        1 HFL      0.146000
     22 H12         1.5160   -1.2360    4.7280 h2        1 HFL      0.081700
     23 H13         1.7210   -1.6160    6.9940 ho        1 HFL      0.417500
     24 H14         0.0390    0.4590    6.4620 ho        1 HFL      0.417500
     25 H151        3.5310    1.7240   -0.8470 h1        1 HFL      0.045033
     26 H152        3.9040    0.4760   -2.1460 h1        1 HFL      0.045033
     27 H153        4.3380    0.1390   -0.3900 h1        1 HFL      0.045033
@<TRIPOS>BOND
     1    1    2 ar  
     2    1    6 ar  
     3    1    7 1   
     4    2    3 ar  
     5    2    9 1   
     6    3    4 ar  
     7    3   16 1   
     8    4    5 ar  
     9    4   10 1   
    10    5    6 ar  
    11    5   17 1   
    12    6    8 1   
    13    7   18 1   
    14    8   19 1   
    15    9   15 1   
    16   10   11 2   
    17   10   20 1   
    18   11   12 1   
    19   11   21 1   
    20   12   13 1   
    21   12   14 1   
    22   12   22 1   
    23   13   23 1   
    24   14   24 1   
    25   15   25 1   
    26   15   26 1   
    27   15   27 1   
@<TRIPOS>SUBSTRUCTURE
     1 HFL         1 TEMP              0 ****  ****    0 ROOT
