@<TRIPOS>MOLECULE
HFL
   27    27     1     0     0
SMALL
bcc


@<TRIPOS>ATOM
      1 C1         -0.7290   -0.2060    2.3860 ca        1 HFL      0.025100
      2 C2          0.6330   -0.0470    2.0580 ca        1 HFL      0.085100
      3 C3          1.0350    0.0310    0.7250 ca        1 HFL     -0.188000
      4 C4          0.0800   -0.0560   -0.3010 ca        1 HFL     -0.027800
      5 C5         -1.2740   -0.2090    0.0100 ca        1 HFL     -0.147000
      6 C6         -1.6790   -0.2840    1.3510 ca        1 HFL      0.132100
      7 O7         -1.2030   -0.2880    3.6780 oh        1 HFL     -0.513100
      8 O8         -3.0220   -0.4350    1.5930 oh        1 HFL     -0.492100
      9 O9          1.4810    0.0220    3.1510 os        1 HFL     -0.347900
     10 C10         0.5360    0.0280   -1.6800 ce        1 HFL     -0.093200
     11 C11        -0.1550   -0.4000   -2.7430 c2        1 HFL     -0.191200
     12 C12         0.3990   -0.3160   -4.1320 c3        1 HFL      0.364100
     13 O13        -0.6860   -0.1920   -5.0300 oh        1 HFL     -0.630300
     14 O14         1.2110    0.8070   -4.3860 oh        1 HFL     -0.630300
     15 C15         2.8660    0.1700    2.8570 c3        1 HFL      0.121700
     16 H3          2.0960    0.1560    0.4680 ha        1 HFL      0.143000
     17 H5         -2.0390   -0.2660   -0.7770 ha        1 HFL      0.159000
     18 H7         -0.4440   -0.2200    4.2770 ho        1 HFL      0.446000
     19 H8         -3.1520   -0.4680    2.5540 ho        1 HFL      0.440000
     20 H10         1.5380    0.4760   -1.8210 ha        1 HFL      0.135000
     21 H11        -1.1540   -0.8580   -2.6760 ha        1 HFL      0.154000
     22 H12         1.0430   -1.2110   -4.3730 h2        1 HFL      0.076700
     23 H13        -0.3140   -0.1280   -5.9180 ho        1 HFL      0.418000
     24 H14         0.7270    1.5960   -4.1130 ho        1 HFL      0.418000
     25 H151        3.3430    0.1940    3.8700 h1        1 HFL      0.047700
     26 H152        3.2380   -0.7010    2.2650 h1        1 HFL      0.047700
     27 H153        3.0510    1.1260    2.3100 h1        1 HFL      0.047700
@<TRIPOS>BOND
     1    1    2 ar  
     2    1    6 ar  
     3    1    7 1   
     4    2    3 ar  
     5    2    9 1   
     6    3    4 ar  
     7    3   16 1   
     8    4    5 ar  
     9    4   10 1   
    10    5    6 ar  
    11    5   17 1   
    12    6    8 1   
    13    7   18 1   
    14    8   19 1   
    15    9   15 1   
    16   10   11 2   
    17   10   20 1   
    18   11   12 1   
    19   11   21 1   
    20   12   13 1   
    21   12   14 1   
    22   12   22 1   
    23   13   23 1   
    24   14   24 1   
    25   15   25 1   
    26   15   26 1   
    27   15   27 1   
@<TRIPOS>SUBSTRUCTURE
     1 HFL         1 TEMP              0 ****  ****    0 ROOT
