@<TRIPOS>MOLECULE
HFL
   27    23     1     0     0
SMALL
bcc


@<TRIPOS>ATOM
      1 C1         -1.3170    0.4690   -1.6130 c1        1 HFL      0.016500
      2 C2          0.0820    0.4860   -1.6170 c1        1 HFL      0.082000
      3 C3          0.7710    0.4660   -0.4310 c1        1 HFL     -0.147000
      4 C4          0.0730    0.4290    0.7830 c1        1 HFL     -0.036000
      5 C5         -1.3030    0.4130    0.7860 c1        1 HFL     -0.190000
      6 C6         -2.0020    0.4330   -0.4180 c1        1 HFL      0.016500
      7 O7         -2.0220    0.4940   -2.8210 oh        1 HFL     -0.265500
      8 O8         -3.4100    0.4130   -0.4160 oh        1 HFL     -0.265500
      9 O9          0.7930    0.4150   -2.8560 os        1 HFL     -0.211000
     10 C10         0.8270    0.5320    2.0860 c2        1 HFL     -0.073000
     11 C11         1.2020   -0.6240    2.7710 c1        1 HFL     -0.246000
     12 C12         0.8500   -2.0020    2.2040 c2        1 HFL      0.186000
     13 O13        -0.4370   -2.3900    2.6620 oh        1 HFL     -0.343500
     14 O14         1.7960   -2.9340    2.6340 oh        1 HFL     -0.343500
     15 C15         1.1260    1.6920   -3.4080 c3        1 HFL     -0.067000
     16 H3          1.7330    0.4790   -0.4330 ha        1 HFL      0.154000
     17 H5         -1.7860    0.3880    1.6280 ha        1 HFL      0.165000
     18 H7         -2.3230    1.3000   -2.9660 ho        1 HFL      0.238000
     19 H8         -3.7180    1.1730   -0.0600 ho        1 HFL      0.238000
     20 H10         1.0480    1.3950    2.4440 ha        1 HFL      0.132000
     21 H11         1.6910   -0.5530    3.6160 ha        1 HFL      0.134000
     22 H12         0.8500   -1.9640    1.2470 h5        1 HFL      0.119000
     23 H13        -0.4420   -3.2860    2.8290 ho        1 HFL      0.220000
     24 H14         2.2920   -3.1850    1.9510 ho        1 HFL      0.220000
     25 H151        0.4110    1.9830   -4.0110 h1        1 HFL      0.089000
     26 H152        1.2310    2.3570   -2.6710 h1        1 HFL      0.089000
     27 H153        1.9860    1.6220   -3.9180 h1        1 HFL      0.089000
@<TRIPOS>BOND
     1    1    6 1   
     2    1    7 1   
     3    2    3 1   
     4    2    9 1   
     5    3   16 1   
     6    4    5 1   
     7    4   10 1   
     8    5   17 1   
     9    6    8 1   
    10    7   18 1   
    11    8   19 1   
    12    9   15 1   
    13   10   11 1   
    14   10   20 1   
    15   11   21 1   
    16   12   13 1   
    17   12   14 1   
    18   12   22 1   
    19   13   23 1   
    20   14   24 1   
    21   15   25 1   
    22   15   26 1   
    23   15   27 1   
@<TRIPOS>SUBSTRUCTURE
     1 HFL         1 TEMP              0 ****  ****    0 ROOT
