@<TRIPOS>MOLECULE
HFN
   48    51     1     0     0
SMALL
bcc


@<TRIPOS>ATOM
      1 N1         -0.1390   -0.0970    0.0610 na        1 HFN      0.093400
      2 N3          2.3540   -1.8770    6.4480 n         1 HFN     -0.467100
      3 C4          1.4350   -1.0300    4.3330 ca        1 HFN     -0.143000
      4 C5          0.5810   -0.1470    3.6590 ca        1 HFN      0.013000
      5 C6         -0.2090    0.7540    4.3890 ca        1 HFN     -0.122000
      6 C7         -0.1530    0.7860    5.7790 ca        1 HFN     -0.114000
      7 C8          1.5120   -1.0100    5.7360 ca        1 HFN      0.017600
      8 C10         1.1810   -1.1460    8.5170 c3        1 HFN      0.061400
      9 C13        -2.6800   -1.0260    2.3670 ca        1 HFN     -0.082500
     10 C15        -4.7110    0.2830    2.4690 ca        1 HFN      0.137900
     11 C17        -2.7170    1.2340    1.4900 ca        1 HFN     -0.082500
     12 C21        -1.9610   -1.2920   -3.1180 c3        1 HFN      0.090400
     13 F3         -1.6450   -2.4690   -1.0200 f         1 HFN     -0.228800
     14 F2          0.1290   -2.0440   -2.1600 f         1 HFN     -0.228800
     15 O3         -1.3050   -0.4320   -4.0150 oh        1 HFN     -0.583800
     16 C19        -0.9700   -0.1120   -1.1170 c3        1 HFN      0.017300
     17 N2          1.1980   -0.2170    0.0130 nc        1 HFN     -0.491800
     18 C3          1.6480   -0.2550    1.2960 cd        1 HFN      0.331600
     19 C18         3.0710   -0.3580    1.6750 c3        1 HFN     -0.127400
     20 C1          0.5220   -0.1670    2.2180 cd        1 HFN     -0.192300
     21 C2         -0.6160   -0.0740    1.3910 cc        1 HFN     -0.031300
     22 C12        -2.0210    0.0450    1.7480 ca        1 HFN     -0.055000
     23 C16        -4.0540    1.3610    1.8460 ca        1 HFN     -0.171000
     24 C14        -4.0180   -0.9140    2.7300 ca        1 HFN     -0.171000
     25 C9          0.7060   -0.0860    6.4500 ca        1 HFN      0.064100
     26 O1          0.7940    0.0410    7.8290 os        1 HFN     -0.312900
     27 C11         2.2580   -1.9680    7.8270 c         1 HFN      0.675500
     28 O2          3.0110   -2.7260    8.4620 o         1 HFN     -0.614500
     29 H1          3.0060   -2.4410    5.9520 hn        1 HFN      0.337500
     30 H2          2.0460   -1.7390    3.7520 ha        1 HFN      0.146000
     31 H3         -0.8820    1.4410    3.8530 ha        1 HFN      0.145000
     32 H4         -0.7640    1.4950    6.3560 ha        1 HFN      0.155000
     33 H5          1.5620   -0.7750    9.5070 h1        1 HFN      0.090200
     34 H6          0.2800   -1.8000    8.6620 h1        1 HFN      0.090200
     35 H7         -2.1340   -1.9610    2.5680 ha        1 HFN      0.150500
     36 H8         -2.1980    2.0790    1.0100 ha        1 HFN      0.150500
     37 H9         -2.9210   -0.7790   -2.8490 h1        1 HFN      0.075200
     38 H10        -2.1670   -2.2920   -3.5790 h1        1 HFN      0.075200
     39 H11        -0.4950   -0.8760   -4.3020 ho        1 HFN      0.419000
     40 H12        -2.0060    0.2090   -0.8170 h1        1 HFN      0.098200
     41 H13        -0.5520    0.6010   -1.8860 h1        1 HFN      0.098200
     42 H14         3.2220    0.0890    2.6900 hc        1 HFN      0.055033
     43 H15         3.3780   -1.4340    1.7070 hc        1 HFN      0.055033
     44 H16         3.7290    0.1740    0.9450 hc        1 HFN      0.055033
     45 H17        -4.6040    2.2930    1.6500 ha        1 HFN      0.155000
     46 H18        -4.5400   -1.7510    3.2170 ha        1 HFN      0.155000
     47 F1         -6.0130    0.3980    2.8180 f         1 HFN     -0.134900
     48 C20        -1.0950   -1.5000   -1.8310 c3        1 HFN      0.348600
@<TRIPOS>BOND
     1    1   16 1   
     2    1   17 1   
     3    1   21 1   
     4    2    7 1   
     5    2   27 1   
     6    2   29 1   
     7    3    4 ar  
     8    3    7 ar  
     9    3   30 1   
    10    4    5 ar  
    11    4   20 1   
    12    5    6 ar  
    13    5   31 1   
    14    6   25 ar  
    15    6   32 1   
    16    7   25 ar  
    17    8   26 1   
    18    8   27 1   
    19    8   33 1   
    20    8   34 1   
    21    9   22 ar  
    22    9   24 ar  
    23    9   35 1   
    24   10   23 ar  
    25   10   24 ar  
    26   10   47 1   
    27   11   22 ar  
    28   11   23 ar  
    29   11   36 1   
    30   12   15 1   
    31   12   37 1   
    32   12   38 1   
    33   12   48 1   
    34   13   48 1   
    35   14   48 1   
    36   15   39 1   
    37   16   40 1   
    38   16   41 1   
    39   16   48 1   
    40   17   18 2   
    41   18   19 1   
    42   18   20 1   
    43   19   42 1   
    44   19   43 1   
    45   19   44 1   
    46   20   21 2   
    47   21   22 1   
    48   23   45 1   
    49   24   46 1   
    50   25   26 1   
    51   27   28 2   
@<TRIPOS>SUBSTRUCTURE
     1 HFN         1 TEMP              0 ****  ****    0 ROOT
