@<TRIPOS>MOLECULE
HFP
   51    50     1     0     0
SMALL
bcc


@<TRIPOS>ATOM
      1 P           0.2100   -0.7180    0.1230 p5        1 HFP      1.196700
      2 O1P        -0.0320   -2.1800   -0.1650 o         1 HFP     -0.943833
      3 O2P        -0.0520   -0.2880    1.5560 o         1 HFP     -0.943833
      4 O3P        -0.3360    0.2230   -0.9270 o         1 HFP     -0.943833
      5 C1          2.0140   -0.5540    0.0370 c3        1 HFP     -0.049100
      6 O1          2.5580   -0.6300    1.3390 oh        1 HFP     -0.675800
      7 C2          2.2780    0.7820   -0.5960 c3        1 HFP     -0.074400
      8 C3          3.7540    1.1060   -0.8100 c3        1 HFP     -0.070700
      9 C4          3.9560    2.6000   -0.9560 c3        1 HFP     -0.076100
     10 C5          4.2910    0.3640   -2.0250 c3        1 HFP     -0.072400
     11 C6          5.8030    0.2580   -2.0230 c3        1 HFP     -0.077400
     12 C7          6.2960   -0.5110   -3.2310 c3        1 HFP     -0.077400
     13 C8          7.8090   -0.6970   -3.2290 c3        1 HFP     -0.066700
     14 C9          8.5120    0.5940   -3.5940 c3        1 HFP     -0.085100
     15 C10         8.1940   -1.8180   -4.1860 c3        1 HFP     -0.077400
     16 C11         9.6260   -2.2750   -3.9990 c3        1 HFP     -0.078400
     17 C12         9.9440   -3.4480   -4.9020 c3        1 HFP     -0.076400
     18 C13        11.3730   -3.9440   -4.7290 c3        1 HFP     -0.068700
     19 C14        11.5120   -5.3450   -5.2880 c3        1 HFP     -0.088100
     20 C15        12.3650   -3.0160   -5.3980 c3        1 HFP     -0.088100
     21 H1          2.4640   -1.3920   -0.5440 h1        1 HFP      0.023700
     22 HO1         1.8120   -0.4700    1.9520 ho        1 HFP      0.427000
     23 H21         1.8190    1.5590    0.0720 hc        1 HFP      0.058700
     24 H22         1.7160    0.8130   -1.5680 hc        1 HFP      0.058700
     25 H3          4.3100    0.7520    0.1040 hc        1 HFP      0.049700
     26 H41         3.3650    2.9900   -1.8190 hc        1 HFP      0.006700
     27 H42         5.0320    2.8520   -1.1230 hc        1 HFP      0.006700
     28 H43         3.6110    3.1230   -0.0320 hc        1 HFP      0.006700
     29 H51         3.8480   -0.6680   -2.0300 hc        1 HFP      0.043700
     30 H52         3.9520    0.8790   -2.9620 hc        1 HFP      0.043700
     31 H61         6.1360   -0.2600   -1.0860 hc        1 HFP      0.028200
     32 H62         6.2560    1.2840   -2.0140 hc        1 HFP      0.028200
     33 H71         5.9880    0.0200   -4.1690 hc        1 HFP      0.038700
     34 H72         5.7980   -1.5170   -3.2410 hc        1 HFP      0.038700
     35 H8          8.1260   -0.9950   -2.1900 hc        1 HFP      0.048700
     36 H91         8.1950    1.4130   -2.9040 hc        1 HFP      0.025700
     37 H92         9.6200    0.4770   -3.5170 hc        1 HFP      0.025700
     38 H93         8.2600    0.8970   -4.6390 hc        1 HFP      0.025700
     39 H101        8.0430   -1.4740   -5.2430 hc        1 HFP      0.039200
     40 H102        7.5090   -2.6920   -4.0200 hc        1 HFP      0.039200
     41 H111       10.3270   -1.4280   -4.2200 hc        1 HFP      0.036700
     42 H112        9.7880   -2.5690   -2.9290 hc        1 HFP      0.036700
     43 H121        9.7770   -3.1570   -5.9720 hc        1 HFP      0.039700
     44 H122        9.2350   -4.2880   -4.6720 hc        1 HFP      0.039700
     45 H13        11.6060   -3.9780   -3.6270 hc        1 HFP      0.047700
     46 H141       12.5620   -5.7070   -5.1770 hc        1 HFP      0.028867
     47 H142       10.8350   -6.0500   -4.7480 hc        1 HFP      0.028867
     48 H143       11.2450   -5.3620   -6.3730 hc        1 HFP      0.028867
     49 H151       12.2870   -1.9870   -4.9710 hc        1 HFP      0.028867
     50 H152       13.4070   -3.3860   -5.2450 hc        1 HFP      0.028867
     51 H153       12.1690   -2.9580   -6.4960 hc        1 HFP      0.028867
@<TRIPOS>BOND
     1    1    2 1   
     2    1    3 1   
     3    1    4 1   
     4    1    5 1   
     5    5    6 1   
     6    5    7 1   
     7    5   21 1   
     8    6   22 1   
     9    7    8 1   
    10    7   23 1   
    11    7   24 1   
    12    8    9 1   
    13    8   10 1   
    14    8   25 1   
    15    9   26 1   
    16    9   27 1   
    17    9   28 1   
    18   10   11 1   
    19   10   29 1   
    20   10   30 1   
    21   11   12 1   
    22   11   31 1   
    23   11   32 1   
    24   12   13 1   
    25   12   33 1   
    26   12   34 1   
    27   13   14 1   
    28   13   15 1   
    29   13   35 1   
    30   14   36 1   
    31   14   37 1   
    32   14   38 1   
    33   15   16 1   
    34   15   39 1   
    35   15   40 1   
    36   16   17 1   
    37   16   41 1   
    38   16   42 1   
    39   17   18 1   
    40   17   43 1   
    41   17   44 1   
    42   18   19 1   
    43   18   20 1   
    44   18   45 1   
    45   19   46 1   
    46   19   47 1   
    47   19   48 1   
    48   20   49 1   
    49   20   50 1   
    50   20   51 1   
@<TRIPOS>SUBSTRUCTURE
     1 HFP         1 TEMP              0 ****  ****    0 ROOT
