@<TRIPOS>MOLECULE
HFP
   51    50     1     0     0
SMALL
bcc


@<TRIPOS>ATOM
      1 P          -1.2870    0.2420   -5.0460 p5        1 HFP      1.196700
      2 O1P        -0.7740   -1.1490   -5.3400 o         1 HFP     -0.943833
      3 O2P        -2.7640    0.3100   -4.7430 o         1 HFP     -0.943833
      4 O3P        -0.7690    1.3190   -5.9840 o         1 HFP     -0.943833
      5 C1         -0.5030    0.7340   -3.4880 c3        1 HFP     -0.049100
      6 O1         -0.1820    2.1090   -3.5340 oh        1 HFP     -0.675800
      7 C2          0.7280   -0.1180   -3.3570 c3        1 HFP     -0.074400
      8 C3          1.5230    0.1030   -2.0730 c3        1 HFP     -0.070700
      9 C4          2.9500   -0.3760   -2.2410 c3        1 HFP     -0.076100
     10 C5          0.8490   -0.5970   -0.9030 c3        1 HFP     -0.072400
     11 C6          1.2930   -0.0500    0.4390 c3        1 HFP     -0.077400
     12 C7          0.5790   -0.7510    1.5770 c3        1 HFP     -0.077400
     13 C8          0.9500   -0.1820    2.9410 c3        1 HFP     -0.066700
     14 C9          2.3360   -0.6290    3.3540 c3        1 HFP     -0.085100
     15 C10        -0.0890   -0.5970    3.9750 c3        1 HFP     -0.077400
     16 C11         0.0300    0.1870    5.2650 c3        1 HFP     -0.078400
     17 C12        -1.0730   -0.1890    6.2330 c3        1 HFP     -0.076400
     18 C13        -0.9920    0.5920    7.5370 c3        1 HFP     -0.068700
     19 C14        -2.3180    0.5280    8.2680 c3        1 HFP     -0.088100
     20 C15         0.1180    0.0720    8.4260 c3        1 HFP     -0.088100
     21 H1         -1.2020    0.6000   -2.6290 h1        1 HFP      0.023700
     22 HO1        -0.2090    2.3610   -4.4790 ho        1 HFP      0.427000
     23 H21         1.3790    0.1080   -4.2420 hc        1 HFP      0.058700
     24 H22         0.4090   -1.1900   -3.4510 hc        1 HFP      0.058700
     25 H3          1.5340    1.2120   -1.8720 hc        1 HFP      0.049700
     26 H41         2.9670   -1.4620   -2.5020 hc        1 HFP      0.006700
     27 H42         3.4480    0.1900   -3.0650 hc        1 HFP      0.006700
     28 H43         3.5420   -0.2300   -1.3040 hc        1 HFP      0.006700
     29 H51         1.0600   -1.6970   -0.9480 hc        1 HFP      0.043700
     30 H52        -0.2620   -0.4650   -1.0070 hc        1 HFP      0.043700
     31 H61         1.0750    1.0500    0.4810 hc        1 HFP      0.028200
     32 H62         2.4020   -0.1740    0.5520 hc        1 HFP      0.028200
     33 H71         0.8180   -1.8470    1.5540 hc        1 HFP      0.038700
     34 H72        -0.5280   -0.6500    1.4190 hc        1 HFP      0.038700
     35 H8          0.9440    0.9430    2.8660 hc        1 HFP      0.048700
     36 H91         2.3690   -1.7370    3.4860 hc        1 HFP      0.025700
     37 H92         3.0810   -0.3450    2.5710 hc        1 HFP      0.025700
     38 H93         2.6370   -0.1490    4.3170 hc        1 HFP      0.025700
     39 H101        0.0160   -1.6930    4.1890 hc        1 HFP      0.039200
     40 H102       -1.1150   -0.4390    3.5470 hc        1 HFP      0.039200
     41 H111       -0.0230    1.2850    5.0430 hc        1 HFP      0.036700
     42 H112        1.0290   -0.0080    5.7370 hc        1 HFP      0.036700
     43 H121       -1.0250   -1.2880    6.4520 hc        1 HFP      0.039700
     44 H122       -2.0660    0.0090    5.7480 hc        1 HFP      0.039700
     45 H13        -0.7750    1.6710    7.2920 hc        1 HFP      0.047700
     46 H141       -2.2580    1.0870    9.2330 hc        1 HFP      0.028867
     47 H142       -3.1280    0.9780    7.6460 hc        1 HFP      0.028867
     48 H143       -2.5900   -0.5320    8.4900 hc        1 HFP      0.028867
     49 H151       -0.0620   -0.9970    8.6950 hc        1 HFP      0.028867
     50 H152        1.1030    0.1430    7.9030 hc        1 HFP      0.028867
     51 H153        0.1730    0.6690    9.3680 hc        1 HFP      0.028867
@<TRIPOS>BOND
     1    1    2 1   
     2    1    3 1   
     3    1    4 1   
     4    1    5 1   
     5    5    6 1   
     6    5    7 1   
     7    5   21 1   
     8    6   22 1   
     9    7    8 1   
    10    7   23 1   
    11    7   24 1   
    12    8    9 1   
    13    8   10 1   
    14    8   25 1   
    15    9   26 1   
    16    9   27 1   
    17    9   28 1   
    18   10   11 1   
    19   10   29 1   
    20   10   30 1   
    21   11   12 1   
    22   11   31 1   
    23   11   32 1   
    24   12   13 1   
    25   12   33 1   
    26   12   34 1   
    27   13   14 1   
    28   13   15 1   
    29   13   35 1   
    30   14   36 1   
    31   14   37 1   
    32   14   38 1   
    33   15   16 1   
    34   15   39 1   
    35   15   40 1   
    36   16   17 1   
    37   16   41 1   
    38   16   42 1   
    39   17   18 1   
    40   17   43 1   
    41   17   44 1   
    42   18   19 1   
    43   18   20 1   
    44   18   45 1   
    45   19   46 1   
    46   19   47 1   
    47   19   48 1   
    48   20   49 1   
    49   20   50 1   
    50   20   51 1   
@<TRIPOS>SUBSTRUCTURE
     1 HFP         1 TEMP              0 ****  ****    0 ROOT
