@<TRIPOS>MOLECULE
HFP
   51    50     1     0     0
SMALL
bcc


@<TRIPOS>ATOM
      1 P           0.2070   -0.7050    0.1150 p5        1 HFP      1.196700
      2 O1P        -0.0440   -2.1620   -0.1880 o         1 HFP     -0.943833
      3 O2P        -0.0550   -0.2870    1.5510 o         1 HFP     -0.943833
      4 O3P        -0.3320    0.2490   -0.9270 o         1 HFP     -0.943833
      5 C1          2.0110   -0.5520    0.0340 c3        1 HFP     -0.049100
      6 O1          2.5530   -0.6440    1.3350 oh        1 HFP     -0.675800
      7 C2          2.2850    0.7890   -0.5870 c3        1 HFP     -0.074400
      8 C3          3.7640    1.1050   -0.7950 c3        1 HFP     -0.070700
      9 C4          3.9750    2.5990   -0.9260 c3        1 HFP     -0.076100
     10 C5          4.2980    0.3720   -2.0160 c3        1 HFP     -0.072400
     11 C6          5.8090    0.2560   -2.0130 c3        1 HFP     -0.077400
     12 C7          6.3000   -0.5050   -3.2270 c3        1 HFP     -0.077400
     13 C8          7.8120   -0.6990   -3.2250 c3        1 HFP     -0.066700
     14 C9          8.5210    0.5910   -3.5820 c3        1 HFP     -0.085100
     15 C10         8.1920   -1.8150   -4.1890 c3        1 HFP     -0.077400
     16 C11         9.6220   -2.2790   -4.0060 c3        1 HFP     -0.078400
     17 C12         9.9340   -3.4490   -4.9150 c3        1 HFP     -0.076400
     18 C13        11.3620   -3.9510   -4.7470 c3        1 HFP     -0.068700
     19 C14        11.4950   -5.3500   -5.3120 c3        1 HFP     -0.088100
     20 C15        12.3560   -3.0230   -5.4130 c3        1 HFP     -0.088100
     21 H1          2.4570   -1.3870   -0.5550 h1        1 HFP      0.023700
     22 HO1         1.8070   -0.4850    1.9480 ho        1 HFP      0.427000
     23 H21         1.8290    1.5620    0.0880 hc        1 HFP      0.058700
     24 H22         1.7250    0.8330   -1.5590 hc        1 HFP      0.058700
     25 H3          4.3160    0.7390    0.1170 hc        1 HFP      0.049700
     26 H41         3.3880    3.0020   -1.7870 hc        1 HFP      0.006700
     27 H42         5.0530    2.8460   -1.0890 hc        1 HFP      0.006700
     28 H43         3.6320    3.1160    0.0030 hc        1 HFP      0.006700
     29 H51         3.8480   -0.6580   -2.0310 hc        1 HFP      0.043700
     30 H52         3.9630    0.8970   -2.9490 hc        1 HFP      0.043700
     31 H61         6.1380   -0.2720   -1.0790 hc        1 HFP      0.028200
     32 H62         6.2680    1.2790   -1.9950 hc        1 HFP      0.028200
     33 H71         5.9950    0.0350   -4.1610 hc        1 HFP      0.038700
     34 H72         5.7960   -1.5090   -3.2450 hc        1 HFP      0.038700
     35 H8          8.1270   -1.0050   -2.1880 hc        1 HFP      0.048700
     36 H91         8.2060    1.4070   -2.8880 hc        1 HFP      0.025700
     37 H92         9.6280    0.4690   -3.5030 hc        1 HFP      0.025700
     38 H93         8.2720    0.9010   -4.6250 hc        1 HFP      0.025700
     39 H101        8.0410   -1.4650   -5.2440 hc        1 HFP      0.039200
     40 H102        7.5040   -2.6880   -4.0280 hc        1 HFP      0.039200
     41 H111       10.3260   -1.4330   -4.2240 hc        1 HFP      0.036700
     42 H112        9.7840   -2.5790   -2.9370 hc        1 HFP      0.036700
     43 H121        9.7660   -3.1530   -5.9830 hc        1 HFP      0.039700
     44 H122        9.2220   -4.2870   -4.6880 hc        1 HFP      0.039700
     45 H13        11.5960   -3.9900   -3.6450 hc        1 HFP      0.047700
     46 H141       12.5440   -5.7160   -5.2040 hc        1 HFP      0.028867
     47 H142       10.8160   -6.0540   -4.7730 hc        1 HFP      0.028867
     48 H143       11.2260   -5.3610   -6.3960 hc        1 HFP      0.028867
     49 H151       12.2830   -1.9960   -4.9820 hc        1 HFP      0.028867
     50 H152       13.3970   -3.3980   -5.2630 hc        1 HFP      0.028867
     51 H153       12.1590   -2.9600   -6.5110 hc        1 HFP      0.028867
@<TRIPOS>BOND
     1    1    2 1   
     2    1    3 1   
     3    1    4 1   
     4    1    5 1   
     5    5    6 1   
     6    5    7 1   
     7    5   21 1   
     8    6   22 1   
     9    7    8 1   
    10    7   23 1   
    11    7   24 1   
    12    8    9 1   
    13    8   10 1   
    14    8   25 1   
    15    9   26 1   
    16    9   27 1   
    17    9   28 1   
    18   10   11 1   
    19   10   29 1   
    20   10   30 1   
    21   11   12 1   
    22   11   31 1   
    23   11   32 1   
    24   12   13 1   
    25   12   33 1   
    26   12   34 1   
    27   13   14 1   
    28   13   15 1   
    29   13   35 1   
    30   14   36 1   
    31   14   37 1   
    32   14   38 1   
    33   15   16 1   
    34   15   39 1   
    35   15   40 1   
    36   16   17 1   
    37   16   41 1   
    38   16   42 1   
    39   17   18 1   
    40   17   43 1   
    41   17   44 1   
    42   18   19 1   
    43   18   20 1   
    44   18   45 1   
    45   19   46 1   
    46   19   47 1   
    47   19   48 1   
    48   20   49 1   
    49   20   50 1   
    50   20   51 1   
@<TRIPOS>SUBSTRUCTURE
     1 HFP         1 TEMP              0 ****  ****    0 ROOT
