@<TRIPOS>MOLECULE
HFS
   38    40     1     0     0
SMALL
bcc


@<TRIPOS>ATOM
      1 O1          5.3990    0.8130   -0.0260 oh        1 HFS     -0.620300
      2 C1          4.3040   -0.0140   -0.1030 ca        1 HFS      0.661600
      3 N1          4.4690   -1.3350   -0.2450 nb        1 HFS     -0.753000
      4 C2          3.3320   -2.0870   -0.3130 ca        1 HFS      0.450200
      5 C3          2.0490   -1.5720   -0.2430 ca        1 HFS     -0.283300
      6 C4          1.8610   -0.1680   -0.0900 ca        1 HFS      0.101000
      7 C5          0.5700    0.4420   -0.0110 ca        1 HFS     -0.354500
      8 C6          0.5070    1.8160    0.1230 ca        1 HFS      0.020000
      9 C7          1.6600    2.6240    0.1940 ca        1 HFS     -0.187000
     10 C8          2.9080    2.0490    0.1260 ca        1 HFS     -0.013000
     11 C9          3.0220    0.6470   -0.0190 ca        1 HFS     -0.188300
     12 S1         -0.8070   -0.5740   -0.1070 sy        1 HFS      1.498200
     13 O2         -0.7300   -1.5140    0.9440 o         1 HFS     -0.646800
     14 O3         -0.8570   -1.1040   -1.4130 o         1 HFS     -0.646800
     15 N2         -2.0640    0.4300    0.1460 n3        1 HFS     -0.805500
     16 C10        -2.7550    1.0740   -0.9420 c3        1 HFS      0.229800
     17 C11        -4.0950    0.4590   -1.3330 c3        1 HFS     -0.100400
     18 C12        -5.0590    0.3220   -0.1560 c3        1 HFS      0.177800
     19 N3         -4.7120   -0.7570    0.7420 n3        1 HFS     -0.834200
     20 C13        -3.7640   -0.4630    1.7900 c3        1 HFS      0.144800
     21 C14        -2.6620    0.5610    1.4460 c3        1 HFS      0.224800
     22 HO1         6.2110    0.2830   -0.0930 ho        1 HFS      0.448000
     23 H2          3.5090   -3.1720   -0.4320 h4        1 HFS      0.032100
     24 H3          1.1830   -2.2490   -0.3020 ha        1 HFS      0.170000
     25 H6         -0.4660    2.3370    0.1770 ha        1 HFS      0.139000
     26 H7          1.5490    3.7130    0.3030 ha        1 HFS      0.143000
     27 H8          3.8270    2.6550    0.1800 ha        1 HFS      0.157000
     28 H101       -2.9220    2.1580   -0.6680 h1        1 HFS      0.048200
     29 H102       -2.0790    1.0470   -1.8470 h1        1 HFS      0.048200
     30 H111       -4.5680    1.1320   -2.0960 hc        1 HFS      0.062200
     31 H112       -3.9280   -0.5410   -1.8130 hc        1 HFS      0.062200
     32 H121       -5.1200    1.3180    0.3740 h1        1 HFS      0.026200
     33 H122       -6.0820    0.1050   -0.5800 h1        1 HFS      0.026200
     34 HN3        -5.5370   -1.1650    1.1380 hn        1 HFS      0.370800
     35 H131       -4.2670   -0.0720    2.7240 h1        1 HFS      0.044200
     36 H132       -3.2700   -1.4450    2.0520 h1        1 HFS      0.044200
     37 H141       -1.8520    0.4380    2.2240 h1        1 HFS      0.053200
     38 H142       -3.0880    1.6000    1.5500 h1        1 HFS      0.053200
@<TRIPOS>BOND
     1    1    2 1   
     2    1   22 1   
     3    2    3 ar  
     4    2   11 ar  
     5    3    4 ar  
     6    4    5 ar  
     7    4   23 1   
     8    5    6 ar  
     9    5   24 1   
    10    6    7 ar  
    11    6   11 ar  
    12    7    8 ar  
    13    7   12 1   
    14    8    9 ar  
    15    8   25 1   
    16    9   10 ar  
    17    9   26 1   
    18   10   11 ar  
    19   10   27 1   
    20   12   13 2   
    21   12   14 2   
    22   12   15 1   
    23   15   16 1   
    24   15   21 1   
    25   16   17 1   
    26   16   28 1   
    27   16   29 1   
    28   17   18 1   
    29   17   30 1   
    30   17   31 1   
    31   18   19 1   
    32   18   32 1   
    33   18   33 1   
    34   19   20 1   
    35   19   34 1   
    36   20   21 1   
    37   20   35 1   
    38   20   36 1   
    39   21   37 1   
    40   21   38 1   
@<TRIPOS>SUBSTRUCTURE
     1 HFS         1 TEMP              0 ****  ****    0 ROOT
