@<TRIPOS>MOLECULE
HFT
   31    31     1     0     0
SMALL
bcc


@<TRIPOS>ATOM
      1 F1         -0.0690    0.1590   -0.4200 f         1 HFT     -0.221967
      2 C7          1.3010    0.1070   -0.2940 c3        1 HFT      0.695200
      3 F2          1.5180    0.3820    1.0310 f         1 HFT     -0.221967
      4 F3          1.7360    1.2070   -0.9850 f         1 HFT     -0.221967
      5 C3          1.9210   -1.2150   -0.7680 ca        1 HFT     -0.075300
      6 C2          1.0750   -2.1990   -1.2620 ca        1 HFT     -0.164000
      7 C4          3.3070   -1.4470   -0.7140 ca        1 HFT     -0.174200
      8 N1          4.2550   -0.4260   -0.1950 no        1 HFT      0.317200
      9 O2          5.4280   -0.6930   -0.1820 o         1 HFT     -0.195000
     10 O1          3.8350    0.6280    0.1930 o         1 HFT     -0.195000
     11 C5          3.8220   -2.6750   -1.1610 ca        1 HFT     -0.042000
     12 C6          2.9780   -3.6610   -1.6550 ca        1 HFT     -0.152000
     13 C1          1.5850   -3.4450   -1.7180 ca        1 HFT      0.115600
     14 N9          0.6780   -4.3880   -2.2080 ns        1 HFT     -0.462100
     15 C10         0.9630   -5.6560   -2.6990 c         1 HFT      0.637100
     16 O10         2.1150   -6.1140   -2.7880 o         1 HFT     -0.578100
     17 C11        -0.2300   -6.5110   -3.1920 c3        1 HFT      0.101800
     18 C12        -0.5750   -6.0700   -4.6090 c3        1 HFT     -0.113100
     19 C13        -1.4370   -6.4240   -2.2690 c3        1 HFT     -0.113100
     20 O11         0.1710   -7.8720   -3.1780 oh        1 HFT     -0.578800
     21 H2         -0.0100   -1.9970   -1.2950 ha        1 HFT      0.163000
     22 H5          4.9110   -2.8620   -1.1190 ha        1 HFT      0.183000
     23 H6          3.4200   -4.6150   -1.9960 ha        1 HFT      0.194000
     24 HN9        -0.2840   -4.1250   -2.1740 hn        1 HFT      0.329500
     25 H121        0.3190   -6.1610   -5.2720 hc        1 HFT      0.056867
     26 H122       -1.3840   -6.7270   -5.0100 hc        1 HFT      0.056867
     27 H123       -0.9280   -5.0120   -4.6150 hc        1 HFT      0.056867
     28 H131       -2.1170   -7.2870   -2.4800 hc        1 HFT      0.056867
     29 H132       -1.9970   -5.4760   -2.4450 hc        1 HFT      0.056867
     30 H133       -1.1200   -6.4840   -1.2010 hc        1 HFT      0.056867
     31 H11         1.0340   -7.9330   -3.6130 ho        1 HFT      0.429000
@<TRIPOS>BOND
     1    1    2 1   
     2    2    3 1   
     3    2    4 1   
     4    2    5 1   
     5    5    6 ar  
     6    5    7 ar  
     7    6   13 ar  
     8    6   21 1   
     9    7    8 1   
    10    7   11 ar  
    11    8    9 1   
    12    8   10 1   
    13   11   12 ar  
    14   11   22 1   
    15   12   13 ar  
    16   12   23 1   
    17   13   14 1   
    18   14   15 1   
    19   14   24 1   
    20   15   16 2   
    21   15   17 1   
    22   17   18 1   
    23   17   19 1   
    24   17   20 1   
    25   18   25 1   
    26   18   26 1   
    27   18   27 1   
    28   19   28 1   
    29   19   29 1   
    30   19   30 1   
    31   20   31 1   
@<TRIPOS>SUBSTRUCTURE
     1 HFT         1 TEMP              0 ****  ****    0 ROOT
