@<TRIPOS>MOLECULE
HFT
   31    31     1     0     0
SMALL
bcc


@<TRIPOS>ATOM
      1 F1         -0.0810    0.1850   -0.4990 f         1 HFT     -0.221967
      2 C7          1.2860    0.1290   -0.3430 c3        1 HFT      0.695200
      3 F2          1.4760    0.4200    0.9820 f         1 HFT     -0.221967
      4 F3          1.7400    1.2170   -1.0400 f         1 HFT     -0.221967
      5 C3          1.9080   -1.2030   -0.7860 ca        1 HFT     -0.075300
      6 C2          1.0690   -2.1900   -1.2840 ca        1 HFT     -0.164000
      7 C4          3.2920   -1.4410   -0.7000 ca        1 HFT     -0.174200
      8 N1          4.2340   -0.4170   -0.1750 no        1 HFT      0.317200
      9 O2          5.4050   -0.6900   -0.1330 o         1 HFT     -0.195000
     10 O1          3.8110    0.6440    0.1910 o         1 HFT     -0.195000
     11 C5          3.8100   -2.6770   -1.1180 ca        1 HFT     -0.042000
     12 C6          2.9720   -3.6660   -1.6170 ca        1 HFT     -0.152000
     13 C1          1.5810   -3.4430   -1.7130 ca        1 HFT      0.115600
     14 N9          0.6810   -4.3890   -2.2080 n         1 HFT     -0.462100
     15 C10         0.9690   -5.6650   -2.6770 c         1 HFT      0.637100
     16 O10         2.1200   -6.1290   -2.7360 o         1 HFT     -0.578100
     17 C11        -0.2170   -6.5200   -3.1830 c3        1 HFT      0.101800
     18 C12        -0.5310   -6.0970   -4.6130 c3        1 HFT     -0.113100
     19 C13        -1.4430   -6.4160   -2.2870 c3        1 HFT     -0.113100
     20 O11         0.1760   -7.8830   -3.1430 oh        1 HFT     -0.578800
     21 H2         -0.0140   -1.9820   -1.3430 ha        1 HFT      0.163000
     22 H5          4.8970   -2.8690   -1.0510 ha        1 HFT      0.183000
     23 H6          3.4160   -4.6270   -1.9350 ha        1 HFT      0.194000
     24 HN9        -0.2810   -4.1210   -2.1990 hn        1 HFT      0.329500
     25 H121        0.3760   -6.2010   -5.2560 hc        1 HFT      0.056867
     26 H122       -1.3350   -6.7560   -5.0220 hc        1 HFT      0.056867
     27 H123       -0.8790   -5.0380   -4.6400 hc        1 HFT      0.056867
     28 H131       -1.9940   -5.4680   -2.4870 hc        1 HFT      0.056867
     29 H132       -1.1490   -6.4630   -1.2120 hc        1 HFT      0.056867
     30 H133       -2.1230   -7.2780   -2.5010 hc        1 HFT      0.056867
     31 H11         1.0480   -7.9540   -3.5590 ho        1 HFT      0.429000
@<TRIPOS>BOND
     1    1    2 1   
     2    2    3 1   
     3    2    4 1   
     4    2    5 1   
     5    5    6 ar  
     6    5    7 ar  
     7    6   13 ar  
     8    6   21 1   
     9    7    8 1   
    10    7   11 ar  
    11    8    9 1   
    12    8   10 1   
    13   11   12 ar  
    14   11   22 1   
    15   12   13 ar  
    16   12   23 1   
    17   13   14 1   
    18   14   15 1   
    19   14   24 1   
    20   15   16 2   
    21   15   17 1   
    22   17   18 1   
    23   17   19 1   
    24   17   20 1   
    25   18   25 1   
    26   18   26 1   
    27   18   27 1   
    28   19   28 1   
    29   19   29 1   
    30   19   30 1   
    31   20   31 1   
@<TRIPOS>SUBSTRUCTURE
     1 HFT         1 TEMP              0 ****  ****    0 ROOT
