@<TRIPOS>MOLECULE
HFT
   31    31     1     0     0
SMALL
bcc


@<TRIPOS>ATOM
      1 F1         -0.0550    0.1570   -0.4040 f         1 HFT     -0.221967
      2 C7          1.3150    0.1010   -0.2790 c3        1 HFT      0.695200
      3 F2          1.5340    0.3690    1.0460 f         1 HFT     -0.221967
      4 F3          1.7520    1.2010   -0.9670 f         1 HFT     -0.221967
      5 C3          1.9300   -1.2220   -0.7600 ca        1 HFT     -0.075300
      6 C2          1.0810   -2.2020   -1.2560 ca        1 HFT     -0.164000
      7 C4          3.3160   -1.4580   -0.7080 ca        1 HFT     -0.174200
      8 N1          4.2680   -0.4420   -0.1860 no        1 HFT      0.317200
      9 O2          5.4390   -0.7130   -0.1760 o         1 HFT     -0.195000
     10 O1          3.8510    0.6120    0.2070 o         1 HFT     -0.195000
     11 C5          3.8260   -2.6860   -1.1600 ca        1 HFT     -0.042000
     12 C6          2.9790   -3.6680   -1.6570 ca        1 HFT     -0.152000
     13 C1          1.5860   -3.4470   -1.7180 ca        1 HFT      0.115600
     14 N9          0.6760   -4.3860   -2.2090 n         1 HFT     -0.462100
     15 C10         0.9560   -5.6520   -2.7070 c         1 HFT      0.637100
     16 O10         2.1070   -6.1130   -2.7990 o         1 HFT     -0.578100
     17 C11        -0.2400   -6.5010   -3.2010 c3        1 HFT      0.101800
     18 C12        -0.5860   -6.0530   -4.6160 c3        1 HFT     -0.113100
     19 C13        -1.4460   -6.4150   -2.2760 c3        1 HFT     -0.113100
     20 O11         0.1570   -7.8640   -3.1930 oh        1 HFT     -0.578800
     21 H2         -0.0040   -1.9960   -1.2870 ha        1 HFT      0.163000
     22 H5          4.9150   -2.8770   -1.1200 ha        1 HFT      0.183000
     23 H6          3.4170   -4.6220   -2.0020 ha        1 HFT      0.194000
     24 HN9        -0.2850   -4.1200   -2.1730 hn        1 HFT      0.329500
     25 H121        0.3060   -6.1450   -5.2810 hc        1 HFT      0.056867
     26 H122       -1.3980   -6.7070   -5.0180 hc        1 HFT      0.056867
     27 H123       -0.9360   -4.9950   -4.6170 hc        1 HFT      0.056867
     28 H131       -2.1280   -7.2750   -2.4890 hc        1 HFT      0.056867
     29 H132       -2.0030   -5.4650   -2.4470 hc        1 HFT      0.056867
     30 H133       -1.1270   -6.4800   -1.2080 hc        1 HFT      0.056867
     31 H11         1.0190   -7.9250   -3.6300 ho        1 HFT      0.429000
@<TRIPOS>BOND
     1    1    2 1   
     2    2    3 1   
     3    2    4 1   
     4    2    5 1   
     5    5    6 ar  
     6    5    7 ar  
     7    6   13 ar  
     8    6   21 1   
     9    7    8 1   
    10    7   11 ar  
    11    8    9 1   
    12    8   10 1   
    13   11   12 ar  
    14   11   22 1   
    15   12   13 ar  
    16   12   23 1   
    17   13   14 1   
    18   14   15 1   
    19   14   24 1   
    20   15   16 2   
    21   15   17 1   
    22   17   18 1   
    23   17   19 1   
    24   17   20 1   
    25   18   25 1   
    26   18   26 1   
    27   18   27 1   
    28   19   28 1   
    29   19   29 1   
    30   19   30 1   
    31   20   31 1   
@<TRIPOS>SUBSTRUCTURE
     1 HFT         1 TEMP              0 ****  ****    0 ROOT
