@<TRIPOS>MOLECULE
HFT
   31    31     1     0     0
SMALL
bcc


@<TRIPOS>ATOM
      1 F1          2.1570    2.7030   -0.3940 f         1 HFT     -0.221967
      2 C7          2.6440    1.4230   -0.2510 c3        1 HFT      0.695200
      3 F2          3.4670    1.5060    0.8410 f         1 HFT     -0.221967
      4 F3          3.4650    1.2620   -1.3350 f         1 HFT     -0.221967
      5 C3          1.5500    0.3520   -0.1300 ca        1 HFT     -0.075300
      6 C2          0.2230    0.7560   -0.1730 ca        1 HFT     -0.164000
      7 C4          1.8610   -1.0120    0.0220 ca        1 HFT     -0.174200
      8 N1          3.2650   -1.4980    0.0740 no        1 HFT      0.317200
      9 O2          3.4540   -2.6780    0.2030 o         1 HFT     -0.195000
     10 O1          4.1670   -0.7110   -0.0130 o         1 HFT     -0.195000
     11 C5          0.8220   -1.9510    0.1290 ca        1 HFT     -0.042000
     12 C6         -0.5070   -1.5490    0.0860 ca        1 HFT     -0.152000
     13 C1         -0.8360   -0.1840   -0.0680 ca        1 HFT      0.115600
     14 N9         -2.1480    0.2910   -0.1250 n         1 HFT     -0.462100
     15 C10        -3.3200   -0.4520   -0.0440 c         1 HFT      0.637100
     16 O10        -3.3390   -1.6900    0.0700 o         1 HFT     -0.578100
     17 C11        -4.6580    0.3190   -0.1430 c3        1 HFT      0.101800
     18 C12        -4.9530    0.5700   -1.6160 c3        1 HFT     -0.113100
     19 C13        -4.6500    1.6150    0.6560 c3        1 HFT     -0.113100
     20 O11        -5.6720   -0.4860    0.4380 oh        1 HFT     -0.578800
     21 H2          0.0020    1.8320   -0.2930 ha        1 HFT      0.163000
     22 H5          1.0620   -3.0240    0.2500 ha        1 HFT      0.183000
     23 H6         -1.2970   -2.3160    0.1740 ha        1 HFT      0.194000
     24 HN9        -2.2490    1.2800   -0.2080 hn        1 HFT      0.329500
     25 H121       -4.1770    1.2360   -2.0630 hc        1 HFT      0.056867
     26 H122       -4.9740   -0.3950   -2.1780 hc        1 HFT      0.056867
     27 H123       -5.9520    1.0590   -1.7110 hc        1 HFT      0.056867
     28 H131       -5.7060    1.9460    0.8190 hc        1 HFT      0.056867
     29 H132       -4.1760    1.4600    1.6530 hc        1 HFT      0.056867
     30 H133       -4.1070    2.4140    0.0990 hc        1 HFT      0.056867
     31 H11        -5.5890   -1.3790    0.0710 ho        1 HFT      0.429000
@<TRIPOS>BOND
     1    1    2 1   
     2    2    3 1   
     3    2    4 1   
     4    2    5 1   
     5    5    6 ar  
     6    5    7 ar  
     7    6   13 ar  
     8    6   21 1   
     9    7    8 1   
    10    7   11 ar  
    11    8    9 1   
    12    8   10 1   
    13   11   12 ar  
    14   11   22 1   
    15   12   13 ar  
    16   12   23 1   
    17   13   14 1   
    18   14   15 1   
    19   14   24 1   
    20   15   16 2   
    21   15   17 1   
    22   17   18 1   
    23   17   19 1   
    24   17   20 1   
    25   18   25 1   
    26   18   26 1   
    27   18   27 1   
    28   19   28 1   
    29   19   29 1   
    30   19   30 1   
    31   20   31 1   
@<TRIPOS>SUBSTRUCTURE
     1 HFT         1 TEMP              0 ****  ****    0 ROOT
