@<TRIPOS>MOLECULE
HFT
   31    29     1     0     0
SMALL
bcc


@<TRIPOS>ATOM
      1 F1         -0.4830   -2.0200    4.6740 f         1 HFT     -0.151333
      2 C7         -0.0190   -2.5460    3.5340 c3        1 HFT      0.474000
      3 F2          1.0380   -3.3240    3.7990 f         1 HFT     -0.151333
      4 F3         -0.9790   -3.2790    2.9580 f         1 HFT     -0.151333
      5 C3          0.3970   -1.4320    2.5950 c2        1 HFT     -0.068000
      6 C2         -0.3970   -1.1120    1.5050 c1        1 HFT     -0.163000
      7 C4          1.5930   -0.7620    2.8020 c2        1 HFT     -0.132000
      8 N1          2.3680   -1.0360    3.9600 no        1 HFT      0.572000
      9 O2          3.5460   -0.3760    4.1640 o         1 HFT     -0.347000
     10 O1          1.9540   -1.8220    4.8000 o         1 HFT     -0.347000
     11 C5          1.9960    0.2270    1.9170 c1        1 HFT     -0.042000
     12 C6          1.2020    0.5470    0.8260 c1        1 HFT     -0.158000
     13 C1          0.0050   -0.1220    0.6190 c1        1 HFT      0.128000
     14 N9         -0.7640    0.1400   -0.5520 n         1 HFT     -0.307000
     15 C10        -0.3110    1.1010   -1.5020 c2        1 HFT      0.322000
     16 O10         0.7280    1.6940   -1.3140 o         1 HFT     -0.342000
     17 C11        -1.1270    1.3790   -2.7480 c3        1 HFT      0.072000
     18 C12        -1.6040    0.0720   -3.3400 c3        1 HFT     -0.244000
     19 C13        -0.2700    2.1080   -3.7620 c3        1 HFT     -0.244000
     20 O11        -2.2380    2.1750   -2.4140 oh        1 HFT     -0.343000
     21 H2         -1.2400   -1.5830    1.3590 ha        1 HFT      0.166000
     22 H5          2.8370    0.6970    2.0620 ha        1 HFT      0.181000
     23 H6          1.4850    1.2410    0.2050 ha        1 HFT      0.193000
     24 HN9        -1.5320   -0.3230   -0.7050 hn        1 HFT      0.262000
     25 H121       -2.1140    0.2500   -4.1580 hc        1 HFT      0.099333
     26 H122       -2.1770   -0.3900   -2.6930 hc        1 HFT      0.099333
     27 H123       -0.8310   -0.4920   -3.5530 hc        1 HFT      0.099333
     28 H131       -0.8440    2.5040   -4.4510 hc        1 HFT      0.099333
     29 H132        0.2360    2.8160   -3.3120 hc        1 HFT      0.099333
     30 H133        0.3530    1.4760   -4.1780 hc        1 HFT      0.099333
     31 H11        -2.8070    2.1910   -3.0960 ho        1 HFT      0.224000
@<TRIPOS>BOND
     1    1    2 1   
     2    2    3 1   
     3    2    4 1   
     4    2    5 1   
     5    5    6 1   
     6    5    7 1   
     7    6   21 1   
     8    7    8 1   
     9    7   11 1   
    10    8    9 1   
    11    8   10 1   
    12   11   22 1   
    13   12   13 1   
    14   12   23 1   
    15   13   14 1   
    16   14   15 1   
    17   14   24 1   
    18   15   16 1   
    19   15   17 1   
    20   17   18 1   
    21   17   19 1   
    22   17   20 1   
    23   18   25 1   
    24   18   26 1   
    25   18   27 1   
    26   19   28 1   
    27   19   29 1   
    28   19   30 1   
    29   20   31 1   
@<TRIPOS>SUBSTRUCTURE
     1 HFT         1 TEMP              0 ****  ****    0 ROOT
