@<TRIPOS>MOLECULE
HFV
   47    46     1     0     0
SMALL
bcc


@<TRIPOS>ATOM
      1 O20         9.1870    0.7030    1.2300 o         1 HFV     -0.848800
      2 C1          8.4180    0.7460    0.2250 c         1 HFV      0.886600
      3 O19         8.6520    1.4220   -0.8150 o         1 HFV     -0.848800
      4 C2          7.1130   -0.1160    0.2580 c3        1 HFV      0.022500
      5 N14         6.9070   -0.8470    1.5020 n3        1 HFV     -0.891800
      6 C3          5.9330    0.7800   -0.1230 c3        1 HFV     -0.065400
      7 C4          4.6710   -0.0070   -0.4080 c3        1 HFV     -0.073400
      8 C7          3.5660    0.9130   -0.8880 c3        1 HFV     -0.151400
      9 C10         2.3120    0.1570   -1.2840 c         1 HFV      0.663100
     10 O15         1.9360    0.0990   -2.4740 o         1 HFV     -0.630100
     11 N11         1.6070   -0.4800   -0.2790 n         1 HFV     -0.558900
     12 C12         0.3280   -1.1070   -0.4990 c3        1 HFV      0.034700
     13 C16         0.3810   -2.6340   -0.3200 c3        1 HFV      0.008700
     14 S17        -0.8450   -3.4750   -1.2800 sh        1 HFV     -0.482900
     15 C13        -0.7390   -0.5650    0.4940 c         1 HFV      0.631100
     16 O18        -0.4060   -0.0930    1.6010 o         1 HFV     -0.623100
     17 N29        -2.0540   -0.6010    0.0650 n         1 HFV     -0.516900
     18 C30        -3.1450   -0.4750    1.0020 c3        1 HFV     -0.065300
     19 C31        -3.9930   -1.8010    1.1800 c         1 HFV      0.920600
     20 O42        -3.4710   -2.8880    0.8220 o         1 HFV     -0.815300
     21 O43        -5.1270   -1.6660    1.7060 o         1 HFV     -0.815300
     22 C32        -4.1050    0.6740    0.6520 c3        1 HFV     -0.134700
     23 C37        -3.6440    2.0260    1.2730 c3        1 HFV      0.637900
     24 F24        -2.4500    2.5250    0.8250 f         1 HFV     -0.239967
     25 F25        -4.5340    3.0580    1.0660 f         1 HFV     -0.239967
     26 F26        -3.5150    1.9860    2.6390 f         1 HFV     -0.239967
     27 C33        -4.3670    0.8500   -0.8720 c3        1 HFV      0.637900
     28 F21        -4.5040   -0.3180   -1.5750 f         1 HFV     -0.239967
     29 F23        -5.5360    1.5280   -1.1400 f         1 HFV     -0.239967
     30 F22        -3.4180    1.5560   -1.5660 f         1 HFV     -0.239967
     31 H2          7.2340   -0.8970   -0.5500 h1        1 HFV      0.042700
     32 H141        7.8110   -1.1680    1.8120 hn        1 HFV      0.329800
     33 H142        6.5820   -0.2040    2.2020 hn        1 HFV      0.329800
     34 H3C1        5.7370    1.5230    0.6930 hc        1 HFV      0.046700
     35 H3C2        6.2420    1.3570   -1.0360 hc        1 HFV      0.046700
     36 H4C1        4.8810   -0.7810   -1.1920 hc        1 HFV      0.045700
     37 H4C2        4.3430   -0.5500    0.5160 hc        1 HFV      0.045700
     38 H7C1        3.3170    1.6610   -0.0900 hc        1 HFV      0.064700
     39 H7C2        3.9130    1.4790   -1.7930 hc        1 HFV      0.064700
     40 H11         1.8640   -0.3210    0.6690 hn        1 HFV      0.326500
     41 H12         0.0100   -0.8840   -1.5650 h1        1 HFV      0.117700
     42 H161        1.3570   -3.0260   -0.7050 h1        1 HFV      0.081700
     43 H162        0.2980   -2.9000    0.7590 h1        1 HFV      0.081700
     44 H17        -1.8850   -3.4790   -0.4120 hs        1 HFV      0.312800
     45 H29        -2.2520   -1.2160   -0.7030 hn        1 HFV      0.320500
     46 H30        -2.7260   -0.2550    2.0310 h1        1 HFV      0.100700
     47 H32        -5.0980    0.4130    1.1330 hc        1 HFV      0.161700
@<TRIPOS>BOND
     1    1    2 1   
     2    2    3 1   
     3    2    4 1   
     4    4    5 1   
     5    4    6 1   
     6    4   31 1   
     7    5   32 1   
     8    5   33 1   
     9    6    7 1   
    10    6   34 1   
    11    6   35 1   
    12    7    8 1   
    13    7   36 1   
    14    7   37 1   
    15    8    9 1   
    16    8   38 1   
    17    8   39 1   
    18    9   10 2   
    19    9   11 1   
    20   11   12 1   
    21   11   40 1   
    22   12   13 1   
    23   12   15 1   
    24   12   41 1   
    25   13   14 1   
    26   13   42 1   
    27   13   43 1   
    28   14   44 1   
    29   15   16 2   
    30   15   17 1   
    31   17   18 1   
    32   17   45 1   
    33   18   19 1   
    34   18   22 1   
    35   18   46 1   
    36   19   20 1   
    37   19   21 1   
    38   22   23 1   
    39   22   27 1   
    40   22   47 1   
    41   23   24 1   
    42   23   25 1   
    43   23   26 1   
    44   27   28 1   
    45   27   29 1   
    46   27   30 1   
@<TRIPOS>SUBSTRUCTURE
     1 HFV         1 TEMP              0 ****  ****    0 ROOT
