@<TRIPOS>MOLECULE
HFV
   50    49     1     0     0
SMALL
bcc


@<TRIPOS>ATOM
      1 O20         1.9850   -2.9990    3.6970 o         1 HFV     -0.794300
      2 C1          2.7410   -2.8480    2.6940 c         1 HFV      0.893600
      3 O19         3.7430   -3.5540    2.4340 o         1 HFV     -0.794300
      4 C2          2.4500   -1.6370    1.7540 c3        1 HFV     -0.019500
      5 N14         0.9700   -1.5640    1.5270 nz        1 HFV     -0.828600
      6 C3          3.0070   -0.3440    2.3640 c3        1 HFV     -0.084400
      7 C4          4.2240   -0.5900    3.2420 c3        1 HFV     -0.083400
      8 C7          3.8320   -0.8090    4.6940 c3        1 HFV     -0.166400
      9 C10         4.7300   -1.7760    5.4190 c         1 HFV      0.561100
     10 O15         5.5620   -1.4940    6.2690 o         1 HFV     -0.427100
     11 N11         4.5270   -3.2230    5.0800 ny        1 HFV     -0.695800
     12 C12         5.2280   -4.1890    5.9800 c3        1 HFV      0.062500
     13 C16         4.5010   -5.5360    6.0230 c3        1 HFV     -0.045300
     14 S17         2.8010   -5.2940    6.4280 sh        1 HFV     -0.318900
     15 C13         6.6820   -4.4260    5.4990 c         1 HFV      0.664100
     16 O18         7.0330   -4.0840    4.3580 o         1 HFV     -0.558100
     17 N29         7.5260   -5.0560    6.3890 ns        1 HFV     -0.558900
     18 C30         8.9120   -5.2850    6.0710 c3        1 HFV      0.004700
     19 C31         9.2510   -6.7600    5.8010 c         1 HFV      0.608100
     20 O42         8.6580   -7.7820    6.4670 oh        1 HFV     -0.547100
     21 O43        10.0660   -7.1020    4.9510 o         1 HFV     -0.438000
     22 C32         9.9030   -4.7330    7.1140 c3        1 HFV     -0.187700
     23 C37        10.1640   -3.2080    6.8630 c3        1 HFV      0.641900
     24 F24         9.0380   -2.4290    6.9250 f         1 HFV     -0.215633
     25 F25        11.0410   -2.6560    7.7550 f         1 HFV     -0.215633
     26 F26        10.7000   -2.9650    5.6260 f         1 HFV     -0.215633
     27 C33         9.4660   -4.9720    8.5940 c3        1 HFV      0.641900
     28 F21         8.9220   -6.2180    8.7980 f         1 HFV     -0.215633
     29 F23        10.4920   -4.8780    9.4890 f         1 HFV     -0.215633
     30 F22         8.4950   -4.1150    9.0470 f         1 HFV     -0.215633
     31 H2          2.9460   -1.8290    0.7580 hx        1 HFV      0.123700
     32 H141        0.6970   -2.2690    0.8400 hn        1 HFV      0.459467
     33 H142        0.6890   -0.6380    1.2040 hn        1 HFV      0.459467
     34 H3C1        3.3040    0.3420    1.5250 hc        1 HFV      0.066700
     35 H3C2        2.2240    0.1890    2.9670 hc        1 HFV      0.066700
     36 H4C1        4.8160   -1.4550    2.8360 hc        1 HFV      0.087200
     37 H4C2        4.8930    0.3120    3.1820 hc        1 HFV      0.087200
     38 H7C1        2.7690   -1.1830    4.7670 hc        1 HFV      0.114700
     39 H7C2        3.8900    0.1670    5.2550 hc        1 HFV      0.114700
     40 H11         4.8500   -3.3810    4.0960 hn        1 HFV      0.514800
     41 H12         5.2450   -3.7330    7.0180 hx        1 HFV      0.134700
     42 H161        4.6330   -6.0900    5.0610 h1        1 HFV      0.113700
     43 H162        4.9610   -6.1540    6.8370 h1        1 HFV      0.113700
     44 H17         2.2260   -5.7470    5.3170 hs        1 HFV      0.244800
     45 H29         7.2260   -5.2080    7.3260 hn        1 HFV      0.332500
     46 H30         9.1420   -4.7540    5.0830 h1        1 HFV      0.159700
     47 H32        10.8950   -5.2560    6.9690 hc        1 HFV      0.159700
     48 H143        0.5060   -1.7810    2.4250 hn        1 HFV      0.459467
     49 H112        3.4920   -3.4380    5.0970 hn        1 HFV      0.514800
     50 H292        8.1370   -7.4640    7.2170 ho        1 HFV      0.435000
@<TRIPOS>BOND
     1    1    2 1   
     2    2    3 1   
     3    2    4 1   
     4    4    5 1   
     5    4    6 1   
     6    4   31 1   
     7    5   32 1   
     8    5   33 1   
     9    5   48 1   
    10    6    7 1   
    11    6   34 1   
    12    6   35 1   
    13    7    8 1   
    14    7   36 1   
    15    7   37 1   
    16    8    9 1   
    17    8   38 1   
    18    8   39 1   
    19    9   10 2   
    20    9   11 1   
    21   11   12 1   
    22   11   40 1   
    23   11   49 1   
    24   12   13 1   
    25   12   15 1   
    26   12   41 1   
    27   13   14 1   
    28   13   42 1   
    29   13   43 1   
    30   14   44 1   
    31   15   16 2   
    32   15   17 1   
    33   17   18 1   
    34   17   45 1   
    35   18   19 1   
    36   18   22 1   
    37   18   46 1   
    38   19   20 1   
    39   19   21 2   
    40   20   50 1   
    41   22   23 1   
    42   22   27 1   
    43   22   47 1   
    44   23   24 1   
    45   23   25 1   
    46   23   26 1   
    47   27   28 1   
    48   27   29 1   
    49   27   30 1   
@<TRIPOS>SUBSTRUCTURE
     1 HFV         1 TEMP              0 ****  ****    0 ROOT
