@<TRIPOS>MOLECULE
HFV
   50    49     1     0     0
SMALL
bcc


@<TRIPOS>ATOM
      1 O20         3.0160   -3.2470    2.5420 o         1 HFV     -0.795300
      2 C1          3.5880   -2.1290    2.3860 c         1 HFV      0.899600
      3 O19         4.7570   -1.8520    2.7410 o         1 HFV     -0.795300
      4 C2          2.7260   -0.9710    1.7920 c3        1 HFV     -0.020500
      5 N14         1.8940   -1.5230    0.6750 n4        1 HFV     -0.828600
      6 C3          1.8680   -0.3590    2.9060 c3        1 HFV     -0.085400
      7 C4          2.6040   -0.3310    4.2370 c3        1 HFV     -0.080400
      8 C7          2.3660   -1.5960    5.0530 c3        1 HFV     -0.153400
      9 C10         3.6340   -2.0720    5.7150 c         1 HFV      0.580100
     10 O15         4.1610   -1.5900    6.7080 o         1 HFV     -0.441100
     11 N11         4.3350   -3.2420    5.0670 n4        1 HFV     -0.688800
     12 C12         4.8790   -4.2300    6.0490 c3        1 HFV      0.079500
     13 C16         3.9130   -5.3850    6.3100 c3        1 HFV     -0.042300
     14 S17         2.3500   -4.8310    6.8910 sh        1 HFV     -0.347900
     15 C13         6.2220   -4.7800    5.5750 c         1 HFV      0.658100
     16 O18         6.8380   -4.4700    4.5620 o         1 HFV     -0.479000
     17 N29         8.7370   -3.8090    6.7530 n3        1 HFV     -0.926800
     18 C30         9.0980   -5.0750    6.1660 c3        1 HFV      0.111500
     19 C31         8.0320   -6.1310    6.4170 c         1 HFV      0.662100
     20 O42         6.6810   -5.7530    6.4130 os        1 HFV     -0.458200
     21 O43         8.1630   -7.3180    6.6640 o         1 HFV     -0.409000
     22 C32        10.4760   -5.6520    6.5610 c3        1 HFV     -0.211700
     23 C37        11.5750   -5.0180    5.6450 c3        1 HFV      0.642900
     24 F24        11.5400   -3.6480    5.6070 f         1 HFV     -0.215967
     25 F25        12.8520   -5.3470    6.0030 f         1 HFV     -0.215967
     26 F26        11.4500   -5.4110    4.3380 f         1 HFV     -0.215967
     27 C33        10.8200   -5.4420    8.0700 c3        1 HFV      0.642900
     28 F21         9.7700   -5.7330    8.9050 f         1 HFV     -0.215967
     29 F23        11.8530   -6.2250    8.5040 f         1 HFV     -0.215967
     30 F22        11.1680   -4.1560    8.3960 f         1 HFV     -0.215967
     31 H2          3.4130   -0.1850    1.3640 hx        1 HFV      0.122700
     32 H141        1.5840   -2.4690    0.9570 hn        1 HFV      0.459800
     33 H142        2.4680   -1.6060   -0.1670 hn        1 HFV      0.459800
     34 H3C1        0.9060   -0.9260    3.0270 hc        1 HFV      0.065700
     35 H3C2        1.6040    0.6940    2.6190 hc        1 HFV      0.065700
     36 H4C1        3.7020   -0.1710    4.0570 hc        1 HFV      0.089200
     37 H4C2        2.2370    0.5510    4.8280 hc        1 HFV      0.089200
     38 H7C1        1.9190   -2.4060    4.4120 hc        1 HFV      0.110200
     39 H7C2        1.6370   -1.3840    5.8860 hc        1 HFV      0.110200
     40 H11         5.1080   -2.8620    4.4660 hn        1 HFV      0.509800
     41 H12         5.0900   -3.6790    7.0230 hx        1 HFV      0.149700
     42 H161        4.4110   -6.0930    7.0240 h1        1 HFV      0.129200
     43 H162        3.7140   -5.9580    5.3660 h1        1 HFV      0.129200
     44 H17         2.5570   -4.8510    8.2030 hs        1 HFV      0.238800
     45 H29         8.8230   -3.8160    7.7510 hn        1 HFV      0.392800
     46 H30         9.1090   -4.9360    5.0320 h1        1 HFV      0.140700
     47 H32        10.4890   -6.7650    6.3750 hc        1 HFV      0.155700
     48 H143        1.0850   -0.9320    0.4870 hn        1 HFV      0.459800
     49 H112        3.6830   -3.7140    4.4050 hn        1 HFV      0.509800
     50 H292        9.2870   -3.0670    6.3620 hn        1 HFV      0.392800
@<TRIPOS>BOND
     1    1    2 1   
     2    2    3 1   
     3    2    4 1   
     4    4    5 1   
     5    4    6 1   
     6    4   31 1   
     7    5   32 1   
     8    5   33 1   
     9    5   48 1   
    10    6    7 1   
    11    6   34 1   
    12    6   35 1   
    13    7    8 1   
    14    7   36 1   
    15    7   37 1   
    16    8    9 1   
    17    8   38 1   
    18    8   39 1   
    19    9   10 2   
    20    9   11 1   
    21   11   12 1   
    22   11   40 1   
    23   11   49 1   
    24   12   13 1   
    25   12   15 1   
    26   12   41 1   
    27   13   14 1   
    28   13   42 1   
    29   13   43 1   
    30   14   44 1   
    31   15   16 2   
    32   15   20 1   
    33   17   18 1   
    34   17   45 1   
    35   17   50 1   
    36   18   19 1   
    37   18   22 1   
    38   18   46 1   
    39   19   20 1   
    40   19   21 2   
    41   22   23 1   
    42   22   27 1   
    43   22   47 1   
    44   23   24 1   
    45   23   25 1   
    46   23   26 1   
    47   27   28 1   
    48   27   29 1   
    49   27   30 1   
@<TRIPOS>SUBSTRUCTURE
     1 HFV         1 TEMP              0 ****  ****    0 ROOT
