@<TRIPOS>MOLECULE
HFV
   50    49     1     0     0
SMALL
bcc


@<TRIPOS>ATOM
      1 O20         3.0520   -3.1420    2.5150 o         1 HFV     -0.795300
      2 C1          3.5770   -1.9910    2.4660 c         1 HFV      0.899600
      3 O19         4.7280   -1.6980    2.8660 o         1 HFV     -0.795300
      4 C2          2.6760   -0.8240    1.9560 c3        1 HFV     -0.020500
      5 N14         1.8880   -1.3120    0.7790 n4        1 HFV     -0.828600
      6 C3          1.7750   -0.3460    3.1000 c3        1 HFV     -0.085400
      7 C4          2.4860   -0.4020    4.4420 c3        1 HFV     -0.080400
      8 C7          2.2910   -1.7410    5.1440 c3        1 HFV     -0.153400
      9 C10         3.5670   -2.2190    5.7870 c         1 HFV      0.580100
     10 O15         4.0560   -1.8030    6.8290 o         1 HFV     -0.441100
     11 N11         4.3270   -3.2990    5.0570 n4        1 HFV     -0.688800
     12 C12         4.8980   -4.3440    5.9620 c3        1 HFV      0.079500
     13 C16         3.9780   -5.5560    6.1040 c3        1 HFV     -0.042300
     14 S17         2.3830   -5.1200    6.6980 sh        1 HFV     -0.347900
     15 C13         6.2710   -4.7950    5.4700 c         1 HFV      0.658100
     16 O18         6.8900   -4.3740    4.5000 o         1 HFV     -0.479000
     17 N29         8.7220   -3.8260    6.7760 n3        1 HFV     -0.926800
     18 C30         9.1470   -5.0210    6.0910 c3        1 HFV      0.111500
     19 C31         8.1230   -6.1380    6.2290 c         1 HFV      0.662100
     20 O42         6.7580   -5.8160    6.2300 os        1 HFV     -0.458200
     21 O43         8.3000   -7.3350    6.3760 o         1 HFV     -0.409000
     22 C32        10.5410   -5.5730    6.4620 c3        1 HFV     -0.211700
     23 C37        11.6270   -4.8170    5.6270 c3        1 HFV      0.642900
     24 F24        11.5350   -3.4510    5.7050 f         1 HFV     -0.215967
     25 F25        12.9110   -5.1230    5.9800 f         1 HFV     -0.215967
     26 F26        11.5400   -5.1000    4.2880 f         1 HFV     -0.215967
     27 C33        10.8520   -5.4800    7.9910 c3        1 HFV      0.642900
     28 F21         9.8020   -5.8850    8.7770 f         1 HFV     -0.215967
     29 F23        11.9100   -6.2540    8.3760 f         1 HFV     -0.215967
     30 F22        11.1390   -4.2130    8.4320 f         1 HFV     -0.215967
     31 H2          3.3360    0.0240    1.6100 hx        1 HFV      0.122700
     32 H141        2.4780   -1.2980   -0.0560 hn        1 HFV      0.459800
     33 H142        1.6140   -2.2910    0.9730 hn        1 HFV      0.459800
     34 H3C1        0.8360   -0.9610    3.1530 hc        1 HFV      0.065700
     35 H3C2        1.4700    0.7160    2.8990 hc        1 HFV      0.065700
     36 H4C1        3.5800   -0.1810    4.3000 hc        1 HFV      0.089200
     37 H4C2        2.0720    0.4100    5.0990 hc        1 HFV      0.089200
     38 H7C1        1.8890   -2.5110    4.4270 hc        1 HFV      0.110200
     39 H7C2        1.5400   -1.6310    5.9760 hc        1 HFV      0.110200
     40 H11         5.0940   -2.8370    4.5060 hn        1 HFV      0.509800
     41 H12         5.0680   -3.8700    6.9830 hx        1 HFV      0.149700
     42 H161        4.4940   -6.3020    6.7640 h1        1 HFV      0.129200
     43 H162        3.8200   -6.0540    5.1110 h1        1 HFV      0.129200
     44 H17         2.5700   -5.2440    8.0070 hs        1 HFV      0.238800
     45 H29         8.7930   -3.9160    7.7720 hn        1 HFV      0.392800
     46 H30         9.1710   -4.7840    4.9730 h1        1 HFV      0.140700
     47 H32        10.6050   -6.6640    6.1820 hc        1 HFV      0.155700
     48 H143        1.0570   -0.7410    0.6260 hn        1 HFV      0.459800
     49 H112        3.7080   -3.7390    4.3440 hn        1 HFV      0.509800
     50 H292        9.2460   -3.0310    6.4620 hn        1 HFV      0.392800
@<TRIPOS>BOND
     1    1    2 1   
     2    2    3 1   
     3    2    4 1   
     4    4    5 1   
     5    4    6 1   
     6    4   31 1   
     7    5   32 1   
     8    5   33 1   
     9    5   48 1   
    10    6    7 1   
    11    6   34 1   
    12    6   35 1   
    13    7    8 1   
    14    7   36 1   
    15    7   37 1   
    16    8    9 1   
    17    8   38 1   
    18    8   39 1   
    19    9   10 2   
    20    9   11 1   
    21   11   12 1   
    22   11   40 1   
    23   11   49 1   
    24   12   13 1   
    25   12   15 1   
    26   12   41 1   
    27   13   14 1   
    28   13   42 1   
    29   13   43 1   
    30   14   44 1   
    31   15   16 2   
    32   15   20 1   
    33   17   18 1   
    34   17   45 1   
    35   17   50 1   
    36   18   19 1   
    37   18   22 1   
    38   18   46 1   
    39   19   20 1   
    40   19   21 2   
    41   22   23 1   
    42   22   27 1   
    43   22   47 1   
    44   23   24 1   
    45   23   25 1   
    46   23   26 1   
    47   27   28 1   
    48   27   29 1   
    49   27   30 1   
@<TRIPOS>SUBSTRUCTURE
     1 HFV         1 TEMP              0 ****  ****    0 ROOT
