@<TRIPOS>MOLECULE
HFV
   47    45     1     0     0
SMALL
bcc


@<TRIPOS>ATOM
      1 O20        -4.6130    6.0760    1.9960 o         1 HFV     -0.568000
      2 C1         -3.3910    6.2690    1.7630 c1        1 HFV      0.305000
      3 O19        -2.6900    6.9210    2.5800 os        1 HFV     -0.594000
      4 C2         -2.7680    5.7260    0.4980 c3        1 HFV     -0.129000
      5 N14        -2.2070    6.7970   -0.2510 n3        1 HFV     -0.320000
      6 C3         -1.6820    4.7370    0.8540 c3        1 HFV     -0.130000
      7 C4         -2.0710    3.3610    0.3590 c3        1 HFV     -0.166000
      8 C7         -0.8210    2.5600    0.0660 c3        1 HFV     -0.175000
      9 C10        -1.0430    1.1170    0.4630 c2        1 HFV      0.310000
     10 O15        -1.6820    0.8540    1.4620 o         1 HFV     -0.387000
     11 N11        -0.5050    0.0710   -0.3310 n         1 HFV     -0.369000
     12 C12        -0.7190   -1.2830    0.0390 c3        1 HFV      0.009000
     13 C16        -2.1330   -1.6850   -0.3180 c3        1 HFV     -0.255000
     14 S17        -2.6660   -2.9900    0.7580 sh        1 HFV     -0.119000
     15 C13         0.2590   -2.1680   -0.7010 c2        1 HFV      0.266000
     16 O18         0.1110   -2.3760   -1.8890 o         1 HFV     -0.397000
     17 N29         1.3230   -2.7900    0.0010 n         1 HFV     -0.330000
     18 C30         2.0920   -3.8040   -0.6290 c3        1 HFV     -0.090000
     19 C31         1.9290   -5.1040    0.1260 c2        1 HFV      0.341000
     20 O42         1.8330   -5.0940    1.3810 o         1 HFV     -0.545500
     21 O43         1.8900   -6.1950   -0.5000 o         1 HFV     -0.545500
     22 C32         3.5500   -3.4010   -0.6320 c3        1 HFV     -0.156000
     23 C37         4.2860   -4.1640    0.4480 c3        1 HFV      0.442000
     24 F24         3.7760   -3.8460    1.6450 f         1 HFV     -0.166833
     25 F25         4.1470   -5.4790    0.2390 f         1 HFV     -0.166833
     26 F26         5.5850   -3.8410    0.4160 f         1 HFV     -0.166833
     27 C33         4.1590   -3.7220   -1.9790 c3        1 HFV      0.442000
     28 F21         5.4830   -3.5220   -1.9300 f         1 HFV     -0.166833
     29 F23         3.9120   -5.0010   -2.2880 f         1 HFV     -0.166833
     30 F22         3.6220   -2.9260   -2.9130 f         1 HFV     -0.166833
     31 H2         -3.4540    5.2790   -0.0370 h1        1 HFV      0.084000
     32 H141       -2.6050    6.8350   -1.0750 hn        1 HFV      0.122500
     33 H142       -2.3470    7.5860    0.1920 hn        1 HFV      0.122500
     34 H3C1       -1.5690    4.7140    1.8260 hc        1 HFV      0.064500
     35 H3C2       -0.8420    5.0100    0.4340 hc        1 HFV      0.064500
     36 H4C1       -2.5970    2.9040    1.0450 hc        1 HFV      0.109000
     37 H4C2       -2.6020    3.4470   -0.4570 hc        1 HFV      0.109000
     38 H7C1       -0.6210    2.6070   -0.8910 hc        1 HFV      0.100000
     39 H7C2       -0.0710    2.9270    0.5750 hc        1 HFV      0.100000
     40 H11        -0.0290    0.2690   -1.0830 hn        1 HFV      0.237000
     41 H12        -0.5850   -1.3830    1.0020 h1        1 HFV      0.159000
     42 H161       -2.1600   -1.9960   -1.2450 h1        1 HFV      0.121000
     43 H162       -2.7270   -0.9150   -0.2150 h1        1 HFV      0.121000
     44 H17        -3.6620   -3.4600    0.3420 hs        1 HFV      0.136000
     45 H29         1.4960   -2.5580    0.8660 hn        1 HFV      0.245000
     46 H30         1.7850   -3.9210   -1.5500 h1        1 HFV      0.129000
     47 H32         3.6240   -2.4430   -0.4610 hc        1 HFV      0.140000
@<TRIPOS>BOND
     1    1    2 1   
     2    2    4 1   
     3    4    5 1   
     4    4    6 1   
     5    4   31 1   
     6    5   32 1   
     7    5   33 1   
     8    6    7 1   
     9    6   34 1   
    10    6   35 1   
    11    7    8 1   
    12    7   36 1   
    13    7   37 1   
    14    8    9 1   
    15    8   38 1   
    16    8   39 1   
    17    9   10 1   
    18    9   11 1   
    19   11   12 1   
    20   11   40 1   
    21   12   13 1   
    22   12   15 1   
    23   12   41 1   
    24   13   14 1   
    25   13   42 1   
    26   13   43 1   
    27   14   44 1   
    28   15   16 1   
    29   15   17 1   
    30   17   18 1   
    31   17   45 1   
    32   18   19 1   
    33   18   22 1   
    34   18   46 1   
    35   19   20 1   
    36   19   21 1   
    37   22   23 1   
    38   22   27 1   
    39   22   47 1   
    40   23   24 1   
    41   23   25 1   
    42   23   26 1   
    43   27   28 1   
    44   27   29 1   
    45   27   30 1   
@<TRIPOS>SUBSTRUCTURE
     1 HFV         1 TEMP              0 ****  ****    0 ROOT
