@<TRIPOS>MOLECULE
HFZ
   28    29     1     0     0
SMALL
bcc


@<TRIPOS>ATOM
      1 N01         2.6080    1.6960   -1.4380 n3        1 HFZ     -1.027700
      2 S02         2.1380    1.6030    0.0820 sy        1 HFZ      1.525200
      3 O03         3.1730    1.0970    0.8850 o         1 HFZ     -0.648300
      4 O04         1.5400    2.8230    0.4620 o         1 HFZ     -0.648300
      5 C05         0.8940    0.4220    0.0330 ca        1 HFZ     -0.398500
      6 C06        -0.4160    0.9060    0.0220 ca        1 HFZ      0.116000
      7 C07        -1.5500    0.0930    0.0310 ca        1 HFZ     -0.461500
      8 C08        -1.3640   -1.3160    0.0690 ca        1 HFZ      0.344600
      9 C09        -0.0320   -1.8300    0.0680 ca        1 HFZ     -0.216000
     10 C10         1.0530   -0.9770    0.0460 ca        1 HFZ      0.048700
     11 C11         2.4410   -1.6530    0.0490 c3        1 HFZ      0.674200
     12 F12         2.4170   -2.9720   -0.3430 f         1 HFZ     -0.224967
     13 F13         3.3520   -1.0910   -0.8120 f         1 HFZ     -0.224967
     14 F14         3.0530   -1.6830    1.2720 f         1 HFZ     -0.224967
     15 N15        -2.4290   -2.1770    0.1080 nh        1 HFZ     -0.800600
     16 C16        -3.8110   -1.7070    0.1200 c3        1 HFZ      0.510000
     17 N17        -3.9940   -0.4190   -0.4840 n3        1 HFZ     -0.913100
     18 S18        -3.0690    0.8410   -0.0120 sy        1 HFZ      1.532200
     19 O19        -3.4210    1.2590    1.2740 o         1 HFZ     -0.640300
     20 O20        -3.0850    1.8220   -1.0160 o         1 HFZ     -0.640300
     21 HN01        3.2710    1.0800   -1.8420 hn        1 HFZ      0.454800
     22 HN0A        2.2780    2.3770   -2.0760 hn        1 HFZ      0.454800
     23 H06        -0.5700    2.0100    0.0090 ha        1 HFZ      0.182000
     24 H09         0.1260   -2.9220    0.0870 ha        1 HFZ      0.161000
     25 HN15       -2.2710   -3.1550    0.0490 hn        1 HFZ      0.457800
     26 H16        -4.4460   -2.4820   -0.4050 h2        1 HFZ      0.073200
     27 H16A       -4.1360   -1.6470    1.2090 h2        1 HFZ      0.073200
     28 HN17       -4.5590   -0.4020   -1.2980 hn        1 HFZ      0.462800
@<TRIPOS>BOND
     1    1    2 1   
     2    1   21 1   
     3    1   22 1   
     4    2    3 2   
     5    2    4 2   
     6    2    5 1   
     7    5    6 ar  
     8    5   10 ar  
     9    6    7 ar  
    10    6   23 1   
    11    7    8 ar  
    12    7   18 1   
    13    8    9 ar  
    14    8   15 1   
    15    9   10 ar  
    16    9   24 1   
    17   10   11 1   
    18   11   12 1   
    19   11   13 1   
    20   11   14 1   
    21   15   16 1   
    22   15   25 1   
    23   16   17 1   
    24   16   26 1   
    25   16   27 1   
    26   17   18 1   
    27   17   28 1   
    28   18   19 2   
    29   18   20 2   
@<TRIPOS>SUBSTRUCTURE
     1 HFZ         1 TEMP              0 ****  ****    0 ROOT
