@<TRIPOS>MOLECULE
HFZ
   29    30     1     0     0
SMALL
bcc


@<TRIPOS>ATOM
      1 N01         0.0820   -0.1010   -0.4360 n4        1 HFZ     -0.786500
      2 S02         1.9250    0.0740    0.0480 sy        1 HFZ      1.493200
      3 O03         1.8190   -0.0160    1.4180 o         1 HFZ     -0.564300
      4 O04         2.4650   -0.9490   -0.7070 o         1 HFZ     -0.564300
      5 C05         2.1900    1.5370   -0.5390 ca        1 HFZ     -0.610500
      6 C06         2.8460    1.6220   -1.7920 ca        1 HFZ      0.162000
      7 C07         3.2780    2.7950   -2.3730 ca        1 HFZ     -0.439500
      8 C08         3.0740    4.0280   -1.6730 ca        1 HFZ      0.378600
      9 C09         2.3600    3.9760   -0.4190 ca        1 HFZ     -0.190000
     10 C10         1.9360    2.7880    0.1040 ca        1 HFZ      0.044700
     11 C11         1.1470    2.8640    1.4350 c3        1 HFZ      0.670200
     12 F12         0.6680    4.1140    1.7270 f         1 HFZ     -0.213300
     13 F13         0.0210    2.0700    1.4350 f         1 HFZ     -0.213300
     14 F14         1.8660    2.4900    2.5350 f         1 HFZ     -0.213300
     15 N15         3.5190    5.2030   -2.1640 nh        1 HFZ     -0.734600
     16 C16         4.2590    5.3010   -3.4340 c3        1 HFZ      0.495000
     17 N17         3.9430    4.2550   -4.3600 n3        1 HFZ     -0.914100
     18 S18         4.0520    2.6980   -3.9150 sy        1 HFZ      1.527200
     19 O19         5.3680    2.3080   -3.6950 o         1 HFZ     -0.617800
     20 O20         3.2520    1.8920   -4.7280 o         1 HFZ     -0.617800
     21 HN01       -0.4910   -0.1460    0.4070 hn        1 HFZ      0.458133
     22 HN0A       -0.2480    0.6860   -0.9860 hn        1 HFZ      0.458133
     23 H06         3.0350    0.6720   -2.3460 ha        1 HFZ      0.186000
     24 H09         2.1550    4.9230    0.1160 ha        1 HFZ      0.185000
     25 HN15        3.3590    6.0520   -1.6640 hn        1 HFZ      0.478800
     26 H16         4.0270    6.3140   -3.8830 h2        1 HFZ      0.101700
     27 H16A        5.3660    5.2550   -3.1720 h2        1 HFZ      0.101700
     28 HN17        3.5400    4.5530   -5.2180 hn        1 HFZ      0.482800
     29 H013       -0.0760   -0.9510   -0.9730 hn        1 HFZ      0.458133
@<TRIPOS>BOND
     1    1    2 1   
     2    1   21 1   
     3    1   22 1   
     4    1   29 1   
     5    2    3 2   
     6    2    4 2   
     7    2    5 1   
     8    5    6 ar  
     9    5   10 ar  
    10    6    7 ar  
    11    6   23 1   
    12    7    8 ar  
    13    7   18 1   
    14    8    9 ar  
    15    8   15 1   
    16    9   10 ar  
    17    9   24 1   
    18   10   11 1   
    19   11   12 1   
    20   11   13 1   
    21   11   14 1   
    22   15   16 1   
    23   15   25 1   
    24   16   17 1   
    25   16   26 1   
    26   16   27 1   
    27   17   18 1   
    28   17   28 1   
    29   18   19 2   
    30   18   20 2   
@<TRIPOS>SUBSTRUCTURE
     1 HFZ         1 TEMP              0 ****  ****    0 ROOT
