@<TRIPOS>MOLECULE
HG1
   61    61     1     0     0
SMALL
bcc


@<TRIPOS>ATOM
      1 CAO         5.8080    1.9500    1.9500 c3        1 HG1     -0.073400
      2 CAJ         7.1590    2.3100    1.3730 c3        1 HG1     -0.076400
      3 CAI         7.1140    3.3370    0.4320 c3        1 HG1     -0.076400
      4 CAK         6.1860    3.1460   -0.5930 c3        1 HG1     -0.076400
      5 CAP         4.7920    2.8240   -0.1030 c3        1 HG1     -0.073400
      6 CAU         4.7180    1.5950    0.8730 c3        1 HG1     -0.062700
      7 CAQ         3.4430    1.4980    1.4630 c3        1 HG1     -0.076400
      8 CAL         2.6580    0.3470    0.8060 c3        1 HG1     -0.075400
      9 CAN         1.2340    0.2810    1.4100 c3        1 HG1     -0.144400
     10 CAT         0.3880   -0.7400    0.6210 c         1 HG1      0.669100
     11 OAA         0.9230   -1.4810   -0.1820 o         1 HG1     -0.620100
     12 NAZ        -1.0430   -0.8510    0.8730 n         1 HG1     -0.479800
     13 CAR        -1.5180   -1.4080    2.1260 c3        1 HG1      0.092000
     14 CAH        -1.9460   -0.2760    3.0590 c3        1 HG1      0.107400
     15 OAB        -2.9580   -0.7440    3.9380 oh        1 HG1     -0.601800
     16 CAS        -1.9970   -0.4240   -0.1420 c3        1 HG1      0.063000
     17 CAW        -2.6030   -1.6520   -0.8210 c3        1 HG1      0.090100
     18 H25        -3.0770   -2.1910   -0.1570 h1        1 HG1      0.072700
     19 CAY        -3.5760   -1.2060   -1.8990 c3        1 HG1      0.080100
     20 OAG        -2.8880   -1.0360   -3.1100 oh        1 HG1     -0.593800
     21 CAX        -4.6550   -2.2590   -2.0740 c3        1 HG1      0.120100
     22 OAF        -4.2300   -3.2130   -3.0120 oh        1 HG1     -0.615800
     23 H1          5.9180    1.1830    2.5420 hc        1 HG1      0.038950
     24 H2          5.4850    2.7080    2.4790 hc        1 HG1      0.038950
     25 H3          7.5380    1.5150    0.9480 hc        1 HG1      0.039450
     26 H4          7.7480    2.5830    2.1050 hc        1 HG1      0.039450
     27 H5          8.0030    3.4290    0.0320 hc        1 HG1      0.038700
     28 H6          6.8940    4.1730    0.8970 hc        1 HG1      0.038700
     29 H7          6.4950    2.4090   -1.1620 hc        1 HG1      0.039450
     30 H8          6.1460    3.9610   -1.1330 hc        1 HG1      0.039450
     31 H9          4.2270    2.6380   -0.8770 hc        1 HG1      0.038950
     32 H10         4.4380    3.6060    0.3580 hc        1 HG1      0.038950
     33 H11         4.9500    0.7660    0.4060 hc        1 HG1      0.052700
     34 H12         3.5390    1.3220    2.4230 hc        1 HG1      0.038200
     35 H13         2.9590    2.3380    1.3330 hc        1 HG1      0.038200
     36 H14         3.1220   -0.5000    0.9710 hc        1 HG1      0.060700
     37 H15         2.5970    0.5030   -0.1560 hc        1 HG1      0.060700
     38 H16         1.2890    0.0040    2.3470 hc        1 HG1      0.066700
     39 H17         0.8150    1.1620    1.3550 hc        1 HG1      0.066700
     40 H18        -2.2850   -1.9970    1.9520 h1        1 HG1      0.064700
     41 H19        -0.8020   -1.9220    2.5450 h1        1 HG1      0.064700
     42 H20        -2.2920    0.4670    2.5310 h1        1 HG1      0.029700
     43 H21        -1.1740    0.0270    3.5810 h1        1 HG1      0.029700
     44 H22        -3.1270   -0.1190    4.5620 ho        1 HG1      0.407000
     45 H23        -1.5390    0.1250   -0.8100 h1        1 HG1      0.075200
     46 H24        -2.7090    0.1000    0.2780 h1        1 HG1      0.075200
     47 OAE        -1.5880   -2.4120   -1.3970 oh        1 HG1     -0.622800
     48 H27        -3.9860   -0.3600   -1.6370 h1        1 HG1      0.101700
     49 H28        -3.0900   -0.2470   -3.4560 ho        1 HG1      0.415000
     50 H29        -4.8250   -2.6980   -1.2160 h1        1 HG1      0.056700
     51 C17        -5.9280   -1.6000   -2.5660 c3        1 HG1      0.147100
     52 H31        -4.4530   -4.0250   -2.7290 ho        1 HG1      0.432000
     53 C18        -6.9560   -2.6650   -2.8870 c3        1 HG1      0.097400
     54 O6         -8.2140   -2.0630   -3.0650 oh        1 HG1     -0.617800
     55 H30        -5.7360   -1.0820   -3.3680 h1        1 HG1      0.069700
     56 O7         -6.4310   -0.7490   -1.5670 oh        1 HG1     -0.611800
     57 H26        -1.6610   -3.2570   -1.1280 ho        1 HG1      0.437000
     58 H32        -7.0020   -3.3080   -2.1470 h1        1 HG1      0.045200
     59 H33        -6.6960   -3.1330   -3.7110 h1        1 HG1      0.045200
     60 H34        -8.7480   -2.6180   -3.5210 ho        1 HG1      0.409000
     61 H35        -6.8530   -0.0710   -1.9450 ho        1 HG1      0.426000
@<TRIPOS>BOND
     1    1    2 1   
     2    1    6 1   
     3    1   23 1   
     4    1   24 1   
     5    2    3 1   
     6    2   25 1   
     7    2   26 1   
     8    3    4 1   
     9    3   27 1   
    10    3   28 1   
    11    4    5 1   
    12    4   29 1   
    13    4   30 1   
    14    5    6 1   
    15    5   31 1   
    16    5   32 1   
    17    6    7 1   
    18    6   33 1   
    19    7    8 1   
    20    7   34 1   
    21    7   35 1   
    22    8    9 1   
    23    8   36 1   
    24    8   37 1   
    25    9   10 1   
    26    9   38 1   
    27    9   39 1   
    28   10   11 2   
    29   10   12 1   
    30   12   13 1   
    31   12   16 1   
    32   13   14 1   
    33   13   40 1   
    34   13   41 1   
    35   14   15 1   
    36   14   42 1   
    37   14   43 1   
    38   15   44 1   
    39   16   17 1   
    40   16   45 1   
    41   16   46 1   
    42   17   18 1   
    43   17   19 1   
    44   17   47 1   
    45   19   20 1   
    46   19   21 1   
    47   19   48 1   
    48   20   49 1   
    49   21   22 1   
    50   21   50 1   
    51   21   51 1   
    52   22   52 1   
    53   47   57 1   
    54   51   53 1   
    55   51   55 1   
    56   51   56 1   
    57   53   54 1   
    58   53   58 1   
    59   53   59 1   
    60   54   60 1   
    61   56   61 1   
@<TRIPOS>SUBSTRUCTURE
     1 HG1         1 TEMP              0 ****  ****    0 ROOT
