@<TRIPOS>MOLECULE
HG1
   61    52     1     0     0
SMALL
bcc


@<TRIPOS>ATOM
      1 CAO         0.4530    2.6140    0.9630 c3        1 HG1     -0.215000
      2 CAJ         3.7270    2.1520    3.2300 c1        1 HG1     -0.222250
      3 CAI         3.1100    1.1490    3.0250 c1        1 HG1     -0.222250
      4 CAK         1.8790   -2.1040    3.6030 c1        1 HG1     -0.222250
      5 CAP         1.0600   -2.0710    2.7320 c1        1 HG1     -0.222250
      6 CAU        -0.8560    1.8940    1.1770 c3        1 HG1     -0.152000
      7 CAQ        -1.3930   -1.8050    0.0430 c3        1 HG1     -0.279000
      8 CAL        -1.9210    2.4150    0.2870 c2        1 HG1     -0.064000
      9 CAN        -2.7400    1.6280   -0.4220 c2        1 HG1     -0.239000
     10 CAT        -3.8000    2.2120   -1.2790 c2        1 HG1      0.345000
     11 OAA        -3.9850    3.4520   -1.3560 o         1 HG1     -0.423000
     12 NAZ        -4.6000    1.3450   -1.9900 n         1 HG1     -0.381000
     13 CAR        -8.1150    5.8150   -0.4890 c1        1 HG1     -0.277000
     14 CAH        -7.3880    5.1950   -1.2060 c1        1 HG1     -0.050000
     15 OAB        -6.6610    4.4950   -2.0620 oh        1 HG1     -0.186000
     16 CAS        -5.6060    1.8120   -2.9050 c3        1 HG1     -0.119000
     17 CAW        -6.0530    0.9430   -4.0290 c1        1 HG1     -0.028000
     18 H25        -6.8120    0.8860   -8.3670 h1        1 HG1      0.097500
     19 CAY        -7.8650    0.7140   -8.0190 c3        1 HG1     -0.050000
     20 OAG        -8.5310   -0.1550   -8.9270 oh        1 HG1     -0.364500
     21 CAX        -7.8690    0.0290   -6.6570 c3        1 HG1     -0.050000
     22 OAF        -6.9840   -1.0730   -6.6310 oh        1 HG1     -0.364500
     23 H1          0.8160    2.4710   -0.0830 hc        1 HG1      0.081667
     24 H2         -2.0180    3.5160    0.2390 ha        1 HG1      0.150000
     25 H3          0.3380    3.7090    1.1500 hc        1 HG1      0.081667
     26 H4          4.2730    3.0430    3.4120 ha        1 HG1      0.221750
     27 H5          1.5660   -0.4530    0.7370 ha        1 HG1      0.001750
     28 H6          1.2290    2.2130    1.6630 hc        1 HG1      0.081667
     29 H7          1.5000    0.1650    0.4660 ha        1 HG1      0.001750
     30 H8          2.5660    0.2520    2.8450 ha        1 HG1      0.221750
     31 H9          2.6040   -2.1350    4.3770 ha        1 HG1      0.221750
     32 H10         0.3310   -2.0470    1.9580 ha        1 HG1      0.221750
     33 H11        -1.1910    2.0320    2.2420 hc        1 HG1      0.093500
     34 H12        -0.7080    0.7900    1.0170 hc        1 HG1      0.093500
     35 H13        -0.4590   -1.2310   -0.1530 hc        1 HG1      0.070750
     36 H14        -1.9080   -1.3830    0.9340 hc        1 HG1      0.070750
     37 H15        -2.0630   -1.7330   -0.8420 hc        1 HG1      0.070750
     38 H16        -2.6520    0.5290   -0.3940 ha        1 HG1      0.134000
     39 H17        -1.1430   -2.8720    0.2290 hc        1 HG1      0.070750
     40 H18        -8.7600    6.3650    0.1430 ha        1 HG1      0.234000
     41 H19        -4.4120    0.3720   -1.9680 hn        1 HG1      0.231000
     42 H20        -4.2650    4.8810   -3.2670 ha        1 HG1      0.001750
     43 H21        -4.7890    5.0240   -3.6720 ha        1 HG1      0.001750
     44 H22        -5.7520    4.4510   -1.6900 ho        1 HG1      0.267000
     45 H23        -6.5520    2.0710   -2.3300 h1        1 HG1      0.144500
     46 H24        -5.2650    2.7880   -3.3780 h1        1 HG1      0.144500
     47 OAE        -5.5040   -0.2520   -4.0970 oh        1 HG1     -0.243000
     48 H27        -8.4080    1.6930   -7.9580 h1        1 HG1      0.097500
     49 H28        -8.5450    0.2860   -9.7830 ho        1 HG1      0.219000
     50 H29        -7.4750    0.7350   -5.8710 h1        1 HG1      0.097500
     51 C17        -8.6320   -3.2070   -9.0870 c3        1 HG1     -0.157000
     52 H31        -7.3540   -1.7590   -7.2040 ho        1 HG1      0.219000
     53 C18        -9.6170   -4.0070   -9.8820 c1        1 HG1      0.009000
     54 O6        -10.7830   -4.2410   -9.3900 oh        1 HG1     -0.149000
     55 H30        -8.9100   -0.3030   -6.3980 h1        1 HG1      0.097500
     56 O7         -9.1870   -2.7290   -7.8680 oh        1 HG1     -0.365000
     57 H26        -5.8850   -0.7160   -4.8720 ho        1 HG1      0.286000
     58 H32        -8.2320   -2.3660   -9.7140 h1        1 HG1      0.131000
     59 H33        -7.7800   -3.8820   -8.7920 h1        1 HG1      0.131000
     60 H34       -10.9550   -3.8690   -8.4920 ho        1 HG1      0.177000
     61 H35        -9.5250   -1.8380   -8.0300 ho        1 HG1      0.224000
@<TRIPOS>BOND
     1    1    6 1   
     2    1   23 1   
     3    1   25 1   
     4    1   28 1   
     5    2    3 1   
     6    2   26 1   
     7    3   30 1   
     8    4    5 1   
     9    4   31 1   
    10    5   32 1   
    11    6    8 1   
    12    6   33 1   
    13    6   34 1   
    14    7   35 1   
    15    7   36 1   
    16    7   37 1   
    17    7   39 1   
    18    8    9 1   
    19    8   24 1   
    20    9   10 1   
    21    9   38 1   
    22   10   11 1   
    23   10   12 1   
    24   12   16 1   
    25   12   41 1   
    26   13   14 1   
    27   13   40 1   
    28   14   15 1   
    29   15   44 1   
    30   16   17 1   
    31   16   45 1   
    32   16   46 1   
    33   17   47 1   
    34   18   19 1   
    35   19   20 1   
    36   19   21 1   
    37   19   48 1   
    38   20   49 1   
    39   21   22 1   
    40   21   50 1   
    41   21   55 1   
    42   22   52 1   
    43   27   29 1   
    44   42   43 1   
    45   47   57 1   
    46   51   53 1   
    47   51   56 1   
    48   51   58 1   
    49   51   59 1   
    50   53   54 1   
    51   54   60 1   
    52   56   61 1   
@<TRIPOS>SUBSTRUCTURE
     1 HG1         1 TEMP              0 ****  ****    0 ROOT
