@<TRIPOS>MOLECULE
HG1
   62    52     1     0     0
SMALL
bcc


@<TRIPOS>ATOM
      1 CAO        -0.8640   -2.1570   -1.5890 c3        1 HG1     -0.216000
      2 CAJ         1.1830    1.1830    1.0180 c2        1 HG1     -0.225000
      3 CAI         0.0750    0.4540    1.0160 c2        1 HG1     -0.225000
      4 CAK         0.6320    4.2700   -0.6830 c2        1 HG1     -0.514000
      5 CAP        -0.4620    4.2010   -1.3780 c1        1 HG1      0.107000
      6 CAU         0.1060   -1.4620   -2.4980 c3        1 HG1     -0.216000
      7 CAQ        -3.5300    0.1650   -0.1280 c3        1 HG1     -0.285000
      8 CAL        -3.1710    3.1980   -2.6550 c1        1 HG1     -0.045000
      9 CAN        -4.1250    2.5440   -2.9660 c1        1 HG1     -0.300000
     10 CAT        -5.2470    1.7420   -3.3490 c2        1 HG1      0.446000
     11 OAA        -5.6250    1.6650   -4.5540 o         1 HG1     -0.495000
     12 NAZ        -5.9070    1.0670   -2.3540 n         1 HG1     -0.329000
     13 CAR        -8.8450   -0.3530    0.9630 c1        1 HG1     -0.223000
     14 CAH        -7.8470    0.2900    0.8340 c1        1 HG1     -0.089000
     15 OAB        -6.7460    0.9970    0.6020 oh        1 HG1     -0.183000
     16 CAS        -7.0030    0.1820   -2.6140 c3        1 HG1     -0.048000
     17 CAW        -6.6290   -1.2110   -3.1700 c3        1 HG1      0.125000
     18 H25        -7.6910    0.6550   -3.3720 h1        1 HG1      0.121500
     19 CAY        -6.9480    3.6950   -6.3380 c2        1 HG1      0.187000
     20 OAG        -6.1060    4.2910   -5.4670 oh        1 HG1     -0.206000
     21 CAX        -6.6770    2.6190   -7.0480 c1        1 HG1     -0.254000
     22 OAF        -6.0360   -1.1460   -4.4500 oh        1 HG1     -0.371000
     23 H1         -1.6690   -1.4550   -1.2540 hc        1 HG1      0.072000
     24 H2         -1.3500   -3.0180   -2.1100 hc        1 HG1      0.072000
     25 H3          1.9420    1.1090    0.2280 ha        1 HG1      0.113250
     26 H4         -0.3430   -2.5490   -0.6820 hc        1 HG1      0.072000
     27 H5         -0.6780    0.5150    1.8140 ha        1 HG1      0.113250
     28 H6          1.4250    1.8920    1.8220 ha        1 HG1      0.113250
     29 H7         -0.1600   -0.2690    0.2190 ha        1 HG1      0.113250
     30 H8          1.0080    3.4290   -0.0660 ha        1 HG1      0.209500
     31 H9          0.9050   -2.1670   -2.8350 hc        1 HG1      0.072000
     32 H10         1.2880    5.1560   -0.6320 ha        1 HG1      0.209500
     33 H11         0.5960   -0.6060   -1.9730 hc        1 HG1      0.072000
     34 H12        -3.3140    1.0340   -0.7900 hc        1 HG1      0.071500
     35 H13        -0.4120   -1.0650   -3.4040 hc        1 HG1      0.072000
     36 H14        -4.3380    0.4360    0.5880 hc        1 HG1      0.071500
     37 H15        -3.8590   -0.7040   -0.7430 hc        1 HG1      0.071500
     38 H16        -2.6080   -0.1030    0.4360 hc        1 HG1      0.071500
     39 H17        -2.3050    3.7710   -2.3640 ha        1 HG1      0.284000
     40 H18        -9.7300   -0.9220    1.0870 ha        1 HG1      0.248000
     41 H19        -3.5790   -2.8770   -1.3990 ha        1 HG1      0.003000
     42 H20        -4.9330    2.5640    0.1970 ha        1 HG1      0.003000
     43 H21        -5.4510    2.9980    0.2510 ha        1 HG1      0.003000
     44 H22        -6.4100    1.2720    1.4790 ho        1 HG1      0.245000
     45 H23        -7.5560    0.0280   -1.6410 h1        1 HG1      0.121500
     46 H24        -5.5390    1.0750   -1.4230 hn        1 HG1      0.271000
     47 OAE        -5.6580   -1.7970   -2.3430 oh        1 HG1     -0.371000
     48 H27        -7.5530   -1.8420   -3.2920 h2        1 HG1      0.123000
     49 H28        -5.3490    3.7030   -5.2650 ho        1 HG1      0.268000
     50 H29        -7.9040    4.2580   -6.4200 h4        1 HG1      0.214000
     51 C17        -6.4430    1.4760   -7.6550 c2        1 HG1      0.008000
     52 H31        -5.1670   -0.7300   -4.3570 ho        1 HG1      0.229500
     53 C18        -6.6230    0.2050   -6.9960 c2        1 HG1      0.318000
     54 O6         -6.4410   -0.9390   -7.5980 oh        1 HG1     -0.119000
     55 H30        -6.8890    0.1190   -5.9050 h4        1 HG1      0.276000
     56 O7         -5.9790    1.3140   -8.9520 oh        1 HG1     -0.293000
     57 H26        -5.5780   -2.7290   -2.5890 ho        1 HG1      0.229500
     58 H32        -4.3030   -0.2380   -6.3360 ha        1 HG1      0.003000
     59 H33        -4.2860    0.3650   -6.0260 ha        1 HG1      0.003000
     60 H34        -6.1690   -0.8490   -8.5430 ho        1 HG1      0.305000
     61 H35        -5.7990    2.1890   -9.3320 ho        1 HG1      0.272000
     62 HAZ1       -4.0610   -3.1210   -0.9890 ha        1 HG1      0.003000
@<TRIPOS>BOND
     1    1    6 1   
     2    1   23 1   
     3    1   24 1   
     4    1   26 1   
     5    2    3 1   
     6    2   25 1   
     7    2   28 1   
     8    3   27 1   
     9    3   29 1   
    10    4    5 1   
    11    4   30 1   
    12    4   32 1   
    13    6   31 1   
    14    6   33 1   
    15    6   35 1   
    16    7   34 1   
    17    7   36 1   
    18    7   37 1   
    19    7   38 1   
    20    8    9 1   
    21    8   39 1   
    22    9   10 1   
    23   10   11 1   
    24   10   12 1   
    25   12   16 1   
    26   12   46 1   
    27   13   14 1   
    28   13   40 1   
    29   14   15 1   
    30   15   44 1   
    31   16   17 1   
    32   16   18 1   
    33   16   45 1   
    34   17   22 1   
    35   17   47 1   
    36   17   48 1   
    37   19   20 1   
    38   19   21 1   
    39   19   50 1   
    40   20   49 1   
    41   21   51 1   
    42   22   52 1   
    43   41   62 1   
    44   42   43 1   
    45   47   57 1   
    46   51   53 1   
    47   51   56 1   
    48   53   54 1   
    49   53   55 1   
    50   54   60 1   
    51   56   61 1   
    52   58   59 1   
@<TRIPOS>SUBSTRUCTURE
     1 HG1         1 TEMP              0 ****  ****    0 ROOT
