@<TRIPOS>MOLECULE
HG1
   61    61     1     0     0
SMALL
bcc


@<TRIPOS>ATOM
      1 CAO        -5.7970   -1.9090   -0.2780 c3        1 HG1     -0.073900
      2 CAJ        -6.9230   -2.7080    0.3440 c3        1 HG1     -0.076400
      3 CAI        -8.2690   -2.0670    0.0770 c3        1 HG1     -0.076400
      4 CAK        -8.2900   -0.6270    0.5440 c3        1 HG1     -0.076400
      5 CAP        -7.1630    0.1720   -0.0760 c3        1 HG1     -0.073900
      6 CAU        -5.8090   -0.4660    0.2090 c3        1 HG1     -0.062700
      7 CAQ        -4.7030    0.3470   -0.4460 c3        1 HG1     -0.076400
      8 CAL        -3.3400    0.0160    0.1210 c3        1 HG1     -0.075400
      9 CAN        -2.2700    0.8770   -0.5170 c3        1 HG1     -0.143400
     10 CAT        -0.8960    0.5160    0.0130 c         1 HG1      0.665100
     11 OAA        -0.7060   -0.5240    0.6780 o         1 HG1     -0.621100
     12 NAZ         0.1770    1.3570   -0.2560 n         1 HG1     -0.472800
     13 CAR         0.0680    2.5160   -1.1000 c3        1 HG1      0.097000
     14 CAH        -0.1900    3.8400   -0.3610 c3        1 HG1      0.105400
     15 OAB         1.0360    4.2290    0.2340 oh        1 HG1     -0.602800
     16 CAS         1.4600    1.0970    0.3550 c3        1 HG1      0.058000
     17 CAW         2.3820    0.1680   -0.4560 c3        1 HG1      0.092100
     18 H25         2.6220    0.6140   -1.4610 h1        1 HG1      0.070700
     19 CAY         3.6830   -0.0590    0.3380 c3        1 HG1      0.081100
     20 OAG         3.4160   -0.8050    1.5100 oh        1 HG1     -0.592800
     21 CAX         4.7330   -0.7640   -0.5390 c3        1 HG1      0.122100
     22 OAF         4.4220   -2.1440   -0.6660 oh        1 HG1     -0.617800
     23 H1         -4.8150   -2.3840   -0.0200 hc        1 HG1      0.039700
     24 H2         -5.8990   -1.9260   -1.3950 hc        1 HG1      0.039700
     25 H3         -6.9140   -3.7500   -0.0700 hc        1 HG1      0.039450
     26 H4         -6.7590   -2.7850    1.4520 hc        1 HG1      0.039450
     27 H5         -8.4900   -2.1070   -1.0220 hc        1 HG1      0.038700
     28 H6         -9.0730   -2.6450    0.6030 hc        1 HG1      0.038700
     29 H7         -9.2720   -0.1580    0.2740 hc        1 HG1      0.039450
     30 H8         -8.1990   -0.5960    1.6620 hc        1 HG1      0.039450
     31 H9         -7.3140    0.2390   -1.1850 hc        1 HG1      0.039700
     32 H10        -7.1780    1.2160    0.3320 hc        1 HG1      0.039700
     33 H11        -5.6460   -0.4670    1.3240 hc        1 HG1      0.051700
     34 H12        -4.7090    0.1640   -1.5520 hc        1 HG1      0.037200
     35 H13        -4.9110    1.4400   -0.2890 hc        1 HG1      0.037200
     36 H14        -3.3330    0.1750    1.2310 hc        1 HG1      0.061700
     37 H15        -3.0960   -1.0660   -0.0530 hc        1 HG1      0.061700
     38 H16        -2.2720    0.7230   -1.6290 hc        1 HG1      0.062200
     39 H17        -2.4850    1.9600   -0.3150 hc        1 HG1      0.062200
     40 H18         1.0330    2.6260   -1.6760 h1        1 HG1      0.061700
     41 H19        -0.7670    2.3720   -1.8430 h1        1 HG1      0.061700
     42 H20        -0.5100    4.6150   -1.1090 h1        1 HG1      0.031200
     43 H21        -0.9890    3.7300    0.4190 h1        1 HG1      0.031200
     44 H22         0.8530    5.0110    0.7680 ho        1 HG1      0.406000
     45 H23         1.9900    2.0810    0.5100 h1        1 HG1      0.085200
     46 H24         1.2940    0.6150    1.3640 h1        1 HG1      0.085200
     47 OAE         1.7830   -1.0830   -0.7480 oh        1 HG1     -0.626800
     48 H27         4.0970    0.9220    0.7030 h1        1 HG1      0.105700
     49 H28         3.2550   -1.7200    1.2360 ho        1 HG1      0.413000
     50 H29         4.7710   -0.2770   -1.5520 h1        1 HG1      0.055700
     51 C17         6.1170   -0.6860    0.1240 c3        1 HG1      0.108100
     52 H31         3.5660   -2.1960   -1.1180 ho        1 HG1      0.432000
     53 C18         7.1310   -1.5690   -0.6070 c3        1 HG1      0.093400
     54 O6          8.4140   -1.4130   -0.0300 oh        1 HG1     -0.605800
     55 H30         6.0290   -1.0060    1.2010 h1        1 HG1      0.057700
     56 O7          6.5040    0.6810    0.0840 oh        1 HG1     -0.608800
     57 H26         1.2280   -1.3320    0.0070 ho        1 HG1      0.436000
     58 H32         6.7950   -2.6380   -0.5810 h1        1 HG1      0.069200
     59 H33         7.2540   -1.2320   -1.6700 h1        1 HG1      0.069200
     60 H34         8.3880   -1.8250    0.8420 ho        1 HG1      0.402000
     61 H35         7.4660    0.6990    0.1770 ho        1 HG1      0.422000
@<TRIPOS>BOND
     1    1    2 1   
     2    1    6 1   
     3    1   23 1   
     4    1   24 1   
     5    2    3 1   
     6    2   25 1   
     7    2   26 1   
     8    3    4 1   
     9    3   27 1   
    10    3   28 1   
    11    4    5 1   
    12    4   29 1   
    13    4   30 1   
    14    5    6 1   
    15    5   31 1   
    16    5   32 1   
    17    6    7 1   
    18    6   33 1   
    19    7    8 1   
    20    7   34 1   
    21    7   35 1   
    22    8    9 1   
    23    8   36 1   
    24    8   37 1   
    25    9   10 1   
    26    9   38 1   
    27    9   39 1   
    28   10   11 2   
    29   10   12 1   
    30   12   13 1   
    31   12   16 1   
    32   13   14 1   
    33   13   40 1   
    34   13   41 1   
    35   14   15 1   
    36   14   42 1   
    37   14   43 1   
    38   15   44 1   
    39   16   17 1   
    40   16   45 1   
    41   16   46 1   
    42   17   18 1   
    43   17   19 1   
    44   17   47 1   
    45   19   20 1   
    46   19   21 1   
    47   19   48 1   
    48   20   49 1   
    49   21   22 1   
    50   21   50 1   
    51   21   51 1   
    52   22   52 1   
    53   47   57 1   
    54   51   53 1   
    55   51   55 1   
    56   51   56 1   
    57   53   54 1   
    58   53   58 1   
    59   53   59 1   
    60   54   60 1   
    61   56   61 1   
@<TRIPOS>SUBSTRUCTURE
     1 HG1         1 TEMP              0 ****  ****    0 ROOT
