@<TRIPOS>MOLECULE
HG7
   39    39     1     0     0
SMALL
bcc


@<TRIPOS>ATOM
      1 C           0.4330   -1.8410    0.1700 c         1 HG7      0.663100
      2 N           2.7090   -2.7650    0.4240 n3        1 HG7     -0.894800
      3 O           0.2690   -2.3250   -0.9680 o         1 HG7     -0.615100
      4 C1          2.3500   -0.2940    0.2720 ca        1 HG7     -0.108300
      5 C2          2.7690    0.6570    1.2000 ca        1 HG7     -0.146000
      6 C3          3.2460    1.8950    0.7380 ca        1 HG7      0.121100
      7 O3          3.6410    2.7930    1.7030 oh        1 HG7     -0.497100
      8 C4          3.3080    2.1800   -0.6330 ca        1 HG7     -0.205000
      9 C5          2.8840    1.2150   -1.5440 ca        1 HG7     -0.091000
     10 C6          2.4080   -0.0160   -1.0990 ca        1 HG7     -0.151000
     11 CA          1.8550   -1.6410    0.7520 c3        1 HG7      0.150800
     12 N1A        -0.6250   -1.4820    0.9750 n         1 HG7     -0.554900
     13 C2A        -1.9870   -1.5020    0.5170 c3        1 HG7      0.084000
     14 C3A        -2.6030   -0.1160    0.3110 c3        1 HG7     -0.108400
     15 C4A        -4.0420   -0.2870   -0.1720 c3        1 HG7      0.172800
     16 N5A        -4.8130    0.9490   -0.1800 n3        1 HG7     -0.738600
     17 C6A        -4.2700    1.9600   -1.0590 c3        1 HG7      0.155600
     18 C7A        -6.2210    0.7080   -0.4060 c3        1 HG7      0.155600
     19 H2          2.5170   -3.1020   -0.5020 hn        1 HG7      0.365300
     20 H           3.6720   -2.4960    0.4860 hn        1 HG7      0.365300
     21 H2B         2.7400    0.4600    2.2810 ha        1 HG7      0.151000
     22 HO3         3.9500    3.5950    1.2560 ho        1 HG7      0.421000
     23 H4          3.6840    3.1510   -0.9820 ha        1 HG7      0.136000
     24 H5          2.9260    1.4290   -2.6230 ha        1 HG7      0.138000
     25 H6          2.0560   -0.7740   -1.8200 ha        1 HG7      0.157000
     26 HA          1.8060   -1.6210    1.8850 h1        1 HG7      0.075700
     27 HN1A       -0.4400   -0.9850    1.8140 hn        1 HG7      0.310500
     28 H2A        -2.0350   -2.0780   -0.4520 h1        1 HG7      0.063700
     29 H2AA       -2.5980   -2.0600    1.2860 h1        1 HG7      0.063700
     30 H3A        -2.5820    0.4650    1.2690 hc        1 HG7      0.053200
     31 H3AA       -2.0090    0.4550   -0.4480 hc        1 HG7      0.053200
     32 H4A        -4.0190   -0.7670   -1.1950 h1        1 HG7      0.032200
     33 H4AA       -4.5680   -1.0030    0.5240 h1        1 HG7      0.032200
     34 H6A        -4.2030    1.6280   -2.1310 h1        1 HG7      0.031367
     35 H6AA       -4.9170    2.8750   -1.0100 h1        1 HG7      0.031367
     36 H6AB       -3.2420    2.2330   -0.7050 h1        1 HG7      0.031367
     37 H7A        -6.6040    0.0100    0.3830 h1        1 HG7      0.031367
     38 H7AA       -6.7720    1.6810   -0.3210 h1        1 HG7      0.031367
     39 H7AB       -6.4390    0.2610   -1.4150 h1        1 HG7      0.031367
@<TRIPOS>BOND
     1    1    3 2   
     2    1   11 1   
     3    1   12 1   
     4    2   11 1   
     5    2   19 1   
     6    2   20 1   
     7    4    5 ar  
     8    4   10 ar  
     9    4   11 1   
    10    5    6 ar  
    11    5   21 1   
    12    6    7 1   
    13    6    8 ar  
    14    7   22 1   
    15    8    9 ar  
    16    8   23 1   
    17    9   10 ar  
    18    9   24 1   
    19   10   25 1   
    20   11   26 1   
    21   12   13 1   
    22   12   27 1   
    23   13   14 1   
    24   13   28 1   
    25   13   29 1   
    26   14   15 1   
    27   14   30 1   
    28   14   31 1   
    29   15   16 1   
    30   15   32 1   
    31   15   33 1   
    32   16   17 1   
    33   16   18 1   
    34   17   34 1   
    35   17   35 1   
    36   17   36 1   
    37   18   37 1   
    38   18   38 1   
    39   18   39 1   
@<TRIPOS>SUBSTRUCTURE
     1 HG7         1 TEMP              0 ****  ****    0 ROOT
