@<TRIPOS>MOLECULE
HG7
   39    35     1     0     0
SMALL
bcc


@<TRIPOS>ATOM
      1 C           0.8540    0.1000    0.9370 c1        1 HG7      0.537500
      2 N           2.7920   -0.1740    2.3150 nh        1 HG7     -0.482100
      3 O           0.8680    1.1280    0.3190 o         1 HG7     -0.604500
      4 C1          1.1480    1.3600    3.0560 cg        1 HG7     -0.130200
      5 C2          1.7760    2.5120    2.6270 c1        1 HG7     -0.086500
      6 C3          1.5070    3.7270    3.2570 c1        1 HG7      0.109600
      7 O3          2.1370    4.9250    2.7990 oh        1 HG7     -0.475600
      8 C4          0.6100    3.7750    4.3120 c1        1 HG7     -0.148500
      9 C5         -0.0190    2.6140    4.7400 c1        1 HG7     -0.066500
     10 C6          0.2500    1.4090    4.1130 c1        1 HG7     -0.066500
     11 CA          1.4150    0.0530    2.3650 ce        1 HG7      0.210100
     12 N1A         0.2740   -1.0920    0.3480 n3        1 HG7     -0.394400
     13 C2A         0.3640   -1.3110   -1.0980 c3        1 HG7      0.025300
     14 C3A        -1.0320   -1.6980   -1.6520 c3        1 HG7     -0.106400
     15 C4A        -0.9160   -2.0320   -3.1330 c3        1 HG7      0.173800
     16 N5A        -2.2290   -1.8520   -3.7850 n3        1 HG7     -0.739600
     17 C6A        -2.0900   -0.9480   -4.8990 c3        1 HG7      0.157600
     18 C7A        -2.7100   -3.1330   -4.2610 c3        1 HG7      0.157600
     19 H2          3.1770    0.4010    1.7010 hn        1 HG7      0.211200
     20 H           3.1580   -0.0270    3.1430 hn        1 HG7      0.211200
     21 H2B         2.3840    2.4770    1.9110 ha        1 HG7      0.113500
     22 HO3         2.7880    5.1660    3.3820 ho        1 HG7      0.420000
     23 H4          0.4250    4.6000    4.7410 ha        1 HG7      0.078500
     24 H5         -0.6540    2.6460    5.4870 ha        1 HG7      0.077500
     25 H6         -0.1910    0.5940    4.4150 ha        1 HG7      0.077500
     26 HA          0.9800   -0.6710    2.8640 h4        1 HG7     -0.015200
     27 HN1A       -0.2180   -1.6510    0.8580 hn        1 HG7      0.270700
     28 H2A         0.9970   -2.0330   -1.2800 h1        1 HG7      0.063200
     29 H2AA        0.6620   -0.5140   -1.5200 h1        1 HG7      0.063200
     30 H3A        -1.6410   -0.9620   -1.5350 hc        1 HG7      0.052700
     31 H3AA       -1.3650   -2.4650   -1.1760 hc        1 HG7      0.052700
     32 H4A        -0.6300   -2.9430   -3.2330 h1        1 HG7      0.032200
     33 H4AA       -0.2580   -1.4380   -3.5510 h1        1 HG7      0.032200
     34 H6A        -1.6230   -0.1510   -4.6110 h1        1 HG7      0.030867
     35 H6AA       -2.9760   -0.7040   -5.2340 h1        1 HG7      0.030867
     36 H6AB       -1.5760   -1.3880   -5.6180 h1        1 HG7      0.030867
     37 H7A        -1.9940   -3.5710   -4.8350 h1        1 HG7      0.030867
     38 H7AA       -3.5240   -2.9990   -4.7970 h1        1 HG7      0.030867
     39 H7AB       -2.9220   -3.7290   -3.4710 h1        1 HG7      0.030867
@<TRIPOS>BOND
     1    1    3 2   
     2    1   12 2   
     3    2   11 2   
     4    2   19 1   
     5    2   20 1   
     6    4    5 3   
     7    4   11 1   
     8    5   21 1   
     9    6    7 1   
    10    6    8 3   
    11    7   22 1   
    12    8   23 1   
    13    9   10 3   
    14    9   24 1   
    15   10   25 1   
    16   11   26 1   
    17   12   13 1   
    18   12   27 1   
    19   13   14 1   
    20   13   28 1   
    21   13   29 1   
    22   14   15 1   
    23   14   30 1   
    24   14   31 1   
    25   15   16 1   
    26   15   32 1   
    27   15   33 1   
    28   16   17 1   
    29   16   18 1   
    30   17   34 1   
    31   17   35 1   
    32   17   36 1   
    33   18   37 1   
    34   18   38 1   
    35   18   39 1   
@<TRIPOS>SUBSTRUCTURE
     1 HG7         1 TEMP              0 ****  ****    0 ROOT
