@<TRIPOS>MOLECULE
HG9
   61    60     1     0     0
SMALL
bcc


@<TRIPOS>ATOM
      1 C9          0.9570   -1.6840    0.4200 c3        1 HG9     -0.079400
      2 C12         2.1440   -0.7490    0.5170 c3        1 HG9     -0.080400
      3 C15         2.9370   -0.9980    1.7820 c3        1 HG9     -0.078400
      4 C18         4.1220   -0.0600    1.8760 c3        1 HG9     -0.079400
      5 C21         4.9160   -0.3110    3.1410 c3        1 HG9     -0.078400
      6 C24         6.0980    0.6310    3.2290 c3        1 HG9     -0.081400
      7 C27         6.8900    0.3620    4.4970 c3        1 HG9     -0.142400
      8 C30         8.0160    1.3370    4.6260 c         1 HG9      0.587100
      9 N33         9.0740    1.0890    5.7100 nx        1 HG9     -0.594200
     10 O34         8.2240    2.3540    3.9830 o         1 HG9     -0.432100
     11 C35         8.5520    0.4740    6.9640 c3        1 HG9      0.096800
     12 C36        10.2470    0.3420    5.1620 c3        1 HG9      0.117800
     13 C37        10.0600   -1.1720    4.9790 c3        1 HG9      0.100100
     14 C40        11.4470   -1.8470    4.9180 c3        1 HG9      0.115100
     15 C41        12.1930   -1.7880    6.2650 c3        1 HG9      0.143100
     16 C42        12.9220   -3.1030    6.5870 c3        1 HG9      0.114100
     17 C43        11.9720   -4.2910    6.7820 c3        1 HG9      0.096400
     18 O44        12.7710   -5.3270    7.3250 oh        1 HG9     -0.602800
     19 O47         9.3630   -1.3320    3.7520 oh        1 HG9     -0.617800
     20 O49        12.2780   -1.1660    3.9940 oh        1 HG9     -0.586800
     21 O51        11.2600   -1.4500    7.2850 oh        1 HG9     -0.654800
     22 O53        13.6090   -2.8290    7.8010 oh        1 HG9     -0.615800
     23 C60         7.8210    1.4700    7.8710 c3        1 HG9      0.110400
     24 O63         6.7190    1.9660    7.1350 oh        1 HG9     -0.628800
     25 C1          0.1640   -1.4400   -0.8380 c3        1 HG9     -0.094100
     26 H91         0.2960   -1.5440    1.3150 hc        1 HG9      0.039200
     27 H92         1.3170   -2.7470    0.4380 hc        1 HG9      0.039200
     28 H121        1.7850    0.3150    0.5000 hc        1 HG9      0.043200
     29 H122        2.8060   -0.8890   -0.3780 hc        1 HG9      0.043200
     30 H151        3.2950   -2.0610    1.7980 hc        1 HG9      0.040700
     31 H152        2.2740   -0.8570    2.6750 hc        1 HG9      0.040700
     32 H181        4.7850   -0.2000    0.9810 hc        1 HG9      0.048200
     33 H182        3.7640    1.0030    1.8600 hc        1 HG9      0.048200
     34 H211        4.2520   -0.1710    4.0350 hc        1 HG9      0.044200
     35 H212        5.2750   -1.3740    3.1550 hc        1 HG9      0.044200
     36 H241        6.7620    0.4980    2.3340 hc        1 HG9      0.069200
     37 H242        5.7410    1.6950    3.2240 hc        1 HG9      0.069200
     38 H271        6.2230    0.4840    5.3980 hc        1 HG9      0.107200
     39 H272        7.2960   -0.6870    4.4780 hc        1 HG9      0.107200
     40 H351        7.8530   -0.3650    6.6910 hx        1 HG9      0.116200
     41 H352        9.4280    0.0400    7.5350 hx        1 HG9      0.116200
     42 H361       10.5080    0.7980    4.1620 hx        1 HG9      0.124700
     43 H362       11.1100    0.4940    5.8780 hx        1 HG9      0.124700
     44 H37         9.4690   -1.6350    5.8180 h1        1 HG9      0.075700
     45 H40        11.3010   -2.9160    4.5960 h1        1 HG9      0.061700
     46 H41        12.9750   -0.9710    6.2130 h1        1 HG9      0.089700
     47 H42        13.6610   -3.3330    5.7710 h1        1 HG9      0.078700
     48 H431       11.1470   -4.0160    7.4920 h1        1 HG9      0.032700
     49 H432       11.5330   -4.6190    5.8030 h1        1 HG9      0.032700
     50 H44        12.1820   -6.0610    7.5380 ho        1 HG9      0.424000
     51 H47         9.3430   -2.2750    3.5430 ho        1 HG9      0.432000
     52 H49        11.9150   -1.3280    3.1120 ho        1 HG9      0.425000
     53 H51        11.6950   -1.6420    8.1300 ho        1 HG9      0.451000
     54 H53        14.0510   -3.6470    8.0710 ho        1 HG9      0.448000
     55 H601        8.4930    2.3170    8.1790 h1        1 HG9      0.067700
     56 H602        7.4790    0.9170    8.7870 h1        1 HG9      0.067700
     57 H63         6.1780    2.4940    7.7380 ho        1 HG9      0.447000
     58 H11        -0.2240   -0.3930   -0.8630 hc        1 HG9      0.036700
     59 H12        -0.7050   -2.1390   -0.8900 hc        1 HG9      0.036700
     60 H13         0.7990   -1.5990   -1.7430 hc        1 HG9      0.036700
     61 H331        9.4340    2.0280    5.9590 hn        1 HG9      0.453800
@<TRIPOS>BOND
     1    1    2 1   
     2    1   25 1   
     3    1   26 1   
     4    1   27 1   
     5    2    3 1   
     6    2   28 1   
     7    2   29 1   
     8    3    4 1   
     9    3   30 1   
    10    3   31 1   
    11    4    5 1   
    12    4   32 1   
    13    4   33 1   
    14    5    6 1   
    15    5   34 1   
    16    5   35 1   
    17    6    7 1   
    18    6   36 1   
    19    6   37 1   
    20    7    8 1   
    21    7   38 1   
    22    7   39 1   
    23    8    9 1   
    24    8   10 2   
    25    9   11 1   
    26    9   12 1   
    27    9   61 1   
    28   11   23 1   
    29   11   40 1   
    30   11   41 1   
    31   12   13 1   
    32   12   42 1   
    33   12   43 1   
    34   13   14 1   
    35   13   19 1   
    36   13   44 1   
    37   14   15 1   
    38   14   20 1   
    39   14   45 1   
    40   15   16 1   
    41   15   21 1   
    42   15   46 1   
    43   16   17 1   
    44   16   22 1   
    45   16   47 1   
    46   17   18 1   
    47   17   48 1   
    48   17   49 1   
    49   18   50 1   
    50   19   51 1   
    51   20   52 1   
    52   21   53 1   
    53   22   54 1   
    54   23   24 1   
    55   23   55 1   
    56   23   56 1   
    57   24   57 1   
    58   25   58 1   
    59   25   59 1   
    60   25   60 1   
@<TRIPOS>SUBSTRUCTURE
     1 HG9         1 TEMP              0 ****  ****    0 ROOT
