@<TRIPOS>MOLECULE
HG9
   61    60     1     0     0
SMALL
bcc


@<TRIPOS>ATOM
      1 C9          0.8050   -1.6170    0.5880 c3        1 HG9     -0.079400
      2 C12         2.0470   -0.7510    0.5870 c3        1 HG9     -0.079400
      3 C15         2.8560   -0.9500    1.8500 c3        1 HG9     -0.079400
      4 C18         4.0970   -0.0830    1.8460 c3        1 HG9     -0.079400
      5 C21         4.9050   -0.2820    3.1110 c3        1 HG9     -0.079400
      6 C24         6.1440    0.5890    3.1010 c3        1 HG9     -0.079400
      7 C27         6.9420    0.3790    4.3750 c3        1 HG9     -0.147400
      8 C30         8.1400    1.2730    4.3930 c         1 HG9      0.586100
      9 N33         9.1770    1.0890    5.5110 n4        1 HG9     -0.591200
     10 O34         8.4280    2.1790    3.6260 o         1 HG9     -0.437100
     11 C35         8.6210    0.6170    6.8120 c3        1 HG9      0.096800
     12 C36        10.3180    0.2390    5.0510 c3        1 HG9      0.080800
     13 C37        10.0290   -1.2710    4.9670 c3        1 HG9      0.149100
     14 C40        11.3570   -2.0500    4.9760 c3        1 HG9      0.109100
     15 C41        12.1360   -1.8980    6.2940 c3        1 HG9      0.109100
     16 C42        12.8340   -3.2040    6.7120 c3        1 HG9      0.111100
     17 C43        11.8520   -4.3270    7.0640 c3        1 HG9      0.096400
     18 O44        12.6430   -5.3480    7.6470 oh        1 HG9     -0.605800
     19 O47         9.2740   -1.5570    3.8120 oh        1 HG9     -0.604800
     20 O49        12.1130   -1.5210    3.8970 oh        1 HG9     -0.613800
     21 O51        11.2410   -1.4460    7.3020 oh        1 HG9     -0.643800
     22 O53        13.5970   -2.8420    7.8530 oh        1 HG9     -0.613800
     23 C60         7.9560    1.7300    7.6290 c3        1 HG9      0.109400
     24 O63         6.8950    2.2430    6.8450 oh        1 HG9     -0.627800
     25 C1         -0.0050   -1.4220   -0.6680 c3        1 HG9     -0.094100
     26 H91         0.1760   -1.3680    1.4840 hc        1 HG9      0.039200
     27 H92         1.1010   -2.6950    0.6820 hc        1 HG9      0.039200
     28 H121        2.6770   -1.0000   -0.3080 hc        1 HG9      0.042700
     29 H122        1.7520    0.3280    0.4940 hc        1 HG9      0.042700
     30 H151        2.2250   -0.7000    2.7440 hc        1 HG9      0.041200
     31 H152        3.1500   -2.0290    1.9430 hc        1 HG9      0.041200
     32 H181        3.8030    0.9960    1.7530 hc        1 HG9      0.047200
     33 H182        4.7280   -0.3330    0.9530 hc        1 HG9      0.047200
     34 H211        5.2010   -1.3610    3.2020 hc        1 HG9      0.046200
     35 H212        4.2730   -0.0320    4.0040 hc        1 HG9      0.046200
     36 H241        6.7790    0.3390    2.2110 hc        1 HG9      0.066700
     37 H242        5.8520    1.6690    3.0100 hc        1 HG9      0.066700
     38 H271        6.3040    0.6320    5.2710 hc        1 HG9      0.112700
     39 H272        7.2690   -0.6960    4.4480 hc        1 HG9      0.112700
     40 H351        7.8730   -0.2000    6.6110 hx        1 HG9      0.116200
     41 H352        9.4710    0.1820    7.4210 hx        1 HG9      0.116200
     42 H361       10.6320    0.6100    4.0310 hx        1 HG9      0.117700
     43 H362       11.1680    0.3960    5.7770 hx        1 HG9      0.117700
     44 H37         9.4010   -1.6300    5.8320 h1        1 HG9      0.104700
     45 H40        11.1200   -3.1350    4.7810 h1        1 HG9      0.078700
     46 H41        12.9380   -1.1120    6.1570 h1        1 HG9      0.075700
     47 H42        13.5200   -3.5450    5.8880 h1        1 HG9      0.062700
     48 H431       11.0860   -3.9560    7.7960 h1        1 HG9      0.038700
     49 H432       11.3390   -4.7150    6.1460 h1        1 HG9      0.038700
     50 H44        12.0410   -6.0370    7.9540 ho        1 HG9      0.427000
     51 H47         9.8740   -1.5770    3.0520 ho        1 HG9      0.440000
     52 H49        12.8980   -2.0740    3.7880 ho        1 HG9      0.436000
     53 H51        11.6890   -1.5820    8.1510 ho        1 HG9      0.449000
     54 H53        13.9910   -3.6540    8.2060 ho        1 HG9      0.449000
     55 H601        8.6840    2.5500    7.8750 h1        1 HG9      0.066700
     56 H602        7.5710    1.2760    8.5820 h1        1 HG9      0.066700
     57 H63         6.3800    2.8410    7.4030 ho        1 HG9      0.447000
     58 H11        -0.9140   -2.0690   -0.6460 hc        1 HG9      0.036700
     59 H12         0.5970   -1.6880   -1.5710 hc        1 HG9      0.036700
     60 H13        -0.3310   -0.3580   -0.7660 hc        1 HG9      0.036700
     61 H331        9.5730    2.0310    5.6730 hn        1 HG9      0.451800
@<TRIPOS>BOND
     1    1    2 1   
     2    1   25 1   
     3    1   26 1   
     4    1   27 1   
     5    2    3 1   
     6    2   28 1   
     7    2   29 1   
     8    3    4 1   
     9    3   30 1   
    10    3   31 1   
    11    4    5 1   
    12    4   32 1   
    13    4   33 1   
    14    5    6 1   
    15    5   34 1   
    16    5   35 1   
    17    6    7 1   
    18    6   36 1   
    19    6   37 1   
    20    7    8 1   
    21    7   38 1   
    22    7   39 1   
    23    8    9 1   
    24    8   10 2   
    25    9   11 1   
    26    9   12 1   
    27    9   61 1   
    28   11   23 1   
    29   11   40 1   
    30   11   41 1   
    31   12   13 1   
    32   12   42 1   
    33   12   43 1   
    34   13   14 1   
    35   13   19 1   
    36   13   44 1   
    37   14   15 1   
    38   14   20 1   
    39   14   45 1   
    40   15   16 1   
    41   15   21 1   
    42   15   46 1   
    43   16   17 1   
    44   16   22 1   
    45   16   47 1   
    46   17   18 1   
    47   17   48 1   
    48   17   49 1   
    49   18   50 1   
    50   19   51 1   
    51   20   52 1   
    52   21   53 1   
    53   22   54 1   
    54   23   24 1   
    55   23   55 1   
    56   23   56 1   
    57   24   57 1   
    58   25   58 1   
    59   25   59 1   
    60   25   60 1   
@<TRIPOS>SUBSTRUCTURE
     1 HG9         1 TEMP              0 ****  ****    0 ROOT
