@<TRIPOS>MOLECULE
HG9
   60    59     1     0     0
SMALL
bcc


@<TRIPOS>ATOM
      1 C9         -6.8860   -0.7380   22.8020 c3        1 HG9     -0.080400
      2 C12        -6.5230   -0.5620   21.3420 c3        1 HG9     -0.079400
      3 C15        -5.1750   -1.1780   21.0330 c3        1 HG9     -0.079400
      4 C18        -4.8140   -1.0020   19.5730 c3        1 HG9     -0.078400
      5 C21        -3.4660   -1.6170   19.2640 c3        1 HG9     -0.079400
      6 C24        -3.1100   -1.4400   17.8040 c3        1 HG9     -0.075400
      7 C27        -1.7580   -2.0530   17.5010 c3        1 HG9     -0.143400
      8 C30        -1.4200   -1.9170   16.0310 c         1 HG9      0.668100
      9 N33        -0.1110   -2.1350   15.6130 n         1 HG9     -0.474800
     10 O34        -2.2850   -1.6080   15.1830 o         1 HG9     -0.625100
     11 C35         0.9010   -2.6690   16.4830 c3        1 HG9      0.056000
     12 C36         0.2410   -1.9340   14.2270 c3        1 HG9      0.060000
     13 C37         0.0760   -3.1720   13.3260 c3        1 HG9      0.100100
     14 C40         0.3870   -2.8300   11.8570 c3        1 HG9      0.119100
     15 C41         1.7640   -2.1800   11.6670 c3        1 HG9      0.121100
     16 C42         2.1820   -2.1680   10.1880 c3        1 HG9      0.061100
     17 C43         2.4810   -3.5660    9.6330 c3        1 HG9      0.138400
     18 O44         2.9980   -3.4890    8.3230 oh        1 HG9     -0.595800
     19 O47        -1.2270   -3.7260   13.3800 oh        1 HG9     -0.610800
     20 O49        -0.5520   -1.8980   11.3360 oh        1 HG9     -0.608800
     21 O51         2.6940   -2.8860   12.4740 oh        1 HG9     -0.607800
     22 O53         3.4040   -1.4450   10.0710 oh        1 HG9     -0.619800
     23 C60         1.8070   -1.6030   17.1260 c3        1 HG9      0.105400
     24 O63         2.7160   -2.2170   18.0150 oh        1 HG9     -0.591800
     25 C1         -8.2270   -0.1260   23.1150 c3        1 HG9     -0.093100
     26 H91        -6.9020   -1.8310   23.0540 hc        1 HG9      0.038200
     27 H92        -6.0960   -0.2630   23.4430 hc        1 HG9      0.038200
     28 H121       -7.3100   -1.0370   20.7000 hc        1 HG9      0.040200
     29 H122       -6.5040    0.5300   21.0890 hc        1 HG9      0.040200
     30 H151       -4.3880   -0.7030   21.6750 hc        1 HG9      0.039200
     31 H152       -5.1940   -2.2710   21.2860 hc        1 HG9      0.039200
     32 H181       -4.7950    0.0910   19.3190 hc        1 HG9      0.042700
     33 H182       -5.6010   -1.4770   18.9300 hc        1 HG9      0.042700
     34 H211       -3.4840   -2.7100   19.5190 hc        1 HG9      0.039200
     35 H212       -2.6790   -1.1410   19.9060 hc        1 HG9      0.039200
     36 H241       -3.0940   -0.3500   17.5410 hc        1 HG9      0.059200
     37 H242       -3.8910   -1.9190   17.1550 hc        1 HG9      0.059200
     38 H271       -1.7700   -3.1460   17.7580 hc        1 HG9      0.067700
     39 H272       -0.9690   -1.5580   18.1270 hc        1 HG9      0.067700
     40 H351        1.5530   -3.3750   15.8890 h1        1 HG9      0.058700
     41 H352        0.4280   -3.2720   17.3090 h1        1 HG9      0.058700
     42 H361       -0.4020   -1.1080   13.8040 h1        1 HG9      0.074700
     43 H362        1.3220   -1.6170   14.1780 h1        1 HG9      0.074700
     44 H37         0.7660   -4.0000   13.6540 h1        1 HG9      0.087700
     45 H40         0.3290   -3.7880   11.2660 h1        1 HG9      0.057700
     46 H41         1.7180   -1.1090   12.0240 h1        1 HG9      0.048700
     47 H42         1.3690   -1.6800    9.5830 h1        1 HG9      0.078700
     48 H431        1.5330   -4.1570    9.5380 h1        1 HG9      0.057700
     49 H432        3.2020   -4.0970   10.3090 h1        1 HG9      0.057700
     50 H44         3.7820   -2.9240    8.3560 ho        1 HG9      0.415000
     51 H47        -1.8550   -3.0090   13.5540 ho        1 HG9      0.427000
     52 H49        -1.4240   -2.2970   11.4490 ho        1 HG9      0.421000
     53 H51         3.5740   -2.6560   12.1430 ho        1 HG9      0.422000
     54 H53         3.1830   -0.5070   10.0940 ho        1 HG9      0.414000
     55 H601        1.2160   -0.8960   17.7680 h1        1 HG9      0.052200
     56 H602        2.3560   -1.0200   16.3390 h1        1 HG9      0.052200
     57 H63         3.2870   -2.7940   17.4920 ho        1 HG9      0.400000
     58 H11        -8.4750   -0.2660   24.1940 hc        1 HG9      0.032700
     59 H12        -8.2230    0.9690   22.8930 hc        1 HG9      0.032700
     60 H13        -9.0310   -0.6030   22.5030 hc        1 HG9      0.032700
@<TRIPOS>BOND
     1    1    2 1   
     2    1   25 1   
     3    1   26 1   
     4    1   27 1   
     5    2    3 1   
     6    2   28 1   
     7    2   29 1   
     8    3    4 1   
     9    3   30 1   
    10    3   31 1   
    11    4    5 1   
    12    4   32 1   
    13    4   33 1   
    14    5    6 1   
    15    5   34 1   
    16    5   35 1   
    17    6    7 1   
    18    6   36 1   
    19    6   37 1   
    20    7    8 1   
    21    7   38 1   
    22    7   39 1   
    23    8    9 1   
    24    8   10 2   
    25    9   11 1   
    26    9   12 1   
    27   11   23 1   
    28   11   40 1   
    29   11   41 1   
    30   12   13 1   
    31   12   42 1   
    32   12   43 1   
    33   13   14 1   
    34   13   19 1   
    35   13   44 1   
    36   14   15 1   
    37   14   20 1   
    38   14   45 1   
    39   15   16 1   
    40   15   21 1   
    41   15   46 1   
    42   16   17 1   
    43   16   22 1   
    44   16   47 1   
    45   17   18 1   
    46   17   48 1   
    47   17   49 1   
    48   18   50 1   
    49   19   51 1   
    50   20   52 1   
    51   21   53 1   
    52   22   54 1   
    53   23   24 1   
    54   23   55 1   
    55   23   56 1   
    56   24   57 1   
    57   25   58 1   
    58   25   59 1   
    59   25   60 1   
@<TRIPOS>SUBSTRUCTURE
     1 HG9         1 TEMP              0 ****  ****    0 ROOT
