@<TRIPOS>MOLECULE
HG9
   61    60     1     0     0
SMALL
bcc


@<TRIPOS>ATOM
      1 C9          0.9120   -1.6610    0.4580 c3        1 HG9     -0.079400
      2 C12         2.1120   -0.7400    0.5370 c3        1 HG9     -0.080400
      3 C15         2.9100   -0.9850    1.7990 c3        1 HG9     -0.078400
      4 C18         4.1090   -0.0640    1.8750 c3        1 HG9     -0.079400
      5 C21         4.9070   -0.3100    3.1380 c3        1 HG9     -0.078400
      6 C24         6.1030    0.6160    3.2070 c3        1 HG9     -0.081400
      7 C27         6.9000    0.3500    4.4720 c3        1 HG9     -0.142400
      8 C30         8.0400    1.3110    4.5830 c         1 HG9      0.587100
      9 N33         9.1020    1.0610    5.6630 n4        1 HG9     -0.594200
     10 O34         8.2580    2.3180    3.9270 o         1 HG9     -0.432100
     11 C35         8.5800    0.4680    6.9270 c3        1 HG9      0.096800
     12 C36        10.2610    0.2910    5.1160 c3        1 HG9      0.117800
     13 C37        10.0510   -1.2210    4.9510 c3        1 HG9      0.100100
     14 C40        11.4280   -1.9160    4.8890 c3        1 HG9      0.115100
     15 C41        12.1840   -1.8530    6.2300 c3        1 HG9      0.143100
     16 C42        12.8960   -3.1750    6.5630 c3        1 HG9      0.114100
     17 C43        11.9300   -4.3460    6.7770 c3        1 HG9      0.096400
     18 O44        12.7160   -5.3880    7.3270 oh        1 HG9     -0.602800
     19 O47         9.3450   -1.3850    3.7300 oh        1 HG9     -0.617800
     20 O49        12.2620   -1.2580    3.9510 oh        1 HG9     -0.586800
     21 O51        11.2620   -1.4890    7.2520 oh        1 HG9     -0.654800
     22 O53        13.5950   -2.8980    7.7680 oh        1 HG9     -0.615800
     23 C60         7.8690    1.4840    7.8270 c3        1 HG9      0.110400
     24 O63         6.7690    1.9870    7.0930 oh        1 HG9     -0.628800
     25 C1          0.1140   -1.4200   -0.7970 c3        1 HG9     -0.094100
     26 H91         0.2590   -1.5010    1.3570 hc        1 HG9      0.039200
     27 H92         1.2570   -2.7280    0.4870 hc        1 HG9      0.039200
     28 H121        1.7680    0.3270    0.5100 hc        1 HG9      0.043200
     29 H122        2.7670   -0.9000   -0.3600 hc        1 HG9      0.043200
     30 H151        3.2530   -2.0530    1.8250 hc        1 HG9      0.040700
     31 H152        2.2550   -0.8260    2.6960 hc        1 HG9      0.040700
     32 H181        3.7650    1.0040    1.8490 hc        1 HG9      0.048200
     33 H182        4.7630   -0.2220    0.9770 hc        1 HG9      0.048200
     34 H211        5.2520   -1.3780    3.1610 hc        1 HG9      0.044200
     35 H212        4.2510   -0.1510    4.0340 hc        1 HG9      0.044200
     36 H241        5.7610    1.6850    3.1920 hc        1 HG9      0.069200
     37 H242        6.7580    0.4630    2.3090 hc        1 HG9      0.069200
     38 H271        7.2910   -0.7050    4.4630 hc        1 HG9      0.107200
     39 H272        6.2400    0.4920    5.3770 hc        1 HG9      0.107200
     40 H351        7.8670   -0.3640    6.6680 hx        1 HG9      0.116200
     41 H352        9.4540    0.0280    7.4970 hx        1 HG9      0.116200
     42 H361       11.1300    0.4390    5.8230 hx        1 HG9      0.124700
     43 H362       10.5210    0.7330    4.1080 hx        1 HG9      0.124700
     44 H37         9.4600   -1.6670    5.7980 h1        1 HG9      0.075700
     45 H40        11.2660   -2.9870    4.5800 h1        1 HG9      0.061700
     46 H41        12.9770   -1.0480    6.1640 h1        1 HG9      0.089700
     47 H42        13.6260   -3.4250    5.7440 h1        1 HG9      0.078700
     48 H431       11.1140   -4.0510    7.4900 h1        1 HG9      0.032700
     49 H432       11.4790   -4.6790    5.8050 h1        1 HG9      0.032700
     50 H44        12.1180   -6.1110    7.5520 ho        1 HG9      0.424000
     51 H47         9.3100   -2.3300    3.5320 ho        1 HG9      0.432000
     52 H49        11.8920   -1.4250    3.0740 ho        1 HG9      0.425000
     53 H51        11.7000   -1.6790    8.0970 ho        1 HG9      0.451000
     54 H53        14.0270   -3.7190    8.0450 ho        1 HG9      0.448000
     55 H601        7.5250    0.9460    8.7520 h1        1 HG9      0.067700
     56 H602        8.5550    2.3250    8.1200 h1        1 HG9      0.067700
     57 H63         6.2390    2.5290    7.6930 ho        1 HG9      0.447000
     58 H11         0.7410   -1.5990   -1.7040 hc        1 HG9      0.036700
     59 H12        -0.2600   -0.3680   -0.8320 hc        1 HG9      0.036700
     60 H13        -0.7640   -2.1080   -0.8350 hc        1 HG9      0.036700
     61 H331        9.4760    1.9970    5.8980 hn        1 HG9      0.453800
@<TRIPOS>BOND
     1    1    2 1   
     2    1   25 1   
     3    1   26 1   
     4    1   27 1   
     5    2    3 1   
     6    2   28 1   
     7    2   29 1   
     8    3    4 1   
     9    3   30 1   
    10    3   31 1   
    11    4    5 1   
    12    4   32 1   
    13    4   33 1   
    14    5    6 1   
    15    5   34 1   
    16    5   35 1   
    17    6    7 1   
    18    6   36 1   
    19    6   37 1   
    20    7    8 1   
    21    7   38 1   
    22    7   39 1   
    23    8    9 1   
    24    8   10 2   
    25    9   11 1   
    26    9   12 1   
    27    9   61 1   
    28   11   23 1   
    29   11   40 1   
    30   11   41 1   
    31   12   13 1   
    32   12   42 1   
    33   12   43 1   
    34   13   14 1   
    35   13   19 1   
    36   13   44 1   
    37   14   15 1   
    38   14   20 1   
    39   14   45 1   
    40   15   16 1   
    41   15   21 1   
    42   15   46 1   
    43   16   17 1   
    44   16   22 1   
    45   16   47 1   
    46   17   18 1   
    47   17   48 1   
    48   17   49 1   
    49   18   50 1   
    50   19   51 1   
    51   20   52 1   
    52   21   53 1   
    53   22   54 1   
    54   23   24 1   
    55   23   55 1   
    56   23   56 1   
    57   24   57 1   
    58   25   58 1   
    59   25   59 1   
    60   25   60 1   
@<TRIPOS>SUBSTRUCTURE
     1 HG9         1 TEMP              0 ****  ****    0 ROOT
