@<TRIPOS>MOLECULE
HGA
   22    21     1     0     0
SMALL
bcc


@<TRIPOS>ATOM
      1 N           0.3220   -0.9940   -0.4260 n4        1 HGA     -0.829600
      2 CA          0.7700    0.1370    0.4440 c3        1 HGA     -0.064500
      3 CB          0.3420   -0.0470    1.8960 c3        1 HGA     -0.083400
      4 CG          0.7370    1.1460    2.7530 c3        1 HGA     -0.108400
      5 CD          2.1120    0.9570    3.3230 c         1 HGA      0.601100
      6 OE1         2.6420   -0.0480    3.7630 o         1 HGA     -0.426100
      7 NE2         2.9880    2.2250    3.4480 n4        1 HGA     -0.456300
      8 OZ2         2.5060    3.1150    4.3380 oh        1 HGA     -0.363300
      9 C           2.3470    0.3070    0.2930 c         1 HGA      0.958600
     10 O           2.8820   -0.3080   -0.6470 o         1 HGA     -0.774800
     11 OXT         2.8900    1.0800    1.1270 o         1 HGA     -0.774800
     12 HN1         0.2730   -1.8620    0.1100 hn        1 HGA      0.462133
     13 HN2         1.0490   -1.1090   -1.1680 hn        1 HGA      0.462133
     14 HA          0.3160    1.0820    0.0260 hx        1 HGA      0.105700
     15 HB1         0.7980   -0.9840    2.3210 hc        1 HGA      0.078700
     16 HB2        -0.7760   -0.1520    1.9560 hc        1 HGA      0.078700
     17 HG1         0.6750    2.0930    2.1520 hc        1 HGA      0.106700
     18 HG2         0.0300    1.2360    3.6260 hc        1 HGA      0.106700
     19 HNE         3.9650    1.9480    3.6570 hn        1 HGA      0.496300
     20 HOZ         2.6500    2.7620    5.2450 ho        1 HGA      0.466000
     21 HN3        -0.5840   -0.8020   -0.8510 hn        1 HGA      0.462133
     22 HE23        2.9810    2.7030    2.5140 hn        1 HGA      0.496300
@<TRIPOS>BOND
     1    1    2 1   
     2    1   12 1   
     3    1   13 1   
     4    1   21 1   
     5    2    3 1   
     6    2    9 1   
     7    2   14 1   
     8    3    4 1   
     9    3   15 1   
    10    3   16 1   
    11    4    5 1   
    12    4   17 1   
    13    4   18 1   
    14    5    6 2   
    15    5    7 1   
    16    7    8 1   
    17    7   19 1   
    18    7   22 1   
    19    8   20 1   
    20    9   10 1   
    21    9   11 1   
@<TRIPOS>SUBSTRUCTURE
     1 HGA         1 TEMP              0 ****  ****    0 ROOT
