@<TRIPOS>MOLECULE
HGA
   20    19     1     0     0
SMALL
bcc


@<TRIPOS>ATOM
      1 N           1.7200   -0.7270    1.8080 n3        1 HGA     -0.893800
      2 CA          0.7360    0.2730    1.4150 c3        1 HGA      0.016500
      3 CB          0.1410    0.0280    0.0280 c3        1 HGA     -0.070400
      4 CG          1.1700    0.2210   -1.0650 c3        1 HGA     -0.150400
      5 CD          0.6090   -0.0350   -2.4410 c         1 HGA      0.596100
      6 OE1         1.1350   -0.8160   -3.2560 o         1 HGA     -0.606100
      7 NE2        -0.4880    0.7760   -2.8740 n         1 HGA     -0.366400
      8 OZ2        -1.1740    0.2890   -3.9150 oh        1 HGA     -0.449100
      9 C          -0.4470    0.4550    2.4280 c         1 HGA      0.889600
     10 O          -0.3680   -0.1380    3.5400 o         1 HGA     -0.838800
     11 OXT        -1.4000    1.2050    2.0780 o         1 HGA     -0.838800
     12 HN1         1.3040   -1.6380    1.7140 hn        1 HGA      0.334300
     13 HN2         1.8970   -0.5980    2.7910 hn        1 HGA      0.334300
     14 HA          1.2810    1.2630    1.3940 h1        1 HGA      0.041700
     15 HB1        -0.2880   -1.0060   -0.0320 hc        1 HGA      0.054700
     16 HB2        -0.7070    0.7580   -0.0830 hc        1 HGA      0.054700
     17 HG1         1.5710    1.2690   -1.0300 hc        1 HGA      0.077700
     18 HG2         2.0330   -0.4800   -0.9100 hc        1 HGA      0.077700
     19 HNE        -1.1530    0.9670   -2.1310 hn        1 HGA      0.313500
     20 HOZ        -0.5410    0.2570   -4.6590 ho        1 HGA      0.424000
@<TRIPOS>BOND
     1    1    2 1   
     2    1   12 1   
     3    1   13 1   
     4    2    3 1   
     5    2    9 1   
     6    2   14 1   
     7    3    4 1   
     8    3   15 1   
     9    3   16 1   
    10    4    5 1   
    11    4   17 1   
    12    4   18 1   
    13    5    6 2   
    14    5    7 1   
    15    7    8 1   
    16    7   19 1   
    17    8   20 1   
    18    9   10 1   
    19    9   11 1   
@<TRIPOS>SUBSTRUCTURE
     1 HGA         1 TEMP              0 ****  ****    0 ROOT
