@<TRIPOS>MOLECULE
HGA
   22    21     1     0     0
SMALL
bcc


@<TRIPOS>ATOM
      1 N           0.5450   -1.1220   -0.3860 nz        1 HGA     -0.829600
      2 CA          0.8760    0.0950    0.4170 c3        1 HGA     -0.063500
      3 CB          0.2250    0.0710    1.7970 c3        1 HGA     -0.081400
      4 CG          0.5320    1.3360    2.5850 c3        1 HGA     -0.114400
      5 CD          1.8000    1.1730    3.3730 c         1 HGA      0.596100
      6 OE1         2.2410    0.1850    3.9360 o         1 HGA     -0.436100
      7 NE2         2.6370    2.4500    3.5740 ny        1 HGA     -0.453300
      8 OZ2         3.4770    2.3700    4.6280 oh        1 HGA     -0.366300
      9 C           2.4600    0.2440    0.4920 c         1 HGA      0.959600
     10 O           3.1200   -0.4500   -0.3030 o         1 HGA     -0.775300
     11 OXT         2.8860    1.0810    1.3330 o         1 HGA     -0.775300
     12 HN1         0.4170   -1.9310    0.2250 hn        1 HGA      0.462800
     13 HN2        -0.2920   -0.9820   -0.9490 hn        1 HGA      0.462800
     14 HA          0.5100    0.9900   -0.1650 hx        1 HGA      0.105700
     15 HB1        -0.8920   -0.0000    1.6910 hc        1 HGA      0.080200
     16 HB2         0.5740   -0.8270    2.3770 hc        1 HGA      0.080200
     17 HG1        -0.2970    1.5260    3.3250 hc        1 HGA      0.103700
     18 HG2         0.5990    2.2150    1.8880 hc        1 HGA      0.103700
     19 HNE         3.1820    2.6150    2.6930 hn        1 HGA      0.494300
     20 HOZ         3.9230    1.4870    4.6080 ho        1 HGA      0.489000
     21 HN3         1.3670   -1.3060   -1.0040 hn        1 HGA      0.462800
     22 HE23        2.0260    3.2630    3.7620 hn        1 HGA      0.494300
@<TRIPOS>BOND
     1    1    2 1   
     2    1   12 1   
     3    1   13 1   
     4    1   21 1   
     5    2    3 1   
     6    2    9 1   
     7    2   14 1   
     8    3    4 1   
     9    3   15 1   
    10    3   16 1   
    11    4    5 1   
    12    4   17 1   
    13    4   18 1   
    14    5    6 2   
    15    5    7 1   
    16    7    8 1   
    17    7   19 1   
    18    7   22 1   
    19    8   20 1   
    20    9   10 1   
    21    9   11 1   
@<TRIPOS>SUBSTRUCTURE
     1 HGA         1 TEMP              0 ****  ****    0 ROOT
