@<TRIPOS>MOLECULE
HGA
   20    19     1     0     0
SMALL
bcc


@<TRIPOS>ATOM
      1 N          -0.7290   -2.0730   -1.7230 n3        1 HGA     -0.893800
      2 CA         -0.1510   -0.7890   -1.6600 c3        1 HGA      0.016500
      3 CB          0.4380   -0.5590   -0.2550 c3        1 HGA     -0.070400
      4 CG         -0.3200    0.5520    0.4340 c3        1 HGA     -0.150400
      5 CD          0.2320    0.7460    1.8540 c         1 HGA      0.596100
      6 OE1         1.2010    0.0960    2.2290 o         1 HGA     -0.606100
      7 NE2        -0.3480    1.7370    2.7190 n         1 HGA     -0.366400
      8 OZ2         0.1230    1.8920    4.0120 oh        1 HGA     -0.449100
      9 C           0.9490   -0.6760   -2.6970 c         1 HGA      0.889600
     10 O           1.8910   -1.5110   -2.7080 o         1 HGA     -0.838800
     11 OXT         0.9350    0.2680   -3.5290 o         1 HGA     -0.838800
     12 HN1        -0.7230   -2.3680   -2.5840 hn        1 HGA      0.334300
     13 HN2        -1.5860   -2.0330   -1.4220 hn        1 HGA      0.334300
     14 HA         -0.8290   -0.1230   -1.8370 h1        1 HGA      0.041700
     15 HB1         0.3600   -1.3820    0.2710 hc        1 HGA      0.054700
     16 HB2         1.3770   -0.3120   -0.3340 hc        1 HGA      0.054700
     17 HG1        -1.2780    0.3160    0.4830 hc        1 HGA      0.077700
     18 HG2        -0.2150    1.3820   -0.0740 hc        1 HGA      0.077700
     19 HNE        -1.0110    2.2760    2.4100 hn        1 HGA      0.313500
     20 HOZ        -0.3160    2.5590    4.4100 ho        1 HGA      0.424000
@<TRIPOS>BOND
     1    1    2 1   
     2    1   12 1   
     3    1   13 1   
     4    2    3 1   
     5    2    9 1   
     6    2   14 1   
     7    3    4 1   
     8    3   15 1   
     9    3   16 1   
    10    4    5 1   
    11    4   17 1   
    12    4   18 1   
    13    5    6 2   
    14    5    7 1   
    15    7    8 1   
    16    7   19 1   
    17    8   20 1   
    18    9   10 1   
    19    9   11 1   
@<TRIPOS>SUBSTRUCTURE
     1 HGA         1 TEMP              0 ****  ****    0 ROOT
