@<TRIPOS>MOLECULE
HGA
   22    21     1     0     0
SMALL
bcc


@<TRIPOS>ATOM
      1 N           0.3530   -0.9580   -0.4680 n4        1 HGA     -0.829600
      2 CA          0.7620    0.1590    0.4400 c3        1 HGA     -0.064500
      3 CB          0.3860   -0.1130    1.8930 c3        1 HGA     -0.083400
      4 CG          0.7380    1.0630    2.7920 c3        1 HGA     -0.108400
      5 CD          2.1370    0.9280    3.3170 c         1 HGA      0.601100
      6 OE1         2.7350   -0.0630    3.6990 o         1 HGA     -0.426100
      7 NE2         2.9430    2.2380    3.4770 n4        1 HGA     -0.456300
      8 OZ2         2.4350    3.0610    4.4160 oh        1 HGA     -0.363300
      9 C           2.3220    0.4250    0.2560 c         1 HGA      0.958600
     10 O           2.8650   -0.1170   -0.7250 o         1 HGA     -0.774800
     11 OXT         2.8450    1.1890    1.1110 o         1 HGA     -0.774800
     12 HN1         0.3680   -1.8490    0.0290 hn        1 HGA      0.462133
     13 HN2         1.0650   -0.9980   -1.2330 hn        1 HGA      0.462133
     14 HA          0.2440    1.0930    0.0770 hx        1 HGA      0.105700
     15 HB1         0.9050   -1.0390    2.2630 hc        1 HGA      0.078700
     16 HB2        -0.7220   -0.2840    1.9760 hc        1 HGA      0.078700
     17 HG1         0.0520    1.0750    3.6860 hc        1 HGA      0.106700
     18 HG2         0.6060    2.0300    2.2360 hc        1 HGA      0.106700
     19 HNE         3.9400    2.0090    3.6510 hn        1 HGA      0.496300
     20 HOZ         2.6220    2.6790    5.3030 ho        1 HGA      0.466000
     21 HN3        -0.5730   -0.7990   -0.8600 hn        1 HGA      0.462133
     22 HE23        2.8860    2.7530    2.5650 hn        1 HGA      0.496300
@<TRIPOS>BOND
     1    1    2 1   
     2    1   12 1   
     3    1   13 1   
     4    1   21 1   
     5    2    3 1   
     6    2    9 1   
     7    2   14 1   
     8    3    4 1   
     9    3   15 1   
    10    3   16 1   
    11    4    5 1   
    12    4   17 1   
    13    4   18 1   
    14    5    6 2   
    15    5    7 1   
    16    7    8 1   
    17    7   19 1   
    18    7   22 1   
    19    8   20 1   
    20    9   10 1   
    21    9   11 1   
@<TRIPOS>SUBSTRUCTURE
     1 HGA         1 TEMP              0 ****  ****    0 ROOT
