@<TRIPOS>MOLECULE
HGF
   49    53     1     0     0
SMALL
bcc


@<TRIPOS>ATOM
      1 N1          0.0180   -0.0800    0.0560 na        1 HGF     -0.145400
      2 C3          1.4010    0.1340   -0.0070 ca        1 HGF     -0.077200
      3 C4          2.3380    0.3760    1.0330 ca        1 HGF      0.005000
      4 C5          3.6910    0.5520    0.6420 ca        1 HGF     -0.143300
      5 C6          4.6390    0.7890    1.6890 ca        1 HGF      0.427200
      6 N8          4.3380    0.8570    2.9760 nb        1 HGF     -0.657000
      7 C9          3.0180    0.6920    3.3410 cp        1 HGF      0.452800
      8 C10         2.0100    0.4500    2.4080 ca        1 HGF     -0.226300
      9 C12         2.6770    0.7740    4.7680 cp        1 HGF     -0.222800
     10 C13         1.4630    1.3840    5.1720 ca        1 HGF      0.367200
     11 N15         1.0700    1.4800    6.4510 nb        1 HGF     -0.639000
     12 C16         1.8780    0.9730    7.4010 ca        1 HGF      0.326200
     13 C18         3.1110    0.3580    7.0970 ca        1 HGF      0.010800
     14 C19         3.5220    0.2590    5.7530 ca        1 HGF     -0.086000
     15 O21         3.9710   -0.1900    8.0230 os        1 HGF     -0.322900
     16 C22         3.6210    0.0250    9.3980 c3        1 HGF      0.122400
     17 C25         4.7860   -0.5360   10.2080 c3        1 HGF      0.122400
     18 O28         5.4490    0.5850   10.7890 os        1 HGF     -0.423600
     19 C29         6.6670    0.2310   11.4200 c3        1 HGF      0.116700
     20 C33         4.0830    0.4910   -0.7270 ca        1 HGF     -0.129000
     21 C35         3.1710    0.2600   -1.7240 ca        1 HGF     -0.070000
     22 C37         1.8140    0.0780   -1.3820 ca        1 HGF     -0.028800
     23 C38         0.6270   -0.1760   -2.1470 cc        1 HGF     -0.195400
     24 C39        -0.4490   -0.2680   -1.2380 cd        1 HGF     -0.029300
     25 C40        -1.8340   -0.5560   -1.6670 c3        1 HGF     -0.037200
     26 C43        -2.0060   -0.2070   -3.1550 c3        1 HGF      0.107000
     27 N46        -0.8880   -0.5230   -3.9990 n         1 HGF     -0.577900
     28 C48         0.4320   -0.3410   -3.5850 c         1 HGF      0.740700
     29 O49         1.3520   -0.3680   -4.4250 o         1 HGF     -0.638500
     30 H6          5.7060    0.9290    1.4310 h4        1 HGF      0.027100
     31 H10         0.9720    0.3080    2.7360 ha        1 HGF      0.136000
     32 H13         0.7810    1.8280    4.4250 h4        1 HGF      0.022100
     33 H16         1.5170    1.0730    8.4390 h4        1 HGF      0.027100
     34 H19         4.4860   -0.2100    5.5050 ha        1 HGF      0.171000
     35 H22         3.4870    1.1210    9.5960 h1        1 HGF      0.057700
     36 H22A        2.6750   -0.5320    9.6250 h1        1 HGF      0.057700
     37 H25         4.4060   -1.2040   11.0250 h1        1 HGF      0.047200
     38 H25A        5.4910   -1.1100    9.5490 h1        1 HGF      0.047200
     39 H29         7.3850   -0.2000   10.6790 h1        1 HGF      0.035367
     40 H29A        6.4850   -0.5010   12.2460 h1        1 HGF      0.035367
     41 H29B        7.0580    1.1960   11.8290 h1        1 HGF      0.035367
     42 H33         5.1480    0.6350   -0.9670 ha        1 HGF      0.140000
     43 H35         3.4590    0.2070   -2.7870 ha        1 HGF      0.167000
     44 H40        -2.5830    0.0330   -1.0760 hc        1 HGF      0.068200
     45 H40A       -2.0480   -1.6480   -1.5030 hc        1 HGF      0.068200
     46 H43        -2.2400    0.8970   -3.2250 h1        1 HGF      0.041200
     47 H43A       -2.9030   -0.7710   -3.5420 h1        1 HGF      0.041200
     48 HN46       -1.0600   -0.5510   -4.9770 hn        1 HGF      0.320500
     49 HN1        -0.5220   -0.1050    0.8800 hn        1 HGF      0.305700
@<TRIPOS>BOND
     1    1    2 1   
     2    1   24 1   
     3    1   49 1   
     4    2    3 ar  
     5    2   22 ar  
     6    3    4 ar  
     7    3    8 ar  
     8    4    5 ar  
     9    4   20 ar  
    10    5    6 ar  
    11    5   30 1   
    12    6    7 ar  
    13    7    8 ar  
    14    7    9 1   
    15    8   31 1   
    16    9   10 ar  
    17    9   14 ar  
    18   10   11 ar  
    19   10   32 1   
    20   11   12 ar  
    21   12   13 ar  
    22   12   33 1   
    23   13   14 ar  
    24   13   15 1   
    25   14   34 1   
    26   15   16 1   
    27   16   17 1   
    28   16   35 1   
    29   16   36 1   
    30   17   18 1   
    31   17   37 1   
    32   17   38 1   
    33   18   19 1   
    34   19   39 1   
    35   19   40 1   
    36   19   41 1   
    37   20   21 ar  
    38   20   42 1   
    39   21   22 ar  
    40   21   43 1   
    41   22   23 1   
    42   23   24 2   
    43   23   28 1   
    44   24   25 1   
    45   25   26 1   
    46   25   44 1   
    47   25   45 1   
    48   26   27 1   
    49   26   46 1   
    50   26   47 1   
    51   27   28 1   
    52   27   48 1   
    53   28   29 2   
@<TRIPOS>SUBSTRUCTURE
     1 HGF         1 TEMP              0 ****  ****    0 ROOT
