@<TRIPOS>MOLECULE
HGF
   49    40     1     0     0
SMALL
bcc


@<TRIPOS>ATOM
      1 N1         -1.9950   -0.9490   -3.0230 n2        1 HGF     -0.168000
      2 C3         -0.5820   -0.8030   -2.9970 c1        1 HGF     -0.032000
      3 C4          0.3620   -0.7930   -1.9130 c1        1 HGF      0.005000
      4 C5          1.6940   -0.6880   -2.1750 c1        1 HGF     -0.077000
      5 C6          2.6270   -0.6660   -1.1050 c1        1 HGF     -0.083500
      6 N8          2.1900   -0.7500    0.1910 n1        1 HGF     -0.132000
      7 C9          0.8460   -0.8560    0.4610 c1        1 HGF      0.016000
      8 C10        -0.0820   -0.8780   -0.5920 c1        1 HGF     -0.161000
      9 C12         0.4240   -0.8520    1.8380 c1        1 HGF     -0.033500
     10 C13        -0.1750   -1.9790    2.3820 c1        1 HGF     -0.083000
     11 N15        -0.6320   -1.9580    3.6800 n1        1 HGF     -0.112000
     12 C16        -0.4980   -0.8220    4.4410 c1        1 HGF     -0.137000
     13 C18         0.1030    0.3120    3.9010 c1        1 HGF      0.029000
     14 C19         0.5610    0.2940    2.6020 c1        1 HGF     -0.086000
     15 O21         0.2990    1.4610    4.7060 os        1 HGF     -0.206000
     16 C22         1.2970    1.3060    5.6890 c3        1 HGF     -0.026000
     17 C25         1.5260    2.6590    6.4080 c3        1 HGF     -0.027000
     18 O28         2.2000    2.4400    7.6470 os        1 HGF     -0.280000
     19 C29         2.7570    3.6200    8.2080 c3        1 HGF     -0.071000
     20 C33         2.1580   -0.5870   -3.5420 c1        1 HGF     -0.083500
     21 C35         1.2520   -0.5960   -4.5840 c1        1 HGF     -0.083000
     22 C37        -0.1310   -0.7050   -4.3160 c1        1 HGF     -0.033500
     23 C38        -1.2190   -0.7850   -5.1410 c1        1 HGF     -0.188000
     24 C39        -2.3930   -0.9400   -4.3120 c1        1 HGF      0.002000
     25 C40        -3.7690   -1.0330   -5.0350 c2        1 HGF     -0.120000
     26 C43        -3.7580   -0.8170   -6.4390 c3        1 HGF     -0.009000
     27 N46        -2.6400   -1.2900   -7.1420 n3        1 HGF     -0.387000
     28 C48        -1.4160   -0.9150   -6.7030 c1        1 HGF      0.379000
     29 O49        -0.4630   -0.9710   -7.4340 o         1 HGF     -0.363000
     30 H6          3.5440   -0.5940   -1.2860 ha        1 HGF      0.152000
     31 H10        -1.0080   -0.9510   -0.4070 ha        1 HGF      0.136000
     32 H13        -0.2730   -2.7930    1.8420 ha        1 HGF      0.163500
     33 H16        -0.8260   -0.8100    5.3700 ha        1 HGF      0.167000
     34 H19         1.0030    1.1270    2.2030 ha        1 HGF      0.171000
     35 H22         2.1230    1.0190    5.2690 h1        1 HGF      0.094500
     36 H22A        1.0060    0.6230    6.3500 h1        1 HGF      0.094500
     37 H25         2.0840    3.2500    5.8320 h1        1 HGF      0.083500
     38 H25A        0.6380    3.1000    6.5820 h1        1 HGF      0.083500
     39 H29         3.4510    3.9770    7.6000 h1        1 HGF      0.076000
     40 H29A        2.0460    4.2950    8.3270 h1        1 HGF      0.076000
     41 H29B        3.1620    3.4100    9.0810 h1        1 HGF      0.076000
     42 H33         3.0960   -0.4680   -3.7240 ha        1 HGF      0.152000
     43 H35         1.5930   -0.5680   -5.5730 ha        1 HGF      0.163500
     44 H40        -4.1340   -1.9140   -4.8700 ha        1 HGF      0.107500
     45 H40A       -4.3540   -0.3890   -4.6410 ha        1 HGF      0.107500
     46 H43        -4.5500   -1.2390   -6.8140 h1        1 HGF      0.080500
     47 H43A       -3.8270    0.1910   -6.6020 h1        1 HGF      0.080500
     48 HN46       -2.7430   -1.6700   -7.9940 hn        1 HGF      0.234000
     49 HN1        -2.5730   -1.0530   -2.2460 DU        1 HGF      0.256000
@<TRIPOS>BOND
     1    1    2 1   
     2    1   24 1   
     3    2    3 1   
     4    3    8 1   
     5    4    5 1   
     6    4   20 1   
     7    5   30 1   
     8    6    7 1   
     9    8   31 1   
    10    9   10 1   
    11   10   32 1   
    12   11   12 1   
    13   12   33 1   
    14   13   14 1   
    15   13   15 1   
    16   14   34 1   
    17   15   16 1   
    18   16   17 1   
    19   16   35 1   
    20   16   36 1   
    21   17   18 1   
    22   17   37 1   
    23   17   38 1   
    24   18   19 1   
    25   19   39 1   
    26   19   40 1   
    27   19   41 1   
    28   20   42 1   
    29   21   22 1   
    30   21   43 1   
    31   23   24 1   
    32   25   26 1   
    33   25   44 1   
    34   25   45 1   
    35   26   27 1   
    36   26   46 1   
    37   26   47 1   
    38   27   28 1   
    39   27   48 1   
    40   28   29 1   
@<TRIPOS>SUBSTRUCTURE
     1 HGF         1 TEMP              0 ****  ****    0 ROOT
