@<TRIPOS>MOLECULE
HGF
   49    53     1     0     0
SMALL
bcc


@<TRIPOS>ATOM
      1 N1         -3.2340    1.2770    0.1160 na        1 HGF     -0.145400
      2 C3         -2.8280   -0.0480   -0.0860 ca        1 HGF     -0.077200
      3 C4         -1.5280   -0.5860   -0.2900 ca        1 HGF      0.005000
      4 C5         -1.4420   -1.9930   -0.4640 ca        1 HGF     -0.143300
      5 C6         -0.1330   -2.5380   -0.6620 ca        1 HGF      0.427200
      6 N8          0.9820   -1.8270   -0.6960 nb        1 HGF     -0.657000
      7 C9          0.8830   -0.4610   -0.5340 cp        1 HGF      0.452800
      8 C10        -0.3390    0.1790   -0.3270 ca        1 HGF     -0.226300
      9 C12         2.1180    0.3360   -0.5780 cp        1 HGF     -0.222800
     10 C13         2.1130    1.6150   -1.1870 ca        1 HGF      0.367200
     11 N15         3.1910    2.4100   -1.2500 nb        1 HGF     -0.639000
     12 C16         4.3400    1.9640   -0.7080 ca        1 HGF      0.326200
     13 C18         4.4450    0.6990   -0.0900 ca        1 HGF      0.010800
     14 C19         3.3110   -0.1350   -0.0270 ca        1 HGF     -0.086000
     15 O21         5.5870    0.1960    0.4920 os        1 HGF     -0.322900
     16 C22         6.7730    0.9840    0.3140 c3        1 HGF      0.122400
     17 C25         7.9060    0.1540    0.9100 c3        1 HGF      0.122400
     18 O28         8.7100   -0.2750   -0.1870 os        1 HGF     -0.423600
     19 C29         9.7000   -1.2140    0.1950 c3        1 HGF      0.116700
     20 C33        -2.6040   -2.8170   -0.4390 ca        1 HGF     -0.129000
     21 C35        -3.8550   -2.2880   -0.2450 ca        1 HGF     -0.070000
     22 C37        -3.9880   -0.8950   -0.0670 ca        1 HGF     -0.028800
     23 C38        -5.1110   -0.0290    0.1540 cc        1 HGF     -0.195400
     24 C39        -4.6150    1.2870    0.2620 cd        1 HGF     -0.029300
     25 C40        -5.4870    2.4510    0.5250 c3        1 HGF     -0.037200
     26 C43        -6.9370    2.1190    0.1320 c3        1 HGF      0.107000
     27 N46        -7.3700    0.7830    0.4340 n         1 HGF     -0.577900
     28 C48        -6.5370   -0.3240    0.2760 c         1 HGF      0.740700
     29 O49        -7.0240   -1.4710    0.2880 o         1 HGF     -0.638500
     30 H6         -0.0180   -3.6300   -0.8000 h4        1 HGF      0.027100
     31 H10        -0.3790    1.2680   -0.1860 ha        1 HGF      0.136000
     32 H13         1.1960    2.0100   -1.6580 h4        1 HGF      0.022100
     33 H16         5.2010    2.6490   -0.7820 h4        1 HGF      0.027100
     34 H19         3.3840   -1.1260    0.4450 ha        1 HGF      0.171000
     35 H22         6.9490    1.1770   -0.7760 h1        1 HGF      0.057700
     36 H22A        6.6550    1.9500    0.8690 h1        1 HGF      0.057700
     37 H25         8.5300    0.7830    1.5990 h1        1 HGF      0.047200
     38 H25A        7.5030   -0.7320    1.4690 h1        1 HGF      0.047200
     39 H29        10.3940   -0.7690    0.9500 h1        1 HGF      0.035367
     40 H29A        9.2280   -2.1390    0.6110 h1        1 HGF      0.035367
     41 H29B       10.2460   -1.4440   -0.7530 h1        1 HGF      0.035367
     42 H33        -2.4730   -3.9010   -0.5800 ha        1 HGF      0.140000
     43 H35        -4.7620   -2.9130   -0.2200 ha        1 HGF      0.167000
     44 H40        -5.4370    2.7060    1.6190 hc        1 HGF      0.068200
     45 H40A       -5.1620    3.3540   -0.0540 hc        1 HGF      0.068200
     46 H43        -7.6170    2.8360    0.6760 h1        1 HGF      0.041200
     47 H43A       -7.0480    2.3170   -0.9760 h1        1 HGF      0.041200
     48 HN46       -8.3510    0.6210    0.4330 hn        1 HGF      0.320500
     49 HN1        -2.6370    2.0600    0.1590 hn        1 HGF      0.305700
@<TRIPOS>BOND
     1    1    2 1   
     2    1   24 1   
     3    1   49 1   
     4    2    3 ar  
     5    2   22 ar  
     6    3    4 ar  
     7    3    8 ar  
     8    4    5 ar  
     9    4   20 ar  
    10    5    6 ar  
    11    5   30 1   
    12    6    7 ar  
    13    7    8 ar  
    14    7    9 1   
    15    8   31 1   
    16    9   10 ar  
    17    9   14 ar  
    18   10   11 ar  
    19   10   32 1   
    20   11   12 ar  
    21   12   13 ar  
    22   12   33 1   
    23   13   14 ar  
    24   13   15 1   
    25   14   34 1   
    26   15   16 1   
    27   16   17 1   
    28   16   35 1   
    29   16   36 1   
    30   17   18 1   
    31   17   37 1   
    32   17   38 1   
    33   18   19 1   
    34   19   39 1   
    35   19   40 1   
    36   19   41 1   
    37   20   21 ar  
    38   20   42 1   
    39   21   22 ar  
    40   21   43 1   
    41   22   23 1   
    42   23   24 2   
    43   23   28 1   
    44   24   25 1   
    45   25   26 1   
    46   25   44 1   
    47   25   45 1   
    48   26   27 1   
    49   26   46 1   
    50   26   47 1   
    51   27   28 1   
    52   27   48 1   
    53   28   29 2   
@<TRIPOS>SUBSTRUCTURE
     1 HGF         1 TEMP              0 ****  ****    0 ROOT
