@<TRIPOS>MOLECULE
HGF
   49    53     1     0     0
SMALL
bcc


@<TRIPOS>ATOM
      1 N1          0.0240   -0.1020    0.0530 na        1 HGF     -0.145400
      2 C3          1.4010    0.1450   -0.0070 ca        1 HGF     -0.077200
      3 C4          2.3320    0.3990    1.0350 ca        1 HGF      0.005000
      4 C5          3.6810    0.6120    0.6450 ca        1 HGF     -0.143300
      5 C6          4.6230    0.8610    1.6940 ca        1 HGF      0.427200
      6 N8          4.3220    0.9080    2.9820 nb        1 HGF     -0.657000
      7 C9          3.0070    0.7080    3.3460 cp        1 HGF      0.452800
      8 C10         2.0040    0.4510    2.4100 ca        1 HGF     -0.226300
      9 C12         2.6640    0.7670    4.7740 cp        1 HGF     -0.222800
     10 C13         1.4360    1.3420    5.1840 ca        1 HGF      0.367200
     11 N15         1.0420    1.4160    6.4640 nb        1 HGF     -0.639000
     12 C16         1.8620    0.9180    7.4090 ca        1 HGF      0.326200
     13 C18         3.1100    0.3360    7.0980 ca        1 HGF      0.010800
     14 C19         3.5220    0.2620    5.7530 ca        1 HGF     -0.086000
     15 O21         3.9830   -0.2000    8.0180 os        1 HGF     -0.322900
     16 C22         3.6280   -0.0100    9.3950 c3        1 HGF      0.122400
     17 C25         4.8060   -0.5510   10.1990 c3        1 HGF      0.122400
     18 O28         5.4400    0.5790   10.7940 os        1 HGF     -0.423600
     19 C29         6.6660    0.2480   11.4230 c3        1 HGF      0.116700
     20 C33         4.0730    0.5740   -0.7250 ca        1 HGF     -0.129000
     21 C35         3.1660    0.3320   -1.7240 ca        1 HGF     -0.070000
     22 C37         1.8140    0.1140   -1.3830 ca        1 HGF     -0.028800
     23 C38         0.6330   -0.1610   -2.1500 cc        1 HGF     -0.195400
     24 C39        -0.4390   -0.2880   -1.2420 cd        1 HGF     -0.029300
     25 C40        -1.8170   -0.6060   -1.6730 c3        1 HGF     -0.037200
     26 C43        -1.9990   -0.2460   -3.1570 c3        1 HGF      0.107000
     27 N46        -0.8730   -0.5260   -4.0050 ns        1 HGF     -0.577900
     28 C48         0.4420   -0.3160   -3.5900 c         1 HGF      0.740700
     29 O49         1.3620   -0.3130   -4.4310 o         1 HGF     -0.638500
     30 H6          5.6860    1.0290    1.4370 h4        1 HGF      0.027100
     31 H10         0.9700    0.2810    2.7370 ha        1 HGF      0.136000
     32 H13         0.7430    1.7770    4.4420 h4        1 HGF      0.022100
     33 H16         1.4990    0.9990    8.4470 h4        1 HGF      0.027100
     34 H19         4.4970   -0.1820    5.5000 ha        1 HGF      0.171000
     35 H22         3.4670    1.0800    9.6050 h1        1 HGF      0.057700
     36 H22A        2.6960   -0.5920    9.6160 h1        1 HGF      0.057700
     37 H25         4.4430   -1.2390   11.0080 h1        1 HGF      0.047200
     38 H25A        5.5260   -1.0980    9.5340 h1        1 HGF      0.047200
     39 H29         7.3960   -0.1550   10.6770 h1        1 HGF      0.035367
     40 H29A        7.0320    1.2180   11.8450 h1        1 HGF      0.035367
     41 H29B        6.5030   -0.4980   12.2390 h1        1 HGF      0.035367
     42 H33         5.1340    0.7470   -0.9630 ha        1 HGF      0.140000
     43 H35         3.4550    0.2970   -2.7870 ha        1 HGF      0.167000
     44 H40        -2.5800   -0.0410   -1.0760 hc        1 HGF      0.068200
     45 H40A       -2.0050   -1.7040   -1.5200 hc        1 HGF      0.068200
     46 H43        -2.2600    0.8530   -3.2170 h1        1 HGF      0.041200
     47 H43A       -2.8820   -0.8280   -3.5500 h1        1 HGF      0.041200
     48 HN46       -1.0450   -0.5490   -4.9830 hn        1 HGF      0.320500
     49 HN1        -0.5150   -0.1490    0.8780 hn        1 HGF      0.305700
@<TRIPOS>BOND
     1    1    2 1   
     2    1   24 1   
     3    1   49 1   
     4    2    3 ar  
     5    2   22 ar  
     6    3    4 ar  
     7    3    8 ar  
     8    4    5 ar  
     9    4   20 ar  
    10    5    6 ar  
    11    5   30 1   
    12    6    7 ar  
    13    7    8 ar  
    14    7    9 1   
    15    8   31 1   
    16    9   10 ar  
    17    9   14 ar  
    18   10   11 ar  
    19   10   32 1   
    20   11   12 ar  
    21   12   13 ar  
    22   12   33 1   
    23   13   14 ar  
    24   13   15 1   
    25   14   34 1   
    26   15   16 1   
    27   16   17 1   
    28   16   35 1   
    29   16   36 1   
    30   17   18 1   
    31   17   37 1   
    32   17   38 1   
    33   18   19 1   
    34   19   39 1   
    35   19   40 1   
    36   19   41 1   
    37   20   21 ar  
    38   20   42 1   
    39   21   22 ar  
    40   21   43 1   
    41   22   23 1   
    42   23   24 2   
    43   23   28 1   
    44   24   25 1   
    45   25   26 1   
    46   25   44 1   
    47   25   45 1   
    48   26   27 1   
    49   26   46 1   
    50   26   47 1   
    51   27   28 1   
    52   27   48 1   
    53   28   29 2   
@<TRIPOS>SUBSTRUCTURE
     1 HGF         1 TEMP              0 ****  ****    0 ROOT
