@<TRIPOS>MOLECULE
HGF
   49    53     1     0     0
SMALL
bcc


@<TRIPOS>ATOM
      1 N1          0.0190   -0.0880    0.0550 na        1 HGF     -0.145400
      2 C3          1.3990    0.1420   -0.0070 ca        1 HGF     -0.077200
      3 C4          2.3340    0.3890    1.0340 ca        1 HGF      0.005000
      4 C5          3.6860    0.5820    0.6430 ca        1 HGF     -0.143300
      5 C6          4.6310    0.8240    1.6920 ca        1 HGF      0.427200
      6 N8          4.3300    0.8810    2.9790 nb        1 HGF     -0.657000
      7 C9          3.0130    0.6990    3.3440 cp        1 HGF      0.452800
      8 C10         2.0070    0.4510    2.4090 ca        1 HGF     -0.226300
      9 C12         2.6710    0.7690    4.7710 cp        1 HGF     -0.222800
     10 C13         1.4500    1.3620    5.1790 ca        1 HGF      0.367200
     11 N15         1.0570    1.4460    6.4590 nb        1 HGF     -0.639000
     12 C16         1.8720    0.9420    7.4060 ca        1 HGF      0.326200
     13 C18         3.1120    0.3440    7.0980 ca        1 HGF      0.010800
     14 C19         3.5230    0.2580    5.7530 ca        1 HGF     -0.086000
     15 O21         3.9780   -0.2000    8.0200 os        1 HGF     -0.322900
     16 C22         3.6260    0.0020    9.3960 c3        1 HGF      0.122400
     17 C25         4.7980   -0.5500   10.2020 c3        1 HGF      0.122400
     18 O28         5.4470    0.5750   10.7900 os        1 HGF     -0.423600
     19 C29         6.6700    0.2320   11.4190 c3        1 HGF      0.116700
     20 C33         4.0770    0.5340   -0.7260 ca        1 HGF     -0.129000
     21 C35         3.1670    0.2980   -1.7240 ca        1 HGF     -0.070000
     22 C37         1.8130    0.0990   -1.3820 ca        1 HGF     -0.028800
     23 C38         0.6280   -0.1640   -2.1480 cc        1 HGF     -0.195400
     24 C39        -0.4460   -0.2730   -1.2400 cd        1 HGF     -0.029300
     25 C40        -1.8280   -0.5750   -1.6690 c3        1 HGF     -0.037200
     26 C43        -2.0050   -0.2200   -3.1550 c3        1 HGF      0.107000
     27 N46        -0.8830   -0.5170   -4.0010 n         1 HGF     -0.577900
     28 C48         0.4350   -0.3220   -3.5870 c         1 HGF      0.740700
     29 O49         1.3550   -0.3350   -4.4280 o         1 HGF     -0.638500
     30 H6          5.6960    0.9780    1.4330 h4        1 HGF      0.027100
     31 H10         0.9700    0.2960    2.7370 ha        1 HGF      0.136000
     32 H13         0.7630    1.8030    4.4350 h4        1 HGF      0.022100
     33 H16         1.5100    1.0320    8.4440 h4        1 HGF      0.027100
     34 H19         4.4910   -0.1990    5.5020 ha        1 HGF      0.171000
     35 H22         3.4790    1.0950    9.6010 h1        1 HGF      0.057700
     36 H22A        2.6870   -0.5670    9.6200 h1        1 HGF      0.057700
     37 H25         4.4260   -1.2280   11.0160 h1        1 HGF      0.047200
     38 H25A        5.5100   -1.1110    9.5400 h1        1 HGF      0.047200
     39 H29         6.4970   -0.5070   12.2400 h1        1 HGF      0.035367
     40 H29A        7.0490    1.1990   11.8350 h1        1 HGF      0.035367
     41 H29B        7.3930   -0.1860   10.6760 h1        1 HGF      0.035367
     42 H33         5.1400    0.6920   -0.9660 ha        1 HGF      0.140000
     43 H35         3.4550    0.2550   -2.7870 ha        1 HGF      0.167000
     44 H40        -2.0290   -1.6700   -1.5110 hc        1 HGF      0.068200
     45 H40A       -2.5840    0.0020   -1.0750 hc        1 HGF      0.068200
     46 H43        -2.2520    0.8820   -3.2190 h1        1 HGF      0.041200
     47 H43A       -2.8960   -0.7910   -3.5450 h1        1 HGF      0.041200
     48 HN46       -1.0560   -0.5420   -4.9800 hn        1 HGF      0.320500
     49 HN1        -0.5200   -0.1230    0.8800 hn        1 HGF      0.305700
@<TRIPOS>BOND
     1    1    2 1   
     2    1   24 1   
     3    1   49 1   
     4    2    3 ar  
     5    2   22 ar  
     6    3    4 ar  
     7    3    8 ar  
     8    4    5 ar  
     9    4   20 ar  
    10    5    6 ar  
    11    5   30 1   
    12    6    7 ar  
    13    7    8 ar  
    14    7    9 1   
    15    8   31 1   
    16    9   10 ar  
    17    9   14 ar  
    18   10   11 ar  
    19   10   32 1   
    20   11   12 ar  
    21   12   13 ar  
    22   12   33 1   
    23   13   14 ar  
    24   13   15 1   
    25   14   34 1   
    26   15   16 1   
    27   16   17 1   
    28   16   35 1   
    29   16   36 1   
    30   17   18 1   
    31   17   37 1   
    32   17   38 1   
    33   18   19 1   
    34   19   39 1   
    35   19   40 1   
    36   19   41 1   
    37   20   21 ar  
    38   20   42 1   
    39   21   22 ar  
    40   21   43 1   
    41   22   23 1   
    42   23   24 2   
    43   23   28 1   
    44   24   25 1   
    45   25   26 1   
    46   25   44 1   
    47   25   45 1   
    48   26   27 1   
    49   26   46 1   
    50   26   47 1   
    51   27   28 1   
    52   27   48 1   
    53   28   29 2   
@<TRIPOS>SUBSTRUCTURE
     1 HGF         1 TEMP              0 ****  ****    0 ROOT
