@<TRIPOS>MOLECULE
HGL
   29    30     1     0     0
SMALL
bcc


@<TRIPOS>ATOM
      1 C2          2.6760    1.7360    0.4110 cc        1 HGL      0.638800
      2 O6          4.7870   -0.8100   -0.9610 o         1 HGL     -0.630500
      3 C4          1.4150   -0.1880    0.3780 cd        1 HGL      0.093800
      4 C5          2.4900   -0.9640   -0.1990 cc        1 HGL      0.174800
      5 C6          3.7520   -0.3150   -0.4850 c         1 HGL      0.650000
      6 C8          0.8060   -2.3130    0.0460 cd        1 HGL      0.394400
      7 N          -3.9700   -1.3490    1.0710 n3        1 HGL     -0.896800
      8 CA         -3.3580   -0.1400    0.5320 c3        1 HGL      0.011500
      9 CB         -1.9800   -0.3920   -0.0810 c3        1 HGL     -0.079400
     10 CG         -0.9820   -0.7730    1.0110 c3        1 HGL      0.031300
     11 N9          0.3490   -1.0720    0.5440 na        1 HGL     -0.166900
     12 N3          1.4910    1.1610    0.6870 nd        1 HGL     -0.630100
     13 N2          2.8810    3.1040    0.7740 nh        1 HGL     -0.873800
     14 N1          3.7750    1.0690   -0.1730 n         1 HGL     -0.505400
     15 N7          2.0820   -2.2830   -0.3920 nc        1 HGL     -0.611000
     16 C          -4.2330    0.6100   -0.5330 c         1 HGL      0.892600
     17 O          -5.3690    0.1300   -0.8030 o         1 HGL     -0.835300
     18 OXT        -3.7520    1.6610   -1.0370 o         1 HGL     -0.835300
     19 HN1         4.6320    1.5550   -0.3130 hn        1 HGL      0.327500
     20 HA         -3.2350    0.5760    1.3960 h1        1 HGL      0.042700
     21 HB         -2.0380   -1.1980   -0.8570 hc        1 HGL      0.063200
     22 HBA        -1.6630    0.5570   -0.5920 hc        1 HGL      0.063200
     23 HG         -0.9060    0.0760    1.7490 h1        1 HGL      0.071200
     24 HGA        -1.3500   -1.6900    1.5560 h1        1 HGL      0.071200
     25 HN2         2.0620    3.5170    1.1770 hn        1 HGL      0.400800
     26 HN2A        3.2310    3.6510    0.0140 hn        1 HGL      0.400800
     27 H8          0.1520   -3.1920    0.0390 h5        1 HGL      0.067100
     28 HN         -4.9010   -1.1040    1.3640 hn        1 HGL      0.334300
     29 HNA        -4.0800   -2.0070    0.3190 hn        1 HGL      0.334300
@<TRIPOS>BOND
     1    1   12 2   
     2    1   13 1   
     3    1   14 1   
     4    2    5 2   
     5    3    4 2   
     6    3   11 1   
     7    3   12 1   
     8    4    5 1   
     9    4   15 1   
    10    5   14 1   
    11    6   11 1   
    12    6   15 2   
    13    6   27 1   
    14    7    8 1   
    15    7   28 1   
    16    7   29 1   
    17    8    9 1   
    18    8   16 1   
    19    8   20 1   
    20    9   10 1   
    21    9   21 1   
    22    9   22 1   
    23   10   11 1   
    24   10   23 1   
    25   10   24 1   
    26   13   25 1   
    27   13   26 1   
    28   14   19 1   
    29   16   17 1   
    30   16   18 1   
@<TRIPOS>SUBSTRUCTURE
     1 HGL         1 TEMP              0 ****  ****    0 ROOT
