@<TRIPOS>MOLECULE
HGM
   23    19     1     0     0
SMALL
bcc


@<TRIPOS>ATOM
      1 C          -1.3310   -1.3830   -1.3570 c1        1 HGM      0.316000
      2 N           0.4160    0.1010   -2.1000 n3        1 HGM     -0.279000
      3 O          -2.5670   -1.4480   -1.7180 o         1 HGM     -0.568500
      4 C1         -0.1430    0.0530    0.2400 c1        1 HGM     -0.036000
      5 C2          1.1000   -0.4910    0.5500 c1        1 HGM     -0.081000
      6 C3          1.5670   -0.4720    1.8780 c1        1 HGM     -0.219000
      7 C4          0.7780    0.0950    2.8890 c1        1 HGM      0.040000
      8 O4          1.2370    0.1150    4.1950 o         1 HGM     -0.276000
      9 C5         -0.9310    0.6200    1.2520 c1        1 HGM     -0.101000
     10 C6         -0.4640    0.6390    2.5810 c2        1 HGM     -0.172000
     11 CA         -0.6760   -0.0470   -1.1630 c2        1 HGM     -0.095000
     12 CH3         0.0800    1.1290   -3.0750 c3        1 HGM     -0.125000
     13 OXT        -0.6570   -2.4330   -1.2440 o         1 HGM     -0.568500
     14 HN          0.5630   -0.6760   -2.5190 hn        1 HGM      0.150000
     15 H2          1.6580   -0.8920   -0.1650 ha        1 HGM      0.180000
     16 H3          2.3640   -0.9600    2.1120 ha        1 HGM      0.115000
     17 HO4         1.0930   -0.6800    4.5730 ho        1 HGM      0.202000
     18 H5         -1.7970    0.9990    1.0380 ha        1 HGM      0.126000
     19 H6         -1.0090    1.0310    3.2810 ha        1 HGM      0.126000
     20 HA         -1.3340    0.6640   -1.3140 h4        1 HGM      0.092000
     21 HH3         0.9210    1.4320   -3.5510 h1        1 HGM      0.058333
     22 HH3A       -0.3000    1.8430   -2.6440 h1        1 HGM      0.058333
     23 HH3B       -0.5650    0.7610   -3.7400 h1        1 HGM      0.058333
@<TRIPOS>BOND
     1    1    3 1   
     2    1   13 1   
     3    2   11 1   
     4    2   12 1   
     5    2   14 1   
     6    4    5 1   
     7    4   11 1   
     8    5   15 1   
     9    6    7 1   
    10    6   16 1   
    11    7   10 1   
    12    8   17 1   
    13    9   10 1   
    14    9   18 1   
    15   10   19 1   
    16   11   20 1   
    17   12   21 1   
    18   12   22 1   
    19   12   23 1   
@<TRIPOS>SUBSTRUCTURE
     1 HGM         1 TEMP              0 ****  ****    0 ROOT
