@<TRIPOS>MOLECULE
HGM
   23    23     1     0     0
SMALL
bcc


@<TRIPOS>ATOM
      1 C          -2.2520   -1.0720    0.1500 c         1 HGM      0.894600
      2 N          -2.0240    1.1900    1.2860 n3        1 HGM     -0.798200
      3 O          -2.7000   -0.6380   -0.9500 o         1 HGM     -0.833800
      4 C1          0.0040    0.0090    0.4810 ca        1 HGM     -0.049300
      5 C2          1.1040    0.0070    1.3440 ca        1 HGM     -0.091000
      6 C3          2.4030    0.0930    0.8460 ca        1 HGM     -0.198500
      7 C4          2.5980    0.1840   -0.5370 ca        1 HGM      0.087100
      8 O4          3.8590    0.2810   -1.1010 oh        1 HGM     -0.519100
      9 C5          0.2200    0.0980   -0.9030 ca        1 HGM     -0.091000
     10 C6          1.5080    0.1850   -1.4200 ca        1 HGM     -0.198500
     11 CA         -1.3880   -0.1070    1.0380 c3        1 HGM      0.063800
     12 CH3        -2.0020    2.0980    0.1650 c3        1 HGM      0.134100
     13 OXT        -2.4750   -2.2210    0.6140 o         1 HGM     -0.833800
     14 HN         -2.9860    0.9930    1.5150 hn        1 HGM      0.344800
     15 H2          0.9430   -0.0640    2.4300 ha        1 HGM      0.156500
     16 H3          3.2630    0.0870    1.5280 ha        1 HGM      0.121000
     17 HO4         4.5000    0.2230   -0.3800 ho        1 HGM      0.401000
     18 H5         -0.6620    0.0750   -1.5730 ha        1 HGM      0.156500
     19 H6          1.6830    0.2490   -2.5010 ha        1 HGM      0.121000
     20 HA         -1.3150   -0.5950    2.0570 h1        1 HGM      0.053700
     21 HH3        -2.5860    3.0170    0.4390 h1        1 HGM      0.026367
     22 HH3A       -0.9410    2.3970   -0.0400 h1        1 HGM      0.026367
     23 HH3B       -2.4320    1.6580   -0.7770 h1        1 HGM      0.026367
@<TRIPOS>BOND
     1    1    3 1   
     2    1   11 1   
     3    1   13 1   
     4    2   11 1   
     5    2   12 1   
     6    2   14 1   
     7    4    5 ar  
     8    4    9 ar  
     9    4   11 1   
    10    5    6 ar  
    11    5   15 1   
    12    6    7 ar  
    13    6   16 1   
    14    7    8 1   
    15    7   10 ar  
    16    8   17 1   
    17    9   10 ar  
    18    9   18 1   
    19   10   19 1   
    20   11   20 1   
    21   12   21 1   
    22   12   22 1   
    23   12   23 1   
@<TRIPOS>SUBSTRUCTURE
     1 HGM         1 TEMP              0 ****  ****    0 ROOT
