@<TRIPOS>MOLECULE
HGP
  124   122     1     0     0
SMALL
bcc


@<TRIPOS>ATOM
      1 O11        -1.0600   -1.1240    2.2010 o         1 HGP     -0.374000
      2 C11         0.0310   -0.6120    2.3400 c1        1 HGP      0.329000
      3 C12         0.5770   -0.3350    3.7570 c2        1 HGP     -0.176000
      4 C13        -0.5640    0.2120    4.6520 c3        1 HGP     -0.151000
      5 C14        -0.0440    0.3910    6.1060 c3        1 HGP     -0.157000
      6 C15        -1.1460    1.0430    6.9700 c3        1 HGP     -0.157000
      7 C16        -0.7470    0.9650    8.4610 c3        1 HGP     -0.157000
      8 C17        -1.9270    1.4280    9.3330 c3        1 HGP     -0.158000
      9 C18        -1.7240    0.9430   10.7590 c3        1 HGP     -0.157000
     10 C19        -3.0600    1.0400   11.5320 c3        1 HGP     -0.158000
     11 C20        -2.9430    0.2510   12.8800 c3        1 HGP     -0.157000
     12 C21        -4.3490   -0.2430   13.3150 c3        1 HGP     -0.158000
     13 C22        -4.2140   -1.1590   14.5310 c3        1 HGP     -0.157000
     14 C23        -5.3600   -2.1920   14.5270 c3        1 HGP     -0.158000
     15 C24        -5.3790   -2.9360   15.8590 c3        1 HGP     -0.158000
     16 C25        -6.0500   -4.2930   15.6720 c3        1 HGP     -0.159000
     17 C26        -6.3490   -4.9090   17.0410 c3        1 HGP     -0.210000
     18 O3          0.8700   -0.3580    1.1740 os        1 HGP     -0.278000
     19 C3          0.5480   -1.1740    0.0380 c3        1 HGP     -0.041000
     20 C2          1.5820   -0.9410   -1.0690 c3        1 HGP     -0.004000
     21 C1          1.9600    0.5330   -1.1110 c3        1 HGP      0.023000
     22 O3P         2.8750    0.7690   -2.2180 os        1 HGP     -0.749000
     23 P           3.9190    2.0120   -2.1110 p5        1 HGP      1.919000
     24 O2          1.0400   -1.3180   -2.2980 os        1 HGP     -0.276000
     25 C31         1.1110   -2.7180   -2.5520 c2        1 HGP      0.304000
     26 O31         0.9960   -3.5100   -1.6320 o         1 HGP     -0.355000
     27 C32         1.4820   -3.2240   -3.9540 c3        1 HGP     -0.157000
     28 C33         0.2020   -3.6250   -4.7080 c3        1 HGP     -0.158000
     29 C34         0.5650   -4.0710   -6.1680 c3        1 HGP     -0.157000
     30 C35        -0.6450   -3.8580   -7.0810 c3        1 HGP     -0.158000
     31 C36        -0.1740   -3.7840   -8.5630 c3        1 HGP     -0.157000
     32 C37        -1.2940   -3.1320   -9.4330 c3        1 HGP     -0.158000
     33 C38        -0.6470   -2.4650  -10.7190 c3        1 HGP     -0.157000
     34 C39        -1.6630   -1.4450  -11.3440 c3        1 HGP     -0.158000
     35 C40        -0.9350   -0.5520  -12.3750 c3        1 HGP     -0.157000
     36 C42        -1.7250    0.7880  -12.5510 c3        1 HGP     -0.158000
     37 C43        -0.9690    1.7040  -13.5000 c3        1 HGP     -0.158000
     38 C44        -1.5710    3.1250  -13.4330 c3        1 HGP     -0.159000
     39 O1          4.8950    1.7540   -0.9900 o         1 HGP     -0.824500
     40 O4          3.1580    3.2830   -1.8330 o         1 HGP     -0.824500
     41 O5          4.7280    2.1610   -3.5080 os        1 HGP     -0.730000
     42 C4          5.6210    3.2940   -3.6750 c3        1 HGP      0.047000
     43 C5          5.6930    3.6740   -5.1680 c3        1 HGP     -0.144000
     44 N1          6.8740    4.5340   -5.4050 n4        1 HGP      0.052000
     45 C6          6.8860    4.9700   -6.7890 c3        1 HGP     -0.198000
     46 C7          6.8120    5.6760   -4.5470 c3        1 HGP     -0.198000
     47 C8          8.0860    3.7820   -5.1240 c3        1 HGP     -0.198000
     48 C9         -0.8920    4.0160  -14.4680 c3        1 HGP     -0.210000
     49 H121        1.2930    0.3220    3.7070 ha        1 HGP      0.150000
     50 H122        0.9220   -1.1650    4.1410 ha        1 HGP      0.150000
     51 H131       -0.8660    1.0760    4.3050 hc        1 HGP      0.088500
     52 H132       -1.3160   -0.4230    4.6490 hc        1 HGP      0.088500
     53 H141        0.1890   -0.4850    6.4800 hc        1 HGP      0.082000
     54 H142        0.7480    0.9640    6.1010 hc        1 HGP      0.082000
     55 H151       -1.2520    1.9810    6.7100 hc        1 HGP      0.079000
     56 H152       -1.9930    0.5690    6.8330 hc        1 HGP      0.079000
     57 H161        0.0300    1.5480    8.6230 hc        1 HGP      0.078000
     58 H162       -0.5150    0.0410    8.6890 hc        1 HGP      0.078000
     59 H171       -2.7550    1.0590    8.9800 hc        1 HGP      0.079000
     60 H172       -1.9750    2.4050    9.3240 hc        1 HGP      0.079000
     61 H181       -1.4230    0.0190   10.7470 hc        1 HGP      0.078000
     62 H182       -1.0500    1.4990   11.2000 hc        1 HGP      0.078000
     63 H191       -3.2610    1.9830   11.7210 hc        1 HGP      0.078500
     64 H192       -3.7810    0.6540   10.9880 hc        1 HGP      0.078500
     65 H201       -2.5740    0.8430   13.5750 hc        1 HGP      0.078500
     66 H202       -2.3460   -0.5220   12.7570 hc        1 HGP      0.078500
     67 H211       -4.9040    0.5210   13.5450 hc        1 HGP      0.079000
     68 H212       -4.7600   -0.7340   12.5840 hc        1 HGP      0.079000
     69 H221       -4.2610   -0.6230   15.3500 hc        1 HGP      0.078500
     70 H222       -3.3560   -1.6230   14.4940 hc        1 HGP      0.078500
     71 H231       -5.2210   -2.8290   13.8000 hc        1 HGP      0.078500
     72 H232       -6.2180   -1.7290   14.3970 hc        1 HGP      0.078500
     73 H241       -5.8790   -2.4130   16.5180 hc        1 HGP      0.078500
     74 H242       -4.4700   -3.0650   16.1700 hc        1 HGP      0.078500
     75 H251       -6.8900   -4.1780   15.1740 hc        1 HGP      0.077500
     76 H252       -5.4570   -4.8830   15.1750 hc        1 HGP      0.077500
     77 H261       -6.6160   -5.8460   16.9270 hc        1 HGP      0.071333
     78 H262       -5.5480   -4.8630   17.6010 hc        1 HGP      0.071333
     79 H263       -7.0820   -4.4080   17.4740 hc        1 HGP      0.071333
     80 H31         0.5590   -2.1170    0.3010 h1        1 HGP      0.113500
     81 H32        -0.3410   -0.9370   -0.2920 h1        1 HGP      0.113500
     82 H2          2.3830   -1.4790   -0.8860 h1        1 HGP      0.134000
     83 H11         2.3910    0.7810   -0.2750 h1        1 HGP      0.103000
     84 H12         1.1550    1.0720   -1.2330 h1        1 HGP      0.103000
     85 H321        2.0670   -3.9970   -3.8750 hc        1 HGP      0.115000
     86 H322        1.9400   -2.5190   -4.4430 hc        1 HGP      0.115000
     87 H331       -0.2370   -4.3730   -4.2360 hc        1 HGP      0.097000
     88 H332       -0.4130   -2.8530   -4.7450 hc        1 HGP      0.097000
     89 H341        0.8110   -5.0220   -6.1680 hc        1 HGP      0.079000
     90 H342        1.3180   -3.5400   -6.4950 hc        1 HGP      0.079000
     91 H351       -1.2720   -4.6060   -6.9730 hc        1 HGP      0.082500
     92 H352       -1.0860   -3.0340   -6.8420 hc        1 HGP      0.082500
     93 H361        0.6340   -3.2470   -8.6190 hc        1 HGP      0.078000
     94 H362        0.0120   -4.6970   -8.8950 hc        1 HGP      0.078000
     95 H371       -1.9380   -3.8250   -9.7120 hc        1 HGP      0.080000
     96 H372       -1.7580   -2.4460   -8.9070 hc        1 HGP      0.080000
     97 H381        0.1700   -1.9960  -10.4670 hc        1 HGP      0.078000
     98 H382       -0.4340   -3.1640  -11.3800 hc        1 HGP      0.078000
     99 H391       -2.3840   -1.9350  -11.7890 hc        1 HGP      0.079000
    100 H392       -2.0350   -0.8880  -10.6400 hc        1 HGP      0.079000
    101 H401       -0.8880   -1.0240  -13.2460 hc        1 HGP      0.078000
    102 H402       -0.0320   -0.3600  -12.0610 hc        1 HGP      0.078000
    103 H421       -2.6140    0.5980  -12.9190 hc        1 HGP      0.079000
    104 H422       -1.8190    1.2240  -11.6890 hc        1 HGP      0.079000
    105 H431       -1.0440    1.3600  -14.4150 hc        1 HGP      0.078500
    106 H432       -0.0310    1.7360  -13.2420 hc        1 HGP      0.078500
    107 H441       -1.4280    3.4990  -12.5350 hc        1 HGP      0.078000
    108 H442       -2.5360    3.0820  -13.6210 hc        1 HGP      0.078000
    109 H41         6.5100    3.0560   -3.3570 h1        1 HGP      0.096500
    110 H42         5.2830    4.0530   -3.1620 h1        1 HGP      0.096500
    111 H51         4.8790    4.1610   -5.4200 hx        1 HGP      0.119500
    112 H52         5.7670    2.8610   -5.7090 hx        1 HGP      0.119500
    113 H61         7.7340    5.4420   -6.9800 hx        1 HGP      0.139222
    114 H62         6.1300    5.5770   -6.9470 hx        1 HGP      0.139222
    115 H63         6.8060    4.1910   -7.3770 hx        1 HGP      0.139222
    116 H71         6.9870    5.4020   -3.6270 hx        1 HGP      0.139222
    117 H72         5.9250    6.0760   -4.6040 hx        1 HGP      0.139222
    118 H73         7.4940    6.3400   -4.8300 hx        1 HGP      0.139222
    119 H81         7.9680    2.8560   -5.4070 hx        1 HGP      0.139222
    120 H82         8.8480    4.1850   -5.6190 hx        1 HGP      0.139222
    121 H83         8.2720    3.8080   -4.1600 hx        1 HGP      0.139222
    122 H91         0.0610    3.8120  -14.4980 hc        1 HGP      0.071667
    123 H92        -1.2880    3.8540  -15.3480 hc        1 HGP      0.071667
    124 H93        -1.0180    4.9670  -14.2200 hc        1 HGP      0.071667
@<TRIPOS>BOND
     1    1    2 1   
     2    2   18 1   
     3    3    4 1   
     4    3   49 1   
     5    3   50 1   
     6    4    5 1   
     7    4   51 1   
     8    4   52 1   
     9    5    6 1   
    10    5   53 1   
    11    5   54 1   
    12    6    7 1   
    13    6   55 1   
    14    6   56 1   
    15    7    8 1   
    16    7   57 1   
    17    7   58 1   
    18    8    9 1   
    19    8   59 1   
    20    8   60 1   
    21    9   10 1   
    22    9   61 1   
    23    9   62 1   
    24   10   11 1   
    25   10   63 1   
    26   10   64 1   
    27   11   12 1   
    28   11   65 1   
    29   11   66 1   
    30   12   13 1   
    31   12   67 1   
    32   12   68 1   
    33   13   14 1   
    34   13   69 1   
    35   13   70 1   
    36   14   15 1   
    37   14   71 1   
    38   14   72 1   
    39   15   16 1   
    40   15   73 1   
    41   15   74 1   
    42   16   17 1   
    43   16   75 1   
    44   16   76 1   
    45   17   77 1   
    46   17   78 1   
    47   17   79 1   
    48   18   19 1   
    49   19   20 1   
    50   19   80 1   
    51   19   81 1   
    52   20   21 1   
    53   20   24 1   
    54   20   82 1   
    55   21   22 1   
    56   21   83 1   
    57   21   84 1   
    58   22   23 1   
    59   23   39 1   
    60   23   40 1   
    61   23   41 1   
    62   24   25 1   
    63   25   26 1   
    64   25   27 1   
    65   27   28 1   
    66   27   85 1   
    67   27   86 1   
    68   28   29 1   
    69   28   87 1   
    70   28   88 1   
    71   29   30 1   
    72   29   89 1   
    73   29   90 1   
    74   30   31 1   
    75   30   91 1   
    76   30   92 1   
    77   31   32 1   
    78   31   93 1   
    79   31   94 1   
    80   32   33 1   
    81   32   95 1   
    82   32   96 1   
    83   33   34 1   
    84   33   97 1   
    85   33   98 1   
    86   34   35 1   
    87   34   99 1   
    88   34  100 1   
    89   35   36 1   
    90   35  101 1   
    91   35  102 1   
    92   36   37 1   
    93   36  103 1   
    94   36  104 1   
    95   37   38 1   
    96   37  105 1   
    97   37  106 1   
    98   38   48 1   
    99   38  107 1   
   100   38  108 1   
   101   41   42 1   
   102   42   43 1   
   103   42  109 1   
   104   42  110 1   
   105   43   44 1   
   106   43  111 1   
   107   43  112 1   
   108   44   45 1   
   109   44   46 1   
   110   44   47 1   
   111   45  113 1   
   112   45  114 1   
   113   45  115 1   
   114   46  116 1   
   115   46  117 1   
   116   46  118 1   
   117   47  119 1   
   118   47  120 1   
   119   47  121 1   
   120   48  122 1   
   121   48  123 1   
   122   48  124 1   
@<TRIPOS>SUBSTRUCTURE
     1 HGP         1 TEMP              0 ****  ****    0 ROOT
