@<TRIPOS>MOLECULE
HGP
  124   123     1     0     0
SMALL
bcc


@<TRIPOS>ATOM
      1 O11         2.0400    1.0920    1.3130 o         1 HGP     -0.587000
      2 C11         2.8760    1.6480    2.0360 c         1 HGP      0.645100
      3 C12         2.6960    2.2080    3.4130 c3        1 HGP     -0.129400
      4 C13         1.8050    1.3170    4.2520 c3        1 HGP     -0.077400
      5 C14         1.5220    1.9530    5.5960 c3        1 HGP     -0.079400
      6 C15         0.6470    1.0590    6.4490 c3        1 HGP     -0.078400
      7 C16         0.3580    1.6950    7.7910 c3        1 HGP     -0.079400
      8 C17        -0.5160    0.8020    8.6450 c3        1 HGP     -0.078400
      9 C18        -0.8060    1.4380    9.9880 c3        1 HGP     -0.079400
     10 C19        -1.6800    0.5440   10.8410 c3        1 HGP     -0.078400
     11 C20        -1.9700    1.1810   12.1840 c3        1 HGP     -0.079400
     12 C21        -2.8440    0.2880   13.0380 c3        1 HGP     -0.078400
     13 C22        -3.1350    0.9240   14.3800 c3        1 HGP     -0.079400
     14 C23        -4.0090    0.0310   15.2340 c3        1 HGP     -0.079400
     15 C24        -4.2990    0.6670   16.5760 c3        1 HGP     -0.079400
     16 C25        -5.1740   -0.2250   17.4320 c3        1 HGP     -0.080400
     17 C26        -5.4650    0.4050   18.7690 c3        1 HGP     -0.092100
     18 O3          4.1390    1.8220    1.5550 os        1 HGP     -0.432900
     19 C3          4.3920    1.3020    0.2370 c3        1 HGP      0.138400
     20 C2          5.7990    1.7340   -0.1640 c3        1 HGP      0.112100
     21 C1          5.9410    1.7890   -1.7010 c3        1 HGP      0.165400
     22 O3P         4.9330    1.0620   -2.3330 os        1 HGP     -0.591200
     23 P           5.3290   -0.3530   -3.0690 p5        1 HGP      1.449800
     24 O2          6.6860    0.7190    0.3380 os        1 HGP     -0.440900
     25 C31         7.9590    1.0860    0.6810 c         1 HGP      0.642100
     26 O31         8.2370    2.2840    0.7530 o         1 HGP     -0.550000
     27 C32         8.8510   -0.0940    0.9300 c3        1 HGP     -0.125400
     28 C33         9.1680   -0.8130   -0.3670 c3        1 HGP     -0.080400
     29 C34        10.0440    0.0180   -1.2810 c3        1 HGP     -0.077400
     30 C35        10.0330   -0.5350   -2.6910 c3        1 HGP     -0.100400
     31 C36        10.9910    0.2260   -3.5820 c3        1 HGP     -0.069400
     32 C37        10.9420   -0.2950   -5.0020 c3        1 HGP     -0.081400
     33 C38        11.8890    0.4700   -5.9020 c3        1 HGP     -0.077400
     34 C39        11.8400   -0.0530   -7.3210 c3        1 HGP     -0.079400
     35 C40        12.7850    0.7120   -8.2230 c3        1 HGP     -0.078400
     36 C42        12.7370    0.1890   -9.6420 c3        1 HGP     -0.079400
     37 C43        13.6810    0.9540  -10.5440 c3        1 HGP     -0.079400
     38 C44        13.6340    0.4320  -11.9640 c3        1 HGP     -0.080400
     39 O1          4.6480   -1.3970   -2.2630 o         1 HGP     -0.823000
     40 O4          6.7150   -0.3250   -3.5370 o         1 HGP     -0.823000
     41 O5          4.2310   -0.1360   -4.3020 os        1 HGP     -0.558200
     42 C4          3.3170   -1.1420   -4.5450 c3        1 HGP      0.196400
     43 C5          1.8800   -0.7000   -4.1960 c3        1 HGP      0.087800
     44 N1          1.3940   -0.9010   -2.7820 n4        1 HGP     -0.580800
     45 C6          1.9910    0.1100   -1.8600 c3        1 HGP      0.074767
     46 C7         -0.0890   -0.7180   -2.7820 c3        1 HGP      0.074767
     47 C8          1.7080   -2.2720   -2.2860 c3        1 HGP      0.074767
     48 C9         14.5730    1.1910  -12.8650 c3        1 HGP     -0.092100
     49 H121        3.6980    2.3350    3.9010 hc        1 HGP      0.080700
     50 H122        2.2360    3.2270    3.3030 hc        1 HGP      0.080700
     51 H131        2.3020    0.3220    4.4010 hc        1 HGP      0.054700
     52 H132        0.8430    1.1280    3.7060 hc        1 HGP      0.054700
     53 H141        2.4880    2.1540    6.1290 hc        1 HGP      0.042200
     54 H142        1.0150    2.9430    5.4460 hc        1 HGP      0.042200
     55 H151       -0.3170    0.8550    5.9130 hc        1 HGP      0.041700
     56 H152        1.1560    0.0710    6.6020 hc        1 HGP      0.041700
     57 H161       -0.1510    2.6830    7.6380 hc        1 HGP      0.040700
     58 H162        1.3230    1.9000    8.3260 hc        1 HGP      0.040700
     59 H171       -0.0070   -0.1860    8.7990 hc        1 HGP      0.039700
     60 H172       -1.4800    0.5960    8.1100 hc        1 HGP      0.039700
     61 H181       -1.3150    2.4260    9.8340 hc        1 HGP      0.040200
     62 H182        0.1590    1.6430   10.5230 hc        1 HGP      0.040200
     63 H191       -2.6440    0.3390   10.3060 hc        1 HGP      0.039200
     64 H192       -1.1710   -0.4430   10.9960 hc        1 HGP      0.039200
     65 H201       -1.0060    1.3860   12.7190 hc        1 HGP      0.039700
     66 H202       -2.4790    2.1690   12.0300 hc        1 HGP      0.039700
     67 H211       -2.3350   -0.7000   13.1920 hc        1 HGP      0.039200
     68 H212       -3.8090    0.0820   12.5020 hc        1 HGP      0.039200
     69 H221       -3.6430    1.9120   14.2260 hc        1 HGP      0.039700
     70 H222       -2.1700    1.1290   14.9150 hc        1 HGP      0.039700
     71 H231       -3.5000   -0.9570   15.3880 hc        1 HGP      0.039200
     72 H232       -4.9730   -0.1740   14.6990 hc        1 HGP      0.039200
     73 H241       -3.3350    0.8720   17.1120 hc        1 HGP      0.039700
     74 H242       -4.8080    1.6550   16.4220 hc        1 HGP      0.039700
     75 H251       -6.1370   -0.4300   16.8940 hc        1 HGP      0.038200
     76 H252       -4.6640   -1.2130   17.5830 hc        1 HGP      0.038200
     77 H261       -4.5190    0.5940   19.3310 hc        1 HGP      0.032700
     78 H262       -6.1110   -0.2690   19.3830 hc        1 HGP      0.032700
     79 H263       -5.9960    1.3790   18.6390 hc        1 HGP      0.032700
     80 H31         3.6390    1.7330   -0.4750 h1        1 HGP      0.075200
     81 H32         4.2990    0.1850    0.2650 h1        1 HGP      0.075200
     82 H2          6.0610    2.7300    0.2870 h1        1 HGP      0.093700
     83 H11         6.9540    1.3990   -2.0040 h1        1 HGP      0.061200
     84 H12         5.8370    2.8640   -2.0200 h1        1 HGP      0.061200
     85 H321        9.7910    0.2770    1.4160 hc        1 HGP      0.072200
     86 H322        8.3310   -0.7950    1.6340 hc        1 HGP      0.072200
     87 H331        8.2080   -1.0660   -0.8940 hc        1 HGP      0.060700
     88 H332        9.6840   -1.7790   -0.1250 hc        1 HGP      0.060700
     89 H341        9.6720    1.0780   -1.2960 hc        1 HGP      0.036700
     90 H342       11.0920    0.0410   -0.8820 hc        1 HGP      0.036700
     91 H351        8.9890   -0.4720   -3.1120 hc        1 HGP      0.069200
     92 H352       10.3210   -1.6190   -2.6710 hc        1 HGP      0.069200
     93 H361       10.7240    1.3160   -3.5730 hc        1 HGP      0.030700
     94 H362       12.0360    0.1390   -3.1830 hc        1 HGP      0.030700
     95 H371       11.2100   -1.3840   -5.0120 hc        1 HGP      0.046200
     96 H372        9.8930   -0.2090   -5.3930 hc        1 HGP      0.046200
     97 H381       11.6180    1.5590   -5.8930 hc        1 HGP      0.035700
     98 H382       12.9350    0.3870   -5.5060 hc        1 HGP      0.035700
     99 H391       12.1110   -1.1420   -7.3300 hc        1 HGP      0.039200
    100 H392       10.7930    0.0300   -7.7160 hc        1 HGP      0.039200
    101 H401       12.5140    1.8010   -8.2140 hc        1 HGP      0.037700
    102 H402       13.8320    0.6300   -7.8270 hc        1 HGP      0.037700
    103 H421       13.0080   -0.9000   -9.6510 hc        1 HGP      0.038700
    104 H422       11.6900    0.2720  -10.0370 hc        1 HGP      0.038700
    105 H431       13.4100    2.0430  -10.5350 hc        1 HGP      0.038700
    106 H432       14.7280    0.8720  -10.1490 hc        1 HGP      0.038700
    107 H441       13.9040   -0.6580  -11.9700 hc        1 HGP      0.037700
    108 H442       12.5860    0.5130  -12.3570 hc        1 HGP      0.037700
    109 H41         3.5970   -2.0960   -4.0200 h1        1 HGP      0.059200
    110 H42         3.2960   -1.3190   -5.6630 h1        1 HGP      0.059200
    111 H51         1.7930    0.4010   -4.4210 hx        1 HGP      0.081700
    112 H52         1.1780   -1.2800   -4.8590 hx        1 HGP      0.081700
    113 H61         1.7830    1.1390   -2.2500 hx        1 HGP      0.102033
    114 H62         3.1120   -0.0590   -1.8170 hx        1 HGP      0.102033
    115 H63         1.5630   -0.0090   -0.8290 hx        1 HGP      0.102033
    116 H71        -0.4690   -0.7730   -1.7280 hx        1 HGP      0.102033
    117 H72        -0.5680   -1.5240   -3.3950 hx        1 HGP      0.102033
    118 H73        -0.3380    0.2860   -3.2150 hx        1 HGP      0.102033
    119 H81         1.1330   -2.4570   -1.3430 hx        1 HGP      0.102033
    120 H82         1.4180   -3.0200   -3.0670 hx        1 HGP      0.102033
    121 H83         2.8170   -2.3540   -2.0610 hx        1 HGP      0.102033
    122 H91        14.3050    2.2750  -12.8910 hc        1 HGP      0.031367
    123 H92        14.5220    0.7900  -13.9060 hc        1 HGP      0.031367
    124 H93        15.6260    1.1000  -12.5030 hc        1 HGP      0.031367
@<TRIPOS>BOND
     1    1    2 2   
     2    2    3 1   
     3    2   18 1   
     4    3    4 1   
     5    3   49 1   
     6    3   50 1   
     7    4    5 1   
     8    4   51 1   
     9    4   52 1   
    10    5    6 1   
    11    5   53 1   
    12    5   54 1   
    13    6    7 1   
    14    6   55 1   
    15    6   56 1   
    16    7    8 1   
    17    7   57 1   
    18    7   58 1   
    19    8    9 1   
    20    8   59 1   
    21    8   60 1   
    22    9   10 1   
    23    9   61 1   
    24    9   62 1   
    25   10   11 1   
    26   10   63 1   
    27   10   64 1   
    28   11   12 1   
    29   11   65 1   
    30   11   66 1   
    31   12   13 1   
    32   12   67 1   
    33   12   68 1   
    34   13   14 1   
    35   13   69 1   
    36   13   70 1   
    37   14   15 1   
    38   14   71 1   
    39   14   72 1   
    40   15   16 1   
    41   15   73 1   
    42   15   74 1   
    43   16   17 1   
    44   16   75 1   
    45   16   76 1   
    46   17   77 1   
    47   17   78 1   
    48   17   79 1   
    49   18   19 1   
    50   19   20 1   
    51   19   80 1   
    52   19   81 1   
    53   20   21 1   
    54   20   24 1   
    55   20   82 1   
    56   21   22 1   
    57   21   83 1   
    58   21   84 1   
    59   22   23 1   
    60   23   39 1   
    61   23   40 1   
    62   23   41 1   
    63   24   25 1   
    64   25   26 2   
    65   25   27 1   
    66   27   28 1   
    67   27   85 1   
    68   27   86 1   
    69   28   29 1   
    70   28   87 1   
    71   28   88 1   
    72   29   30 1   
    73   29   89 1   
    74   29   90 1   
    75   30   31 1   
    76   30   91 1   
    77   30   92 1   
    78   31   32 1   
    79   31   93 1   
    80   31   94 1   
    81   32   33 1   
    82   32   95 1   
    83   32   96 1   
    84   33   34 1   
    85   33   97 1   
    86   33   98 1   
    87   34   35 1   
    88   34   99 1   
    89   34  100 1   
    90   35   36 1   
    91   35  101 1   
    92   35  102 1   
    93   36   37 1   
    94   36  103 1   
    95   36  104 1   
    96   37   38 1   
    97   37  105 1   
    98   37  106 1   
    99   38   48 1   
   100   38  107 1   
   101   38  108 1   
   102   41   42 1   
   103   42   43 1   
   104   42  109 1   
   105   42  110 1   
   106   43   44 1   
   107   43  111 1   
   108   43  112 1   
   109   44   45 1   
   110   44   46 1   
   111   44   47 1   
   112   45  113 1   
   113   45  114 1   
   114   45  115 1   
   115   46  116 1   
   116   46  117 1   
   117   46  118 1   
   118   47  119 1   
   119   47  120 1   
   120   47  121 1   
   121   48  122 1   
   122   48  123 1   
   123   48  124 1   
@<TRIPOS>SUBSTRUCTURE
     1 HGP         1 TEMP              0 ****  ****    0 ROOT
