@<TRIPOS>MOLECULE
HGP
  124   123     1     0     0
SMALL
bcc


@<TRIPOS>ATOM
      1 O11         0.3740   -0.4860   -0.9650 o         1 HGP     -0.609000
      2 C11         0.8390   -1.5730   -0.5990 c         1 HGP      0.668100
      3 C12         1.4110   -1.9390    0.7350 c3        1 HGP     -0.135400
      4 C13         0.8640   -1.0610    1.8390 c3        1 HGP     -0.074400
      5 C14         1.5390   -1.3730    3.1570 c3        1 HGP     -0.080400
      6 C15         0.9860   -0.5100    4.2710 c3        1 HGP     -0.078400
      7 C16         1.6590   -0.8200    5.5900 c3        1 HGP     -0.079400
      8 C17         1.1040    0.0410    6.7050 c3        1 HGP     -0.078400
      9 C18         1.7750   -0.2700    8.0250 c3        1 HGP     -0.079400
     10 C19         1.2190    0.5900    9.1400 c3        1 HGP     -0.078400
     11 C20         1.8890    0.2780   10.4610 c3        1 HGP     -0.079400
     12 C21         1.3320    1.1360   11.5760 c3        1 HGP     -0.078400
     13 C22         2.0020    0.8240   12.8970 c3        1 HGP     -0.079400
     14 C23         1.4430    1.6810   14.0130 c3        1 HGP     -0.079400
     15 C24         2.1120    1.3690   15.3340 c3        1 HGP     -0.079400
     16 C25         1.5550    2.2260   16.4510 c3        1 HGP     -0.080400
     17 C26         2.2180    1.9170   17.7680 c3        1 HGP     -0.093100
     18 O3          0.8770   -2.6130   -1.4770 os        1 HGP     -0.432900
     19 C3          0.5430   -2.3830   -2.8520 c3        1 HGP      0.106400
     20 C2          1.7780   -1.9440   -3.6360 c3        1 HGP      0.094100
     21 C1          1.4820   -1.8720   -5.1500 c3        1 HGP      0.195400
     22 O3P         1.2950   -0.5470   -5.5390 os        1 HGP     -0.572200
     23 P          -0.2300   -0.1630   -6.0470 p5        1 HGP      1.437800
     24 O2          2.8120   -2.9380   -3.5030 os        1 HGP     -0.430900
     25 C31         3.7520   -2.7790   -2.5290 c         1 HGP      0.651100
     26 O31         3.6680   -1.8190   -1.7560 o         1 HGP     -0.574000
     27 C32         4.7870   -3.8650   -2.5500 c3        1 HGP     -0.127400
     28 C33         6.0540   -3.4070   -3.2440 c3        1 HGP     -0.074400
     29 C34         6.8320   -2.4110   -2.4110 c3        1 HGP     -0.088400
     30 C35         8.0300   -1.8820   -3.1690 c3        1 HGP     -0.078400
     31 C36         8.8230   -0.9050   -2.3280 c3        1 HGP     -0.078400
     32 C37        10.0160   -0.3690   -3.0890 c3        1 HGP     -0.079400
     33 C38        10.8110    0.6070   -2.2470 c3        1 HGP     -0.078400
     34 C39        12.0030    1.1450   -3.0090 c3        1 HGP     -0.079400
     35 C40        12.7990    2.1200   -2.1680 c3        1 HGP     -0.078400
     36 C42        13.9900    2.6590   -2.9310 c3        1 HGP     -0.079400
     37 C43        14.7860    3.6340   -2.0900 c3        1 HGP     -0.079400
     38 C44        15.9770    4.1750   -2.8530 c3        1 HGP     -0.080400
     39 O1         -1.0560   -0.4660   -4.8520 o         1 HGP     -0.819000
     40 O4         -0.4630   -0.5570   -7.4340 o         1 HGP     -0.819000
     41 O5         -0.0480    1.4910   -5.9140 os        1 HGP     -0.561200
     42 C4         -1.1310    2.1920   -5.4190 c3        1 HGP      0.187400
     43 C5         -0.7200    3.0780   -4.2290 c3        1 HGP      0.093800
     44 N1         -0.3590    2.3810   -2.9460 n4        1 HGP     -0.577800
     45 C6          0.8830    1.5710   -3.1190 c3        1 HGP      0.079433
     46 C7         -0.1010    3.4260   -1.9110 c3        1 HGP      0.079433
     47 C8         -1.4710    1.5060   -2.4720 c3        1 HGP      0.079433
     48 C9         16.7730    5.1460   -2.0200 c3        1 HGP     -0.092100
     49 H121        2.5270   -1.8210    0.6440 hc        1 HGP      0.089200
     50 H122        1.1990   -3.0200    0.9480 hc        1 HGP      0.089200
     51 H131       -0.2420   -1.2180    1.9310 hc        1 HGP      0.049200
     52 H132        1.0240    0.0170    1.5720 hc        1 HGP      0.049200
     53 H141        1.3890   -2.4560    3.4100 hc        1 HGP      0.043700
     54 H142        2.6440   -1.2050    3.0640 hc        1 HGP      0.043700
     55 H151       -0.1200   -0.6780    4.3640 hc        1 HGP      0.039700
     56 H152        1.1350    0.5730    4.0170 hc        1 HGP      0.039700
     57 H161        2.7640   -0.6490    5.4980 hc        1 HGP      0.041200
     58 H162        1.5110   -1.9030    5.8430 hc        1 HGP      0.041200
     59 H171       -0.0020   -0.1280    6.7960 hc        1 HGP      0.039200
     60 H172        1.2520    1.1250    6.4530 hc        1 HGP      0.039200
     61 H181        1.6280   -1.3530    8.2770 hc        1 HGP      0.040200
     62 H182        2.8810   -0.0990    7.9350 hc        1 HGP      0.040200
     63 H191        1.3670    1.6730    8.8900 hc        1 HGP      0.039200
     64 H192        0.1140    0.4200    9.2300 hc        1 HGP      0.039200
     65 H201        2.9950    0.4490   10.3720 hc        1 HGP      0.039700
     66 H202        1.7420   -0.8060   10.7110 hc        1 HGP      0.039700
     67 H211        0.2270    0.9660   11.6650 hc        1 HGP      0.039200
     68 H212        1.4800    2.2200   11.3270 hc        1 HGP      0.039200
     69 H221        1.8540   -0.2600   13.1470 hc        1 HGP      0.039700
     70 H222        3.1070    0.9950   12.8090 hc        1 HGP      0.039700
     71 H231        0.3380    1.5100   14.1010 hc        1 HGP      0.039200
     72 H232        1.5910    2.7650   13.7640 hc        1 HGP      0.039200
     73 H241        3.2180    1.5400   15.2460 hc        1 HGP      0.039700
     74 H242        1.9650    0.2850   15.5830 hc        1 HGP      0.039700
     75 H251        0.4490    2.0540   16.5360 hc        1 HGP      0.038200
     76 H252        1.7020    3.3090   16.1990 hc        1 HGP      0.038200
     77 H261        2.0610    0.8480   18.0480 hc        1 HGP      0.032700
     78 H262        3.3170    2.1060   17.7100 hc        1 HGP      0.032700
     79 H263        1.7920    2.5590   18.5770 hc        1 HGP      0.032700
     80 H31         0.1840   -3.3900   -3.1950 h1        1 HGP      0.099700
     81 H32        -0.2690   -1.6120   -2.9560 h1        1 HGP      0.099700
     82 H2          2.1470   -0.9520   -3.2580 h1        1 HGP      0.082700
     83 H11         0.5730   -2.4890   -5.3910 h1        1 HGP      0.047700
     84 H12         2.3720   -2.2820   -5.7070 h1        1 HGP      0.047700
     85 H321        5.0050   -4.1510   -1.4870 hc        1 HGP      0.076200
     86 H322        4.3680   -4.7600   -3.0820 hc        1 HGP      0.076200
     87 H331        5.7950   -2.9530   -4.2370 hc        1 HGP      0.053700
     88 H332        6.6930   -4.3070   -3.4460 hc        1 HGP      0.053700
     89 H341        7.1740   -2.9020   -1.4610 hc        1 HGP      0.049700
     90 H342        6.1580   -1.5610   -2.1190 hc        1 HGP      0.049700
     91 H351        7.6870   -1.3760   -4.1100 hc        1 HGP      0.041200
     92 H352        8.6900   -2.7370   -3.4760 hc        1 HGP      0.041200
     93 H361        8.1610   -0.0540   -2.0160 hc        1 HGP      0.039700
     94 H362        9.1720   -1.4130   -1.3900 hc        1 HGP      0.039700
     95 H371       10.6770   -1.2200   -3.4020 hc        1 HGP      0.040200
     96 H372        9.6670    0.1400   -4.0260 hc        1 HGP      0.040200
     97 H381       10.1500    1.4580   -1.9330 hc        1 HGP      0.038700
     98 H382       11.1620    0.0980   -1.3110 hc        1 HGP      0.038700
     99 H391       12.6640    0.2940   -3.3240 hc        1 HGP      0.040200
    100 H392       11.6530    1.6540   -3.9450 hc        1 HGP      0.040200
    101 H401       12.1380    2.9700   -1.8530 hc        1 HGP      0.038700
    102 H402       13.1500    1.6110   -1.2330 hc        1 HGP      0.038700
    103 H421       14.6500    1.8090   -3.2470 hc        1 HGP      0.039700
    104 H422       13.6380    3.1690   -3.8660 hc        1 HGP      0.039700
    105 H431       15.1380    3.1250   -1.1550 hc        1 HGP      0.038700
    106 H432       14.1260    4.4850   -1.7740 hc        1 HGP      0.038700
    107 H441       16.6350    3.3220   -3.1690 hc        1 HGP      0.038700
    108 H442       15.6230    4.6820   -3.7880 hc        1 HGP      0.038700
    109 H41        -1.9770    1.5070   -5.1320 h1        1 HGP      0.059200
    110 H42        -1.4840    2.9230   -6.2080 h1        1 HGP      0.059200
    111 H51         0.1800    3.6800   -4.5390 hx        1 HGP      0.077700
    112 H52        -1.5790    3.7690   -3.9980 hx        1 HGP      0.077700
    113 H61         1.6750    2.2030   -3.5960 hx        1 HGP      0.101811
    114 H62         0.6480    0.6930   -3.7950 hx        1 HGP      0.101811
    115 H63         1.2210    1.1880   -2.1200 hx        1 HGP      0.101811
    116 H71         0.1890    2.9280   -0.9490 hx        1 HGP      0.101811
    117 H72        -1.0280    4.0350   -1.7530 hx        1 HGP      0.101811
    118 H73         0.7350    4.0910   -2.2540 hx        1 HGP      0.101811
    119 H81        -2.4100    2.1110   -2.4140 hx        1 HGP      0.101811
    120 H82        -1.6070    0.6330   -3.1810 hx        1 HGP      0.101811
    121 H83        -1.2020    1.0930   -1.4620 hx        1 HGP      0.101811
    122 H91        17.1550    4.6510   -1.0940 hc        1 HGP      0.032367
    123 H92        16.1400    6.0150   -1.7150 hc        1 HGP      0.032367
    124 H93        17.6450    5.5310   -2.6000 hc        1 HGP      0.032367
@<TRIPOS>BOND
     1    1    2 2   
     2    2    3 1   
     3    2   18 1   
     4    3    4 1   
     5    3   49 1   
     6    3   50 1   
     7    4    5 1   
     8    4   51 1   
     9    4   52 1   
    10    5    6 1   
    11    5   53 1   
    12    5   54 1   
    13    6    7 1   
    14    6   55 1   
    15    6   56 1   
    16    7    8 1   
    17    7   57 1   
    18    7   58 1   
    19    8    9 1   
    20    8   59 1   
    21    8   60 1   
    22    9   10 1   
    23    9   61 1   
    24    9   62 1   
    25   10   11 1   
    26   10   63 1   
    27   10   64 1   
    28   11   12 1   
    29   11   65 1   
    30   11   66 1   
    31   12   13 1   
    32   12   67 1   
    33   12   68 1   
    34   13   14 1   
    35   13   69 1   
    36   13   70 1   
    37   14   15 1   
    38   14   71 1   
    39   14   72 1   
    40   15   16 1   
    41   15   73 1   
    42   15   74 1   
    43   16   17 1   
    44   16   75 1   
    45   16   76 1   
    46   17   77 1   
    47   17   78 1   
    48   17   79 1   
    49   18   19 1   
    50   19   20 1   
    51   19   80 1   
    52   19   81 1   
    53   20   21 1   
    54   20   24 1   
    55   20   82 1   
    56   21   22 1   
    57   21   83 1   
    58   21   84 1   
    59   22   23 1   
    60   23   39 1   
    61   23   40 1   
    62   23   41 1   
    63   24   25 1   
    64   25   26 2   
    65   25   27 1   
    66   27   28 1   
    67   27   85 1   
    68   27   86 1   
    69   28   29 1   
    70   28   87 1   
    71   28   88 1   
    72   29   30 1   
    73   29   89 1   
    74   29   90 1   
    75   30   31 1   
    76   30   91 1   
    77   30   92 1   
    78   31   32 1   
    79   31   93 1   
    80   31   94 1   
    81   32   33 1   
    82   32   95 1   
    83   32   96 1   
    84   33   34 1   
    85   33   97 1   
    86   33   98 1   
    87   34   35 1   
    88   34   99 1   
    89   34  100 1   
    90   35   36 1   
    91   35  101 1   
    92   35  102 1   
    93   36   37 1   
    94   36  103 1   
    95   36  104 1   
    96   37   38 1   
    97   37  105 1   
    98   37  106 1   
    99   38   48 1   
   100   38  107 1   
   101   38  108 1   
   102   41   42 1   
   103   42   43 1   
   104   42  109 1   
   105   42  110 1   
   106   43   44 1   
   107   43  111 1   
   108   43  112 1   
   109   44   45 1   
   110   44   46 1   
   111   44   47 1   
   112   45  113 1   
   113   45  114 1   
   114   45  115 1   
   115   46  116 1   
   116   46  117 1   
   117   46  118 1   
   118   47  119 1   
   119   47  120 1   
   120   47  121 1   
   121   48  122 1   
   122   48  123 1   
   123   48  124 1   
@<TRIPOS>SUBSTRUCTURE
     1 HGP         1 TEMP              0 ****  ****    0 ROOT
