@<TRIPOS>MOLECULE
HGP
  124   123     1     0     0
SMALL
bcc


@<TRIPOS>ATOM
      1 O11         0.3820   -0.4590   -0.9380 o         1 HGP     -0.609000
      2 C11         0.8460   -1.5440   -0.5700 c         1 HGP      0.667100
      3 C12         1.4170   -1.9090    0.7650 c3        1 HGP     -0.135400
      4 C13         0.8630   -1.0340    1.8680 c3        1 HGP     -0.074400
      5 C14         1.5360   -1.3440    3.1880 c3        1 HGP     -0.080400
      6 C15         0.9740   -0.4870    4.3020 c3        1 HGP     -0.078400
      7 C16         1.6460   -0.7950    5.6230 c3        1 HGP     -0.079400
      8 C17         1.0800    0.0580    6.7380 c3        1 HGP     -0.078400
      9 C18         1.7500   -0.2520    8.0600 c3        1 HGP     -0.079400
     10 C19         1.1820    0.5980    9.1760 c3        1 HGP     -0.078400
     11 C20         1.8500    0.2860   10.4980 c3        1 HGP     -0.079400
     12 C21         1.2800    1.1340   11.6150 c3        1 HGP     -0.078400
     13 C22         1.9470    0.8200   12.9380 c3        1 HGP     -0.079400
     14 C23         1.3760    1.6670   14.0550 c3        1 HGP     -0.079400
     15 C24         2.0410    1.3520   15.3780 c3        1 HGP     -0.079400
     16 C25         1.4710    2.1970   16.4970 c3        1 HGP     -0.080400
     17 C26         2.1290    1.8860   17.8160 c3        1 HGP     -0.093100
     18 O3          0.8850   -2.5860   -1.4470 os        1 HGP     -0.432900
     19 C3          0.5530   -2.3580   -2.8220 c3        1 HGP      0.106400
     20 C2          1.7900   -1.9230   -3.6060 c3        1 HGP      0.094100
     21 C1          1.4960   -1.8540   -5.1200 c3        1 HGP      0.195400
     22 O3P         1.3090   -0.5300   -5.5130 os        1 HGP     -0.572200
     23 P          -0.2150   -0.1480   -6.0240 p5        1 HGP      1.437800
     24 O2          2.8210   -2.9180   -3.4690 os        1 HGP     -0.430900
     25 C31         3.7610   -2.7580   -2.4940 c         1 HGP      0.651100
     26 O31         3.6800   -1.7950   -1.7250 o         1 HGP     -0.574000
     27 C32         4.7930   -3.8470   -2.5100 c3        1 HGP     -0.127400
     28 C33         6.0550   -3.4020   -3.2210 c3        1 HGP     -0.074400
     29 C34         6.8440   -2.3990   -2.4070 c3        1 HGP     -0.088400
     30 C35         8.0380   -1.8850   -3.1820 c3        1 HGP     -0.078400
     31 C36         8.8450   -0.9040   -2.3590 c3        1 HGP     -0.078400
     32 C37        10.0360   -0.3850   -3.1350 c3        1 HGP     -0.079400
     33 C38        10.8450    0.5940   -2.3120 c3        1 HGP     -0.078400
     34 C39        12.0370    1.1110   -3.0890 c3        1 HGP     -0.079400
     35 C40        12.8480    2.0890   -2.2650 c3        1 HGP     -0.078400
     36 C42        14.0390    2.6060   -3.0430 c3        1 HGP     -0.079400
     37 C43        14.8510    3.5830   -2.2190 c3        1 HGP     -0.079400
     38 C44        16.0430    4.1000   -2.9960 c3        1 HGP     -0.080400
     39 O1         -1.0430   -0.4490   -4.8290 o         1 HGP     -0.819000
     40 O4         -0.4460   -0.5450   -7.4100 o         1 HGP     -0.819000
     41 O5         -0.0340    1.5060   -5.8940 os        1 HGP     -0.561200
     42 C4         -1.1200    2.2080   -5.4030 c3        1 HGP      0.187400
     43 C5         -0.7120    3.0970   -4.2130 c3        1 HGP      0.093800
     44 N1         -0.3520    2.4020   -2.9280 n4        1 HGP     -0.577800
     45 C6          0.8910    1.5930   -3.0980 c3        1 HGP      0.079433
     46 C7         -0.0970    3.4500   -1.8950 c3        1 HGP      0.079433
     47 C8         -1.4640    1.5270   -2.4550 c3        1 HGP      0.079433
     48 C9         16.8550    5.0730   -2.1800 c3        1 HGP     -0.092100
     49 H121        1.2100   -2.9910    0.9770 hc        1 HGP      0.088700
     50 H122        2.5330   -1.7850    0.6770 hc        1 HGP      0.088700
     51 H131       -0.2430   -1.1960    1.9580 hc        1 HGP      0.049200
     52 H132        1.0180    0.0450    1.6030 hc        1 HGP      0.049200
     53 H141        1.3930   -2.4280    3.4390 hc        1 HGP      0.043700
     54 H142        2.6410   -1.1680    3.0990 hc        1 HGP      0.043700
     55 H151       -0.1310   -0.6640    4.3910 hc        1 HGP      0.039700
     56 H152        1.1160    0.5970    4.0510 hc        1 HGP      0.039700
     57 H161        1.5070   -1.8800    5.8720 hc        1 HGP      0.041200
     58 H162        2.7500   -0.6150    5.5350 hc        1 HGP      0.041200
     59 H171        1.2200    1.1430    6.4910 hc        1 HGP      0.039200
     60 H172       -0.0240   -0.1210    6.8260 hc        1 HGP      0.039200
     61 H181        1.6120   -1.3380    8.3060 hc        1 HGP      0.040200
     62 H182        2.8540   -0.0700    7.9730 hc        1 HGP      0.040200
     63 H191        0.0780    0.4180    9.2610 hc        1 HGP      0.039200
     64 H192        1.3210    1.6840    8.9310 hc        1 HGP      0.039200
     65 H201        2.9540    0.4680   10.4140 hc        1 HGP      0.039700
     66 H202        1.7120   -0.8000   10.7430 hc        1 HGP      0.039700
     67 H211        0.1760    0.9540   11.6990 hc        1 HGP      0.039200
     68 H212        1.4200    2.2200   11.3720 hc        1 HGP      0.039200
     69 H221        1.8080   -0.2660   13.1810 hc        1 HGP      0.039700
     70 H222        3.0510    1.0010   12.8550 hc        1 HGP      0.039700
     71 H231        0.2720    1.4860   14.1370 hc        1 HGP      0.039200
     72 H232        1.5160    2.7530   13.8130 hc        1 HGP      0.039200
     73 H241        3.1450    1.5320   15.2960 hc        1 HGP      0.039700
     74 H242        1.9010    0.2650   15.6200 hc        1 HGP      0.039700
     75 H251        1.6100    3.2830   16.2530 hc        1 HGP      0.038200
     76 H252        0.3660    2.0170   16.5750 hc        1 HGP      0.038200
     77 H261        3.2280    2.0840   17.7650 hc        1 HGP      0.032700
     78 H262        1.6950    2.5200   18.6260 hc        1 HGP      0.032700
     79 H263        1.9800    0.8140   18.0890 hc        1 HGP      0.032700
     80 H31         0.1930   -3.3650   -3.1640 h1        1 HGP      0.099700
     81 H32        -0.2570   -1.5860   -2.9280 h1        1 HGP      0.099700
     82 H2          2.1600   -0.9300   -3.2300 h1        1 HGP      0.082700
     83 H11         2.3870   -2.2640   -5.6750 h1        1 HGP      0.047700
     84 H12         0.5880   -2.4720   -5.3610 h1        1 HGP      0.047700
     85 H321        5.0200   -4.1200   -1.4460 hc        1 HGP      0.076200
     86 H322        4.3670   -4.7480   -3.0270 hc        1 HGP      0.076200
     87 H331        5.7890   -2.9600   -4.2180 hc        1 HGP      0.053700
     88 H332        6.6900   -4.3070   -3.4170 hc        1 HGP      0.053700
     89 H341        6.1760   -1.5420   -2.1220 hc        1 HGP      0.049700
     90 H342        7.1910   -2.8780   -1.4540 hc        1 HGP      0.049700
     91 H351        7.6890   -1.3870   -4.1250 hc        1 HGP      0.041200
     92 H352        8.6900   -2.7470   -3.4850 hc        1 HGP      0.041200
     93 H361        9.1970   -1.4020   -1.4170 hc        1 HGP      0.039700
     94 H362        8.1910   -0.0440   -2.0530 hc        1 HGP      0.039700
     95 H371       10.6870   -1.2450   -3.4440 hc        1 HGP      0.040700
     96 H372        9.6830    0.1160   -4.0750 hc        1 HGP      0.040700
     97 H381       10.1950    1.4540   -2.0030 hc        1 HGP      0.038700
     98 H382       11.1980    0.0930   -1.3720 hc        1 HGP      0.038700
     99 H391       11.6840    1.6130   -4.0280 hc        1 HGP      0.040200
    100 H392       12.6860    0.2510   -3.3980 hc        1 HGP      0.040200
    101 H401       12.1980    2.9500   -1.9560 hc        1 HGP      0.038700
    102 H402       13.2000    1.5870   -1.3260 hc        1 HGP      0.038700
    103 H421       14.6880    1.7450   -3.3530 hc        1 HGP      0.039700
    104 H422       13.6860    3.1080   -3.9820 hc        1 HGP      0.039700
    105 H431       14.2020    4.4440   -1.9090 hc        1 HGP      0.038700
    106 H432       15.2040    3.0800   -1.2800 hc        1 HGP      0.038700
    107 H441       16.6890    3.2370   -3.3070 hc        1 HGP      0.038700
    108 H442       15.6880    4.6010   -3.9350 hc        1 HGP      0.038700
    109 H41        -1.4710    2.9370   -6.1940 h1        1 HGP      0.059200
    110 H42        -1.9660    1.5230   -5.1160 h1        1 HGP      0.059200
    111 H51         0.1890    3.6990   -4.5230 hx        1 HGP      0.077700
    112 H52        -1.5710    3.7870   -3.9850 hx        1 HGP      0.077700
    113 H61         0.6580    0.7140   -3.7710 hx        1 HGP      0.101811
    114 H62         1.6830    2.2240   -3.5750 hx        1 HGP      0.101811
    115 H63         1.2280    1.2130   -2.0980 hx        1 HGP      0.101811
    116 H71         0.1910    2.9530   -0.9310 hx        1 HGP      0.101811
    117 H72        -1.0240    4.0590   -1.7400 hx        1 HGP      0.101811
    118 H73         0.7390    4.1140   -2.2380 hx        1 HGP      0.101811
    119 H81        -1.1960    1.1170   -1.4440 hx        1 HGP      0.101811
    120 H82        -1.5990    0.6530   -3.1630 hx        1 HGP      0.101811
    121 H83        -2.4040    2.1320   -2.3990 hx        1 HGP      0.101811
    122 H91        17.2380    4.5850   -1.2520 hc        1 HGP      0.032367
    123 H92        17.7270    5.4420   -2.7710 hc        1 HGP      0.032367
    124 H93        16.2340    5.9520   -1.8820 hc        1 HGP      0.032367
@<TRIPOS>BOND
     1    1    2 2   
     2    2    3 1   
     3    2   18 1   
     4    3    4 1   
     5    3   49 1   
     6    3   50 1   
     7    4    5 1   
     8    4   51 1   
     9    4   52 1   
    10    5    6 1   
    11    5   53 1   
    12    5   54 1   
    13    6    7 1   
    14    6   55 1   
    15    6   56 1   
    16    7    8 1   
    17    7   57 1   
    18    7   58 1   
    19    8    9 1   
    20    8   59 1   
    21    8   60 1   
    22    9   10 1   
    23    9   61 1   
    24    9   62 1   
    25   10   11 1   
    26   10   63 1   
    27   10   64 1   
    28   11   12 1   
    29   11   65 1   
    30   11   66 1   
    31   12   13 1   
    32   12   67 1   
    33   12   68 1   
    34   13   14 1   
    35   13   69 1   
    36   13   70 1   
    37   14   15 1   
    38   14   71 1   
    39   14   72 1   
    40   15   16 1   
    41   15   73 1   
    42   15   74 1   
    43   16   17 1   
    44   16   75 1   
    45   16   76 1   
    46   17   77 1   
    47   17   78 1   
    48   17   79 1   
    49   18   19 1   
    50   19   20 1   
    51   19   80 1   
    52   19   81 1   
    53   20   21 1   
    54   20   24 1   
    55   20   82 1   
    56   21   22 1   
    57   21   83 1   
    58   21   84 1   
    59   22   23 1   
    60   23   39 1   
    61   23   40 1   
    62   23   41 1   
    63   24   25 1   
    64   25   26 2   
    65   25   27 1   
    66   27   28 1   
    67   27   85 1   
    68   27   86 1   
    69   28   29 1   
    70   28   87 1   
    71   28   88 1   
    72   29   30 1   
    73   29   89 1   
    74   29   90 1   
    75   30   31 1   
    76   30   91 1   
    77   30   92 1   
    78   31   32 1   
    79   31   93 1   
    80   31   94 1   
    81   32   33 1   
    82   32   95 1   
    83   32   96 1   
    84   33   34 1   
    85   33   97 1   
    86   33   98 1   
    87   34   35 1   
    88   34   99 1   
    89   34  100 1   
    90   35   36 1   
    91   35  101 1   
    92   35  102 1   
    93   36   37 1   
    94   36  103 1   
    95   36  104 1   
    96   37   38 1   
    97   37  105 1   
    98   37  106 1   
    99   38   48 1   
   100   38  107 1   
   101   38  108 1   
   102   41   42 1   
   103   42   43 1   
   104   42  109 1   
   105   42  110 1   
   106   43   44 1   
   107   43  111 1   
   108   43  112 1   
   109   44   45 1   
   110   44   46 1   
   111   44   47 1   
   112   45  113 1   
   113   45  114 1   
   114   45  115 1   
   115   46  116 1   
   116   46  117 1   
   117   46  118 1   
   118   47  119 1   
   119   47  120 1   
   120   47  121 1   
   121   48  122 1   
   122   48  123 1   
   123   48  124 1   
@<TRIPOS>SUBSTRUCTURE
     1 HGP         1 TEMP              0 ****  ****    0 ROOT
