@<TRIPOS>MOLECULE
HGP
  124   123     1     0     0
SMALL
bcc


@<TRIPOS>ATOM
      1 O11         2.7940   -7.5730   -8.1560 o         1 HGP     -0.609000
      2 C11         3.2020   -7.0350   -9.1930 c         1 HGP      0.668100
      3 C12         4.3800   -7.4130  -10.0370 c3        1 HGP     -0.135400
      4 C13         4.7430   -8.8710   -9.8720 c3        1 HGP     -0.074400
      5 C14         6.0040   -9.2010  -10.6420 c3        1 HGP     -0.080400
      6 C15         6.3660  -10.6640  -10.4930 c3        1 HGP     -0.078400
      7 C16         7.6290  -10.9960  -11.2600 c3        1 HGP     -0.079400
      8 C17         7.9910  -12.4580  -11.1130 c3        1 HGP     -0.078400
      9 C18         9.2540  -12.7900  -11.8800 c3        1 HGP     -0.079400
     10 C19         9.6170  -14.2520  -11.7330 c3        1 HGP     -0.078400
     11 C20        10.8790  -14.5840  -12.5000 c3        1 HGP     -0.079400
     12 C21        11.2420  -16.0460  -12.3540 c3        1 HGP     -0.078400
     13 C22        12.5050  -16.3780  -13.1200 c3        1 HGP     -0.079400
     14 C23        12.8680  -17.8400  -12.9740 c3        1 HGP     -0.079400
     15 C24        14.1300  -18.1720  -13.7400 c3        1 HGP     -0.079400
     16 C25        14.4950  -19.6340  -13.5950 c3        1 HGP     -0.080400
     17 C26        15.7510  -19.9690  -14.3560 c3        1 HGP     -0.093100
     18 O3          2.5490   -5.9450   -9.6810 os        1 HGP     -0.432900
     19 C3          1.5160   -5.3360   -8.8960 c3        1 HGP      0.106400
     20 C2          2.1100   -4.3000   -7.9430 c3        1 HGP      0.094100
     21 C1          1.0000   -3.5030   -7.2230 c3        1 HGP      0.195400
     22 O3P         0.8390   -3.9750   -5.9220 os        1 HGP     -0.572200
     23 P          -0.6090   -4.7080   -5.6060 p5        1 HGP      1.437800
     24 O2          2.8480   -3.3190   -8.6970 os        1 HGP     -0.430900
     25 C31         4.1900   -3.4920   -8.8610 c         1 HGP      0.651100
     26 O31         4.7310   -4.5050   -8.4050 o         1 HGP     -0.574000
     27 C32         4.8220   -2.3660   -9.6240 c3        1 HGP     -0.127400
     28 C33         5.5660   -1.4210   -8.7020 c3        1 HGP     -0.074400
     29 C34         6.8470   -2.0310   -8.1740 c3        1 HGP     -0.089400
     30 C35         7.5160   -1.1150   -7.1730 c3        1 HGP     -0.077400
     31 C36         8.8100   -1.7130   -6.6640 c3        1 HGP     -0.078400
     32 C37         9.4770   -0.8010   -5.6560 c3        1 HGP     -0.079400
     33 C38        10.7730   -1.3970   -5.1490 c3        1 HGP     -0.078400
     34 C39        11.4390   -0.4860   -4.1400 c3        1 HGP     -0.079400
     35 C40        12.7350   -1.0820   -3.6330 c3        1 HGP     -0.078400
     36 C42        13.4010   -0.1710   -2.6240 c3        1 HGP     -0.079400
     37 C43        14.6970   -0.7670   -2.1170 c3        1 HGP     -0.079400
     38 C44        15.3640    0.1430   -1.1080 c3        1 HGP     -0.080400
     39 O1         -0.6150   -5.8400   -6.5660 o         1 HGP     -0.819000
     40 O4         -1.6680   -3.7390   -5.3400 o         1 HGP     -0.819000
     41 O5         -0.1190   -5.4650   -4.2020 os        1 HGP     -0.561200
     42 C4         -0.5780   -6.7540   -4.0040 c3        1 HGP      0.187400
     43 C5          0.5880   -7.7200   -3.7220 c3        1 HGP      0.093800
     44 N1          1.5140   -8.0320   -4.8660 n4        1 HGP     -0.577800
     45 C6          2.2680   -6.8130   -5.2800 c3        1 HGP      0.079433
     46 C7          2.4930   -9.0580   -4.3970 c3        1 HGP      0.079433
     47 C8          0.7660   -8.5850   -6.0330 c3        1 HGP      0.079433
     48 C9         16.6550   -0.4450   -0.6010 c3        1 HGP     -0.092100
     49 H121        4.1590   -7.1790  -11.1110 hc        1 HGP      0.089200
     50 H122        5.2290   -6.7490   -9.7090 hc        1 HGP      0.089200
     51 H131        4.8880   -9.1000   -8.7830 hc        1 HGP      0.049200
     52 H132        3.8970   -9.5140  -10.2340 hc        1 HGP      0.049200
     53 H141        5.8570   -8.9580  -11.7270 hc        1 HGP      0.043700
     54 H142        6.8500   -8.5640  -10.2710 hc        1 HGP      0.043700
     55 H151        5.5210  -11.3010  -10.8660 hc        1 HGP      0.039700
     56 H152        6.5100  -10.9080   -9.4080 hc        1 HGP      0.039700
     57 H161        7.4850  -10.7510  -12.3450 hc        1 HGP      0.041200
     58 H162        8.4740  -10.3590  -10.8870 hc        1 HGP      0.041200
     59 H171        7.1460  -13.0950  -11.4870 hc        1 HGP      0.039200
     60 H172        8.1350  -12.7030  -10.0280 hc        1 HGP      0.039200
     61 H181        9.1110  -12.5450  -12.9650 hc        1 HGP      0.040200
     62 H182       10.0990  -12.1530  -11.5060 hc        1 HGP      0.040200
     63 H191        8.7720  -14.8890  -12.1070 hc        1 HGP      0.039200
     64 H192        9.7600  -14.4980  -10.6480 hc        1 HGP      0.039200
     65 H201       11.7240  -13.9480  -12.1260 hc        1 HGP      0.039700
     66 H202       10.7360  -14.3380  -13.5850 hc        1 HGP      0.039700
     67 H211       11.3850  -16.2920  -11.2680 hc        1 HGP      0.039200
     68 H212       10.3970  -16.6830  -12.7280 hc        1 HGP      0.039200
     69 H221       12.3620  -16.1320  -14.2050 hc        1 HGP      0.039700
     70 H222       13.3500  -15.7420  -12.7460 hc        1 HGP      0.039700
     71 H231       13.0100  -18.0860  -11.8890 hc        1 HGP      0.039200
     72 H232       12.0230  -18.4770  -13.3490 hc        1 HGP      0.039200
     73 H241       13.9880  -17.9260  -14.8250 hc        1 HGP      0.039700
     74 H242       14.9760  -17.5360  -13.3660 hc        1 HGP      0.039700
     75 H251       13.6480  -20.2690  -13.9690 hc        1 HGP      0.038200
     76 H252       14.6350  -19.8790  -12.5090 hc        1 HGP      0.038200
     77 H261       15.6220  -19.7560  -15.4450 hc        1 HGP      0.032700
     78 H262       16.0010  -21.0510  -14.2360 hc        1 HGP      0.032700
     79 H263       16.6120  -19.3650  -13.9810 hc        1 HGP      0.032700
     80 H31         0.8670   -4.8460   -9.6700 h1        1 HGP      0.099700
     81 H32         0.9350   -6.1020   -8.3130 h1        1 HGP      0.099700
     82 H2          2.7850   -4.8000   -7.1960 h1        1 HGP      0.082700
     83 H11         0.0370   -3.5840   -7.7980 h1        1 HGP      0.047700
     84 H12         1.3160   -2.4220   -7.1690 h1        1 HGP      0.047700
     85 H321        4.0230   -1.8020  -10.1760 hc        1 HGP      0.076200
     86 H322        5.5250   -2.8140  -10.3750 hc        1 HGP      0.076200
     87 H331        4.9010   -1.1290   -7.8470 hc        1 HGP      0.053700
     88 H332        5.8050   -0.4840   -9.2730 hc        1 HGP      0.053700
     89 H341        7.5470   -2.2330   -9.0270 hc        1 HGP      0.050200
     90 H342        6.6180   -3.0200   -7.6930 hc        1 HGP      0.050200
     91 H351        7.7240   -0.1210   -7.6520 hc        1 HGP      0.041200
     92 H352        6.8230   -0.9280   -6.3110 hc        1 HGP      0.041200
     93 H361        8.6030   -2.7090   -6.1910 hc        1 HGP      0.039700
     94 H362        9.5060   -1.8950   -7.5250 hc        1 HGP      0.039700
     95 H371        8.7830   -0.6210   -4.7940 hc        1 HGP      0.040200
     96 H372        9.6820    0.1960   -6.1290 hc        1 HGP      0.040200
     97 H381       11.4680   -1.5760   -6.0110 hc        1 HGP      0.038700
     98 H382       10.5680   -2.3950   -4.6770 hc        1 HGP      0.038700
     99 H391       10.7440   -0.3080   -3.2780 hc        1 HGP      0.039700
    100 H392       11.6430    0.5110   -4.6120 hc        1 HGP      0.039700
    101 H401       12.5310   -2.0800   -3.1620 hc        1 HGP      0.038700
    102 H402       13.4300   -1.2600   -4.4960 hc        1 HGP      0.038700
    103 H421       13.6040    0.8260   -3.0950 hc        1 HGP      0.039700
    104 H422       12.7060    0.0070   -1.7620 hc        1 HGP      0.039700
    105 H431       15.3920   -0.9440   -2.9800 hc        1 HGP      0.038700
    106 H432       14.4930   -1.7640   -1.6460 hc        1 HGP      0.038700
    107 H441       15.5650    1.1410   -1.5810 hc        1 HGP      0.038700
    108 H442       14.6660    0.3210   -0.2470 hc        1 HGP      0.038700
    109 H41        -1.1930   -7.1170   -4.8750 h1        1 HGP      0.059200
    110 H42        -1.2010   -6.7790   -3.0600 h1        1 HGP      0.059200
    111 H51         0.1520   -8.6970   -3.3740 hx        1 HGP      0.077700
    112 H52         1.2200   -7.2710   -2.9030 hx        1 HGP      0.077700
    113 H61         3.0610   -7.0980   -6.0210 hx        1 HGP      0.101811
    114 H62         1.5450   -6.0910   -5.7680 hx        1 HGP      0.101811
    115 H63         2.7200   -6.3300   -4.3760 hx        1 HGP      0.101811
    116 H71         3.2050   -9.2940   -5.2320 hx        1 HGP      0.101811
    117 H72         3.0630   -8.6540   -3.5210 hx        1 HGP      0.101811
    118 H73         1.9470   -9.9890   -4.0980 hx        1 HGP      0.101811
    119 H81         1.5040   -8.9040   -6.8170 hx        1 HGP      0.101811
    120 H82         0.1520   -9.4560   -5.6920 hx        1 HGP      0.101811
    121 H83         0.1010   -7.7850   -6.4820 hx        1 HGP      0.101811
    122 H91        17.1290    0.2410    0.1410 hc        1 HGP      0.032367
    123 H92        16.4710   -1.4290   -0.1040 hc        1 HGP      0.032367
    124 H93        17.3720   -0.6070   -1.4410 hc        1 HGP      0.032367
@<TRIPOS>BOND
     1    1    2 2   
     2    2    3 1   
     3    2   18 1   
     4    3    4 1   
     5    3   49 1   
     6    3   50 1   
     7    4    5 1   
     8    4   51 1   
     9    4   52 1   
    10    5    6 1   
    11    5   53 1   
    12    5   54 1   
    13    6    7 1   
    14    6   55 1   
    15    6   56 1   
    16    7    8 1   
    17    7   57 1   
    18    7   58 1   
    19    8    9 1   
    20    8   59 1   
    21    8   60 1   
    22    9   10 1   
    23    9   61 1   
    24    9   62 1   
    25   10   11 1   
    26   10   63 1   
    27   10   64 1   
    28   11   12 1   
    29   11   65 1   
    30   11   66 1   
    31   12   13 1   
    32   12   67 1   
    33   12   68 1   
    34   13   14 1   
    35   13   69 1   
    36   13   70 1   
    37   14   15 1   
    38   14   71 1   
    39   14   72 1   
    40   15   16 1   
    41   15   73 1   
    42   15   74 1   
    43   16   17 1   
    44   16   75 1   
    45   16   76 1   
    46   17   77 1   
    47   17   78 1   
    48   17   79 1   
    49   18   19 1   
    50   19   20 1   
    51   19   80 1   
    52   19   81 1   
    53   20   21 1   
    54   20   24 1   
    55   20   82 1   
    56   21   22 1   
    57   21   83 1   
    58   21   84 1   
    59   22   23 1   
    60   23   39 1   
    61   23   40 1   
    62   23   41 1   
    63   24   25 1   
    64   25   26 2   
    65   25   27 1   
    66   27   28 1   
    67   27   85 1   
    68   27   86 1   
    69   28   29 1   
    70   28   87 1   
    71   28   88 1   
    72   29   30 1   
    73   29   89 1   
    74   29   90 1   
    75   30   31 1   
    76   30   91 1   
    77   30   92 1   
    78   31   32 1   
    79   31   93 1   
    80   31   94 1   
    81   32   33 1   
    82   32   95 1   
    83   32   96 1   
    84   33   34 1   
    85   33   97 1   
    86   33   98 1   
    87   34   35 1   
    88   34   99 1   
    89   34  100 1   
    90   35   36 1   
    91   35  101 1   
    92   35  102 1   
    93   36   37 1   
    94   36  103 1   
    95   36  104 1   
    96   37   38 1   
    97   37  105 1   
    98   37  106 1   
    99   38   48 1   
   100   38  107 1   
   101   38  108 1   
   102   41   42 1   
   103   42   43 1   
   104   42  109 1   
   105   42  110 1   
   106   43   44 1   
   107   43  111 1   
   108   43  112 1   
   109   44   45 1   
   110   44   46 1   
   111   44   47 1   
   112   45  113 1   
   113   45  114 1   
   114   45  115 1   
   115   46  116 1   
   116   46  117 1   
   117   46  118 1   
   118   47  119 1   
   119   47  120 1   
   120   47  121 1   
   121   48  122 1   
   122   48  123 1   
   123   48  124 1   
@<TRIPOS>SUBSTRUCTURE
     1 HGP         1 TEMP              0 ****  ****    0 ROOT
