@<TRIPOS>MOLECULE
HGS
   38    34     1     0     0
SMALL
bcc


@<TRIPOS>ATOM
      1 C1         -4.5080    0.0660   -3.7450 c1        1 HGS      0.307000
      2 N1         -3.8260   -2.2160   -4.0070 n3        1 HGS     -0.326000
      3 C2          1.9780    0.3240    1.0580 c1        1 HGS      0.268000
      4 N2          0.4760   -0.7990   -0.4310 n         1 HGS     -0.375000
      5 O2          2.8200    0.4610    0.1930 o         1 HGS     -0.401000
      6 N3          2.0030    1.1500    2.2110 n2        1 HGS     -0.358000
      7 C4          3.8440    3.9830    3.7720 c1        1 HGS      0.333000
      8 O11        -5.5830   -0.1280   -3.1200 o         1 HGS     -0.589000
      9 O12        -4.3840    1.0770   -4.4860 os        1 HGS     -0.576500
     10 O41         5.0130    3.7170    4.1590 os        1 HGS     -0.576500
     11 O42         3.5300    5.1670    3.4830 o         1 HGS     -0.580000
     12 CA1        -3.3720   -0.9240   -3.6220 c3        1 HGS     -0.128000
     13 CA2         0.9170   -0.7450    0.9170 c3        1 HGS      0.009000
     14 CA3         3.0340    2.1170    2.3700 c3        1 HGS     -0.024000
     15 CA4         2.8160    2.8780    3.6590 c3        1 HGS     -0.243000
     16 CB1        -2.8930   -0.9640   -2.1890 c3        1 HGS     -0.142000
     17 CB2         1.4970   -2.0860    1.3120 c3        1 HGS     -0.269000
     18 CD1        -0.9120   -0.7780   -0.7240 c2        1 HGS      0.308000
     19 OE1        -1.7230   -0.7070    0.1780 o         1 HGS     -0.401000
     20 CG1        -1.3840   -0.8610   -2.1590 c3        1 HGS     -0.173000
     21 SG2         0.5730   -2.7530    2.6690 sh        1 HGS     -0.057000
     22 HN1        -3.2670   -2.5580   -4.6470 hn        1 HGS      0.127000
     23 HN1A       -4.6750   -2.1530   -4.3450 hn        1 HGS      0.127000
     24 HN2         1.0840   -0.8560   -1.1080 hn        1 HGS      0.240000
     25 HN3         1.3630    1.0550    2.8540 hn        1 HGS      0.222000
     26 HA1        -2.6360   -0.6500   -4.2040 h1        1 HGS      0.082000
     27 HA2         0.1620   -0.5330    1.5000 h1        1 HGS      0.141000
     28 HA3         3.9030    1.6660    2.4010 h1        1 HGS      0.102000
     29 HA3A        3.0160    2.7410    1.6150 h1        1 HGS      0.102000
     30 HA4         2.9080    2.2680    4.4180 hc        1 HGS      0.068000
     31 HA4A        1.9180    3.2670    3.6600 hc        1 HGS      0.068000
     32 HB1        -3.2810   -0.2150   -1.6940 hc        1 HGS      0.093500
     33 HB1A       -3.1700   -1.8060   -1.7760 hc        1 HGS      0.093500
     34 HB2         2.4310   -1.9710    1.5780 h1        1 HGS      0.128500
     35 HB2A        1.4480   -2.6990    0.5510 h1        1 HGS      0.128500
     36 HG1        -0.9950   -1.6510   -2.5850 hc        1 HGS      0.109000
     37 HG1A       -1.1020   -0.0580   -2.6420 hc        1 HGS      0.109000
     38 HSG2        0.9750   -3.8290    2.9270 hs        1 HGS      0.054000
@<TRIPOS>BOND
     1    1    8 1   
     2    1   12 1   
     3    2   12 1   
     4    2   22 1   
     5    2   23 1   
     6    3    5 1   
     7    3   13 1   
     8    4   13 1   
     9    4   18 1   
    10    4   24 1   
    11    6   14 1   
    12    6   25 1   
    13    7   11 1   
    14    7   15 1   
    15   12   16 1   
    16   12   26 1   
    17   13   17 1   
    18   13   27 1   
    19   14   15 1   
    20   14   28 1   
    21   14   29 1   
    22   15   30 1   
    23   15   31 1   
    24   16   20 1   
    25   16   32 1   
    26   16   33 1   
    27   17   21 1   
    28   17   34 1   
    29   17   35 1   
    30   18   19 1   
    31   18   20 1   
    32   20   36 1   
    33   20   37 1   
    34   21   38 1   
@<TRIPOS>SUBSTRUCTURE
     1 HGS         1 TEMP              0 ****  ****    0 ROOT
