@<TRIPOS>MOLECULE
HGS
   38    37     1     0     0
SMALL
bcc


@<TRIPOS>ATOM
      1 C1         -5.9770   -0.2990   -0.7890 c         1 HGS      0.887600
      2 N1         -4.8180    1.8370   -1.5320 n3        1 HGS     -0.893800
      3 C2          1.8770    0.0020   -0.3900 c         1 HGS      0.627100
      4 N2         -0.5590   -0.1960    0.0560 n         1 HGS     -0.561900
      5 C4          6.7800    0.5340   -0.4310 c         1 HGS      0.912600
      6 O11        -6.6990   -0.1760   -1.8210 o         1 HGS     -0.844300
      7 O12        -6.0690   -1.2520    0.0330 o         1 HGS     -0.844300
      8 O41         7.6910   -0.1000   -1.0360 o         1 HGS     -0.847800
      9 O42         6.9000    1.7230   -0.0190 o         1 HGS     -0.847800
     10 CA1        -4.9270    0.8230   -0.4900 c3        1 HGS      0.018500
     11 CA2         0.7390   -0.7100    0.4050 c3        1 HGS      0.021700
     12 CA3         4.2640    0.7010   -0.3450 c3        1 HGS      0.086000
     13 CA4         5.4630   -0.2160   -0.1490 c3        1 HGS     -0.218400
     14 CB1        -3.5890    0.1630   -0.1480 c3        1 HGS     -0.061400
     15 CB2         0.8930   -2.2020    0.0880 c3        1 HGS      0.006700
     16 CD1        -1.3480    0.5050    0.9610 c         1 HGS      0.658100
     17 OE1        -1.0340    0.5650    2.1680 o         1 HGS     -0.632100
     18 CG1        -2.6080    1.1590    0.4310 c3        1 HGS     -0.144400
     19 SG2        -0.0110   -3.2830    1.1530 sh        1 HGS     -0.418900
     20 HN1        -4.3250    1.4420   -2.3130 hn        1 HGS      0.331800
     21 HN1A       -5.7520    2.0290   -1.8570 hn        1 HGS      0.331800
     22 HN2        -0.7240   -0.0600   -0.9160 hn        1 HGS      0.325500
     23 HN3         3.1380   -0.1300    1.2020 hn        1 HGS      0.300500
     24 HA1        -5.3000    1.3570    0.4330 h1        1 HGS      0.041700
     25 HA2         0.8840   -0.5590    1.5190 h1        1 HGS      0.105700
     26 HA3         4.0740    0.8460   -1.4450 h1        1 HGS      0.071200
     27 HA3A        4.5110    1.7090    0.1040 h1        1 HGS      0.071200
     28 HA4         5.3930   -1.1060   -0.8210 hc        1 HGS      0.025700
     29 HA4A        5.5180   -0.5840    0.9080 hc        1 HGS      0.025700
     30 HB1        -3.8040   -0.6510    0.5950 hc        1 HGS      0.054700
     31 HB1A       -3.1560   -0.3200   -1.0630 hc        1 HGS      0.054700
     32 HB2         0.6220   -2.3970   -0.9790 h1        1 HGS      0.081200
     33 HB2A        1.9620   -2.4960    0.2360 h1        1 HGS      0.081200
     34 HG1        -2.3260    1.9220   -0.3430 hc        1 HGS      0.069200
     35 HG1A       -3.0860    1.7030    1.2880 hc        1 HGS      0.069200
     36 HSG2       -1.2210   -2.7410    1.0810 hs        1 HGS      0.239800
     37 O2          1.6870    0.3430   -1.5780 o         1 HGS     -0.636100
     38 N3          3.0480    0.2220    0.2780 n         1 HGS     -0.546900
@<TRIPOS>BOND
     1    1    6 1   
     2    1    7 1   
     3    1   10 1   
     4    2   10 1   
     5    2   20 1   
     6    2   21 1   
     7    3   11 1   
     8    3   37 2   
     9    3   38 1   
    10    4   11 1   
    11    4   16 1   
    12    4   22 1   
    13    5    8 1   
    14    5    9 1   
    15    5   13 1   
    16   10   14 1   
    17   10   24 1   
    18   11   15 1   
    19   11   25 1   
    20   12   13 1   
    21   12   26 1   
    22   12   27 1   
    23   12   38 1   
    24   13   28 1   
    25   13   29 1   
    26   14   18 1   
    27   14   30 1   
    28   14   31 1   
    29   15   19 1   
    30   15   32 1   
    31   15   33 1   
    32   16   17 2   
    33   16   18 1   
    34   18   34 1   
    35   18   35 1   
    36   19   36 1   
    37   23   38 1   
@<TRIPOS>SUBSTRUCTURE
     1 HGS         1 TEMP              0 ****  ****    0 ROOT
