@<TRIPOS>MOLECULE
HGS
   41    34     1     0     0
SMALL
bcc


@<TRIPOS>ATOM
      1 C1         -2.2530   -3.5370    1.3690 c1        1 HGS      0.434000
      2 N1          0.9550   -1.0960    1.9270 n8        1 HGS     -0.258000
      3 C2          7.3850    2.7650    3.6080 c2        1 HGS      0.189000
      4 N2          5.1070    1.8170    3.2960 n7        1 HGS     -0.266000
      5 C4         12.3460    2.2040    8.7270 c1        1 HGS      0.206000
      6 O11        -1.2250   -2.9500    1.5360 o         1 HGS     -0.216500
      7 O12        -3.2700   -4.1190    1.2050 o         1 HGS     -0.216500
      8 O41         8.0250    1.0380    9.2430 o         1 HGS     -0.205000
      9 O42        13.4180    2.4420    9.1300 o         1 HGS     -0.205000
     10 CA1         0.8390    0.2580    1.9980 c1        1 HGS     -0.143000
     11 CA2         6.4840    1.5440    3.6460 c3        1 HGS     -0.136000
     12 CA3         9.9100    2.0850    6.0850 c3        1 HGS     -0.155000
     13 CA4         8.0930    0.9010   10.4060 c1        1 HGS      0.206000
     14 CB1         0.8370    1.4560    2.0730 c1        1 HGS     -0.227000
     15 CB2         4.7140   -2.8730    1.7020 c2        1 HGS     -0.851000
     16 CD1         4.2470    0.8910    2.8640 c2        1 HGS      0.283000
     17 OE1         4.6060   -0.3410    2.7470 os        1 HGS     -0.522000
     18 CG1         4.8690   -0.4390   -1.0110 c3        1 HGS     -0.263000
     19 SG2         3.6910   -1.8420    2.0220 s4        1 HGS      1.373000
     20 HN1         5.4310   -1.3500   -1.3140 hc        1 HGS      0.067000
     21 HN1A        0.6170   -1.4310    1.0360 hn        1 HGS      0.197500
     22 HN2         5.0680   -3.7520    2.2650 h4        1 HGS      0.205500
     23 HN3         8.1810    2.2930    7.1090 hn        1 HGS      0.147500
     24 HA1         3.9890   -0.3060   -1.6760 hc        1 HGS      0.067000
     25 HA2         6.8990    0.7620    2.9450 h1        1 HGS      0.146500
     26 HA3         9.8780    3.1270    5.6700 h1        1 HGS      0.076000
     27 HA3A        8.5840    0.7530    6.8250 hn        1 HGS      0.147500
     28 HA4        10.3130    1.3980    5.2940 h1        1 HGS      0.076000
     29 HA4A       10.6300    2.0780    6.9510 h1        1 HGS      0.076000
     30 HB1         0.7770    2.5140    2.1260 ha        1 HGS      0.248000
     31 HB1A        4.5260   -0.5510    0.0450 hc        1 HGS      0.067000
     32 HB2         6.5250    1.1240    4.6960 h1        1 HGS      0.146500
     33 HB2A        5.2980   -2.8260    0.7600 h4        1 HGS      0.205500
     34 HG1         3.2040    1.2120    2.6150 h5        1 HGS      0.187000
     35 HG1A        5.5330    0.4490   -1.0900 hc        1 HGS      0.067000
     36 HSG2        3.2250   -2.2400    3.1690 hs        1 HGS     -0.133000
     37 N3          8.5750    1.6730    6.4250 n8        1 HGS     -0.368000
     38 H13         0.4170   -1.5350    2.6600 hn        1 HGS      0.197500
     39 H22         4.8220    2.7780    3.3500 hn        1 HGS      0.276000
     40 H32         8.4490    2.5350    3.8370 h4        1 HGS      0.149000
     41 O2          6.9680    3.8960    3.3680 o         1 HGS     -0.277000
@<TRIPOS>BOND
     1    1    6 1   
     2    1    7 1   
     3    2   10 1   
     4    2   21 1   
     5    2   38 1   
     6    3   11 1   
     7    3   40 1   
     8    3   41 1   
     9    4   11 1   
    10    4   16 1   
    11    4   39 1   
    12    5    9 1   
    13    8   13 1   
    14   10   14 1   
    15   11   25 1   
    16   11   32 1   
    17   12   26 1   
    18   12   28 1   
    19   12   29 1   
    20   12   37 1   
    21   14   30 1   
    22   15   19 1   
    23   15   22 1   
    24   15   33 1   
    25   16   17 1   
    26   16   34 1   
    27   17   19 1   
    28   18   20 1   
    29   18   24 1   
    30   18   31 1   
    31   18   35 1   
    32   19   36 1   
    33   23   37 1   
    34   27   37 1   
@<TRIPOS>SUBSTRUCTURE
     1 HGS         1 TEMP              0 ****  ****    0 ROOT
