@<TRIPOS>MOLECULE
HGS
   41    34     1     0     0
SMALL
bcc


@<TRIPOS>ATOM
      1 C1          0.8280   -2.5000   -2.1820 c1        1 HGS      0.432000
      2 N1          0.8120   -0.9240    1.5760 n3        1 HGS     -0.256000
      3 C2          6.2460   -1.8020    3.7600 c2        1 HGS      0.177000
      4 N2          6.0310    0.2430    5.1950 n3        1 HGS     -0.293000
      5 C4         12.4150    1.7330    7.8490 c1        1 HGS      0.162500
      6 O11         0.9630   -2.0050   -1.1030 o         1 HGS     -0.216000
      7 O12         0.6960   -2.9900   -3.2520 o         1 HGS     -0.216000
      8 O41        10.0340    5.5260    4.7580 o         1 HGS     -0.159000
      9 O42        13.4630    1.8000    8.3630 o         1 HGS     -0.159000
     10 CA1        -0.3070   -1.0160    2.3480 c1        1 HGS     -0.181000
     11 CA2         6.1260   -1.1930    5.1450 c3        1 HGS     -0.122000
     12 CA3         9.4150    0.6720    6.2200 c3        1 HGS     -0.159000
     13 CA4         9.4810    4.5430    5.0580 c1        1 HGS      0.162500
     14 CB1        -1.2590   -1.0640    3.0760 c1        1 HGS     -0.170000
     15 CB2         2.8340    1.5350    2.1120 c2        1 HGS     -0.929000
     16 CD1         4.9450    0.9270    4.8180 c2        1 HGS      0.300000
     17 OE1         3.8630    0.3420    4.4420 os        1 HGS     -0.546000
     18 CG1         5.7730    1.0860   -0.0140 c3        1 HGS     -0.280000
     19 SG2         2.6510    0.3450    2.9780 s4        1 HGS      1.465000
     20 HN1         4.8470    0.9090   -0.6030 hc        1 HGS      0.070750
     21 HN1A        0.6080   -0.4250    0.7210 hn        1 HGS      0.196000
     22 HN2         2.2910    2.4900    2.0540 h4        1 HGS      0.206000
     23 HN3         8.1680    1.9760    7.1320 hn        1 HGS      0.165000
     24 HA1         6.6550    1.0020   -0.6870 hc        1 HGS      0.070750
     25 HA2         7.0300   -1.5000    5.7490 h1        1 HGS      0.138500
     26 HA3         9.6510    0.3670    5.1660 h1        1 HGS      0.084333
     27 HA3A        8.6250    2.4480    5.6420 hn        1 HGS      0.165000
     28 HA4         9.0590   -0.2320    6.7840 h1        1 HGS      0.084333
     29 HA4A       10.3660    1.0340    6.7020 h1        1 HGS      0.084333
     30 HB1         5.7460    2.1060    0.4280 hc        1 HGS      0.070750
     31 HB1A       -2.1010   -1.1050    3.7210 ha        1 HGS      0.248000
     32 HB2         5.2070   -1.6500    5.6210 h1        1 HGS      0.138500
     33 HB2A        3.6300    1.5590    1.3350 h4        1 HGS      0.206000
     34 HG1         4.9970    2.0400    4.8680 h5        1 HGS      0.169000
     35 HG1A        5.8560    0.3260    0.7950 hc        1 HGS      0.070750
     36 HSG2        1.6410    0.6740    3.7240 hs        1 HGS     -0.139000
     37 N3          8.3620    1.6550    6.2020 n3        1 HGS     -0.387000
     38 H13         1.1470   -1.8460    1.3330 hn        1 HGS      0.196000
     39 H22         6.8640    0.7520    5.5080 hn        1 HGS      0.310000
     40 H32         6.5940   -2.8580    3.7660 h4        1 HGS      0.126000
     41 O2          5.9620   -1.2040    2.7240 o         1 HGS     -0.285000
@<TRIPOS>BOND
     1    1    6 1   
     2    1    7 1   
     3    2   10 1   
     4    2   21 1   
     5    2   38 1   
     6    3   11 1   
     7    3   40 1   
     8    3   41 1   
     9    4   11 1   
    10    4   16 1   
    11    4   39 1   
    12    5    9 1   
    13    8   13 1   
    14   10   14 1   
    15   11   25 1   
    16   11   32 1   
    17   12   26 1   
    18   12   28 1   
    19   12   29 1   
    20   12   37 1   
    21   14   31 1   
    22   15   19 1   
    23   15   22 1   
    24   15   33 1   
    25   16   17 1   
    26   16   34 1   
    27   17   19 1   
    28   18   20 1   
    29   18   24 1   
    30   18   30 1   
    31   18   35 1   
    32   19   36 1   
    33   23   37 1   
    34   27   37 1   
@<TRIPOS>SUBSTRUCTURE
     1 HGS         1 TEMP              0 ****  ****    0 ROOT
