@<TRIPOS>MOLECULE
HGS
   41    35     1     0     0
SMALL
bcc


@<TRIPOS>ATOM
      1 C1          0.3880   -2.1760   -1.9800 c1        1 HGS      0.899000
      2 N1          1.4810   -0.4640    1.5540 n3        1 HGS     -0.728400
      3 C2          7.1700   -0.8640    2.5780 c         1 HGS      0.566900
      4 N2          6.6990    0.2280    4.7900 nh        1 HGS     -0.386100
      5 C4         11.3320    2.3540    8.4870 c1        1 HGS      0.398000
      6 O11         0.8600   -1.7970   -0.9490 o         1 HGS     -0.448500
      7 O12        -0.0770   -2.5540   -3.0010 o         1 HGS     -0.448500
      8 O41        12.7230    2.9920   10.4360 o         1 HGS     -0.398000
      9 O42        10.3380    2.4130    7.8310 o         1 HGS     -0.398000
     10 CA1         0.8860    0.6670    2.0260 c1        1 HGS     -0.109200
     11 CA2         7.4980   -0.7150    4.0520 c3        1 HGS     -0.110700
     12 CA3         7.6600    3.7340    5.3610 c3        1 HGS      0.127100
     13 CA4        11.7680    3.0010    9.7390 c1        1 HGS      0.398000
     14 CB1         0.4010    1.6540    2.5050 c1        1 HGS     -0.130500
     15 CB2         2.5840   -2.5130    3.8980 c2        1 HGS     -0.850000
     16 CD1         5.3850    0.0800    5.0090 c2        1 HGS      0.619500
     17 OE1         4.7310   -0.9460    4.6000 os        1 HGS     -0.456400
     18 CG1         4.0350   -0.3490   -0.8000 c3        1 HGS     -0.123800
     19 SG2         3.1700   -1.2050    3.5010 s4        1 HGS      0.767800
     20 HN1         1.9890   -0.2680    0.7010 hn        1 HGS      0.401800
     21 HN1A        4.7890   -0.4580   -1.6100 hc        1 HGS      0.031700
     22 HN2         2.7010   -3.5210    3.4690 h4        1 HGS      0.200500
     23 HN3         8.0380    2.4970    6.9200 hn        1 HGS      0.367800
     24 HA1         3.6260    0.6850   -0.8190 hc        1 HGS      0.031700
     25 HA2         7.3850   -1.7460    4.5080 h1        1 HGS      0.098700
     26 HA3         8.2030    4.6420    5.7420 h1        1 HGS      0.041033
     27 HA3A        9.1120    2.3680    5.7160 hn        1 HGS      0.367800
     28 HA4         7.7770    3.7010    4.2460 h1        1 HGS      0.041033
     29 HA4A        6.5720    3.8530    5.6060 h1        1 HGS      0.041033
     30 HB1        -0.0340    2.5260    2.9240 ha        1 HGS      0.188500
     31 HB1A        3.2120   -1.0800   -0.9650 hc        1 HGS      0.031700
     32 HB2         1.9140   -2.6020    4.7750 h4        1 HGS      0.200500
     33 HB2A        8.5790   -0.4050    4.1470 h1        1 HGS      0.098700
     34 HG1         4.5210   -0.5410    0.1830 hc        1 HGS      0.031700
     35 HG1A        4.8750    0.8810    5.5930 h5        1 HGS      0.038800
     36 HSG2        3.8780   -1.5040    2.4460 hs        1 HGS      0.294000
     37 N3          8.1370    2.4960    5.9210 n3        1 HGS     -0.944800
     38 H13         0.7870   -1.1710    1.3620 hn        1 HGS      0.401800
     39 H22         7.1800    1.0500    5.1610 hn        1 HGS      0.357700
     40 H32         7.9850   -1.3320    1.9820 h4        1 HGS      0.035200
     41 O2          6.0940   -0.5350    2.0820 o         1 HGS     -0.540100
@<TRIPOS>BOND
     1    1    6 2   
     2    1    7 2   
     3    2   10 1   
     4    2   20 1   
     5    2   38 1   
     6    3   11 1   
     7    3   40 1   
     8    3   41 2   
     9    4   11 1   
    10    4   16 2   
    11    4   39 1   
    12    5    9 2   
    13    5   13 2   
    14    8   13 2   
    15   10   14 3   
    16   11   25 1   
    17   11   33 1   
    18   12   26 1   
    19   12   28 1   
    20   12   29 1   
    21   12   37 1   
    22   14   30 1   
    23   15   19 2   
    24   15   22 1   
    25   15   32 1   
    26   16   17 1   
    27   16   35 1   
    28   17   19 1   
    29   18   21 1   
    30   18   24 1   
    31   18   31 1   
    32   18   34 1   
    33   19   36 1   
    34   23   37 1   
    35   27   37 1   
@<TRIPOS>SUBSTRUCTURE
     1 HGS         1 TEMP              0 ****  ****    0 ROOT
