@<TRIPOS>MOLECULE
HGT
   39    39     1     0     0
SMALL
bcc


@<TRIPOS>ATOM
      1 O2        -16.9800   -0.5300   26.1330 oh        1 HGT     -0.599800
      2 C10       -15.7380    0.1540   26.0950 c3        1 HGT      0.088100
      3 C23       -15.2720    0.5190   27.5140 c3        1 HGT      0.110100
      4 O4        -16.2100    1.3830   28.1200 oh        1 HGT     -0.599800
      5 C25       -13.8350    1.0880   27.4870 c3        1 HGT      0.125500
      6 N2        -13.7610    2.3700   26.8260 n3        1 HGT     -0.914800
      7 C2        -14.7290   -0.7660   25.3900 c3        1 HGT      0.115100
      8 C26       -14.8060   -2.2150   25.8840 c3        1 HGT      0.109400
      9 O5        -13.5350   -2.8330   25.9260 oh        1 HGT     -0.604800
     10 O1        -13.4090   -0.2520   25.4870 os        1 HGT     -0.462600
     11 C24       -12.9510   -0.0350   26.8490 c3        1 HGT      0.324300
     12 N1        -11.5490    0.3230   26.8180 n3        1 HGT     -0.807200
     13 C22       -10.6640   -0.8190   26.6690 c3        1 HGT      0.154800
     14 C21        -9.2300   -0.4240   26.2880 c3        1 HGT      0.194400
     15 O3         -9.2600    0.1510   25.0080 os        1 HGT     -0.518500
     16 SNN        -8.0160    0.7880   24.0590 s6        1 HGT      0.911800
     17 O36        -7.3160    2.2740   24.4070 oh        1 HGT     -0.675367
     18 O35        -6.9670    0.2230   25.2410 oh        1 HGT     -0.675367
     19 O34        -7.0560   -0.2470   23.0740 oh        1 HGT     -0.675367
     20 HO2       -17.5340   -0.0560   26.7690 ho        1 HGT      0.423000
     21 H10       -15.8640    1.0960   25.4890 h1        1 HGT      0.050700
     22 H23       -15.2880   -0.4020   28.1660 h1        1 HGT      0.085700
     23 HO4       -16.0960    2.2660   27.7450 ho        1 HGT      0.423000
     24 H25       -13.5060    1.2280   28.5590 h1        1 HGT      0.087700
     25 HN21      -13.8090    2.2540   25.8310 hn        1 HGT      0.361800
     26 HN22      -12.9070    2.8350   27.0620 hn        1 HGT      0.361800
     27 H2        -14.9290   -0.7410   24.2790 h1        1 HGT      0.082700
     28 H261      -15.4910   -2.7970   25.2120 h1        1 HGT      0.058200
     29 H262      -15.1950   -2.2720   26.9350 h1        1 HGT      0.058200
     30 HO5       -13.0410   -2.5400   25.1490 ho        1 HGT      0.410000
     31 H24       -13.0890   -0.9920   27.4320 h2        1 HGT      0.081700
     32 HN1       -11.3690    0.9910   26.0890 hn        1 HGT      0.376800
     33 H221      -11.0490   -1.5500   25.9000 h1        1 HGT      0.045200
     34 H222      -10.6220   -1.3490   27.6630 h1        1 HGT      0.045200
     35 H211       -8.5940   -1.3490   26.2730 h1        1 HGT      0.032700
     36 H212       -8.7980    0.3090   27.0200 h1        1 HGT      0.032700
     37 H36        -6.6520    2.3360   25.0940 ho        1 HGT      0.461000
     38 H35        -6.3700   -0.4880   25.0030 ho        1 HGT      0.461000
     39 H34        -7.3460   -0.3090   22.1720 ho        1 HGT      0.461000
@<TRIPOS>BOND
     1    1    2 1   
     2    1   20 1   
     3    2    3 1   
     4    2    7 1   
     5    2   21 1   
     6    3    4 1   
     7    3    5 1   
     8    3   22 1   
     9    4   23 1   
    10    5    6 1   
    11    5   11 1   
    12    5   24 1   
    13    6   25 1   
    14    6   26 1   
    15    7    8 1   
    16    7   10 1   
    17    7   27 1   
    18    8    9 1   
    19    8   28 1   
    20    8   29 1   
    21    9   30 1   
    22   10   11 1   
    23   11   12 1   
    24   11   31 1   
    25   12   13 1   
    26   12   32 1   
    27   13   14 1   
    28   13   33 1   
    29   13   34 1   
    30   14   15 1   
    31   14   35 1   
    32   14   36 1   
    33   15   16 1   
    34   16   17 1   
    35   16   18 1   
    36   16   19 1   
    37   17   37 1   
    38   18   38 1   
    39   19   39 1   
@<TRIPOS>SUBSTRUCTURE
     1 HGT         1 TEMP              0 ****  ****    0 ROOT
