@<TRIPOS>MOLECULE
HGT
   41    41     1     0     0
SMALL
bcc


@<TRIPOS>ATOM
      1 O2          0.6900   -0.0310    1.2970 oh        1 HGT     -0.574800
      2 C10         1.7990   -0.0550    0.4220 c3        1 HGT      0.077100
      3 C23         3.0080    0.2200    1.3490 c3        1 HGT      0.132100
      4 O4          3.0620    1.5930    1.6740 oh        1 HGT     -0.620800
      5 C25         4.3720   -0.1090    0.6680 c3        1 HGT      0.086500
      6 N2          4.7020    0.8770   -0.4000 n4        1 HGT     -0.848600
      7 C2          1.8890   -1.4050   -0.3170 c3        1 HGT      0.086100
      8 C26         1.4850   -2.6050    0.5520 c3        1 HGT      0.105400
      9 O5          2.4400   -3.6320    0.3490 oh        1 HGT     -0.645800
     10 O1          3.2130   -1.5590   -0.8590 os        1 HGT     -0.410600
     11 C24         4.2090   -1.5680    0.1570 c3        1 HGT      0.315300
     12 N1          5.4190   -2.2440   -0.4090 n4        1 HGT     -0.769000
     13 C22         5.8410   -1.8060   -1.7720 c3        1 HGT      0.071800
     14 C21         7.2360   -1.1570   -1.7930 c3        1 HGT      0.155400
     15 O3          7.3720   -0.1950   -0.7950 os        1 HGT     -0.612500
     16 SNN         8.6890   -0.0680    0.4110 s6        1 HGT      0.911800
     17 O36         7.9790   -1.5040    0.9300 oh        1 HGT     -0.652033
     18 O35         9.6870   -0.5510   -0.8210 oh        1 HGT     -0.652033
     19 O34         9.9580   -0.4910    1.4010 oh        1 HGT     -0.652033
     20 HO2        -0.1110    0.0940    0.7670 ho        1 HGT      0.451000
     21 H10         1.7220    0.7740   -0.3380 h1        1 HGT      0.066700
     22 H23         2.9180   -0.4080    2.2830 h1        1 HGT      0.114700
     23 HO4         2.2890    1.7950    2.2280 ho        1 HGT      0.485000
     24 H25         5.1900   -0.0460    1.4470 hx        1 HGT      0.139700
     25 HN21        4.5860    1.8270   -0.0110 hn        1 HGT      0.483800
     26 HN22        5.6770    0.7480   -0.7290 hn        1 HGT      0.483800
     27 H2          1.2610   -1.3770   -1.2570 h1        1 HGT      0.130700
     28 H261        1.5050   -2.3290    1.6430 h1        1 HGT      0.084700
     29 H262        0.4460   -2.9300    0.2820 h1        1 HGT      0.084700
     30 HO5         1.9670   -4.4420    0.1150 ho        1 HGT      0.454000
     31 H24         3.8920   -2.1950    1.0570 hx        1 HGT      0.161700
     32 HN1         5.1850   -3.2500   -0.4470 hn        1 HGT      0.491300
     33 H221        5.8700   -2.7180   -2.4420 hx        1 HGT      0.111200
     34 H222        5.0640   -1.1140   -2.1970 hx        1 HGT      0.111200
     35 H211        7.3560   -0.6640   -2.7990 h1        1 HGT      0.078700
     36 H212        8.0190   -1.9580   -1.6740 h1        1 HGT      0.078700
     37 H36         8.5300   -2.0460    1.5110 ho        1 HGT      0.505000
     38 H35         9.6010   -0.1130   -1.6710 ho        1 HGT      0.505000
     39 H34        10.7930   -0.8090    1.0420 ho        1 HGT      0.505000
     40 H231        4.0530    0.7640   -1.1870 hn        1 HGT      0.483800
     41 H12         6.2090   -2.1050    0.2500 hn        1 HGT      0.491300
@<TRIPOS>BOND
     1    1    2 1   
     2    1   20 1   
     3    2    3 1   
     4    2    7 1   
     5    2   21 1   
     6    3    4 1   
     7    3    5 1   
     8    3   22 1   
     9    4   23 1   
    10    5    6 1   
    11    5   11 1   
    12    5   24 1   
    13    6   25 1   
    14    6   26 1   
    15    6   40 1   
    16    7    8 1   
    17    7   10 1   
    18    7   27 1   
    19    8    9 1   
    20    8   28 1   
    21    8   29 1   
    22    9   30 1   
    23   10   11 1   
    24   11   12 1   
    25   11   31 1   
    26   12   13 1   
    27   12   32 1   
    28   12   41 1   
    29   13   14 1   
    30   13   33 1   
    31   13   34 1   
    32   14   15 1   
    33   14   35 1   
    34   14   36 1   
    35   15   16 1   
    36   16   17 1   
    37   16   18 1   
    38   16   19 1   
    39   17   37 1   
    40   18   38 1   
    41   19   39 1   
@<TRIPOS>SUBSTRUCTURE
     1 HGT         1 TEMP              0 ****  ****    0 ROOT
