@<TRIPOS>MOLECULE
HGT
   41    41     1     0     0
SMALL
bcc


@<TRIPOS>ATOM
      1 O2          0.8880   -0.2100    1.4900 oh        1 HGT     -0.575800
      2 C10         1.9630   -0.1510    0.5750 c3        1 HGT      0.077100
      3 C23         3.2140   -0.0250    1.4790 c3        1 HGT      0.132100
      4 O4          3.3080    1.2880    1.9880 oh        1 HGT     -0.617800
      5 C25         4.5390   -0.2790    0.6980 c3        1 HGT      0.087500
      6 N2          4.8490    0.8330   -0.2410 nz        1 HGT     -0.841600
      7 C2          1.9880   -1.4010   -0.3250 c3        1 HGT      0.081100
      8 C26         1.6000   -2.6910    0.4140 c3        1 HGT      0.104400
      9 O5          2.5020   -3.7120    0.0310 oh        1 HGT     -0.639800
     10 O1          3.2820   -1.5120   -0.9450 os        1 HGT     -0.410600
     11 C24         4.3220   -1.6590    0.0150 c3        1 HGT      0.315300
     12 N1          5.4960   -2.2810   -0.6810 ny        1 HGT     -0.767000
     13 C22         5.7870   -1.7930   -2.0650 c3        1 HGT      0.074800
     14 C21         7.1930   -1.1740   -2.1870 c3        1 HGT      0.181400
     15 O3          7.3560   -0.2030   -1.2050 os        1 HGT     -0.588500
     16 SNN         8.7470   -0.0940   -0.1120 s6        1 HGT      0.942800
     17 O36         7.5790    0.6830    0.8110 oh        1 HGT     -0.682367
     18 O35         8.2780   -1.6540    0.2820 oh        1 HGT     -0.682367
     19 O34         9.6090   -0.1720    1.3420 oh        1 HGT     -0.682367
     20 HO2         0.0720    0.0010    1.0110 ho        1 HGT      0.449000
     21 H10         1.8830    0.7670   -0.0730 h1        1 HGT      0.066700
     22 H23         3.1480   -0.7730    2.3210 h1        1 HGT      0.109700
     23 HO4         2.5510    1.4280    2.5820 ho        1 HGT      0.482000
     24 H25         5.3970   -0.3220    1.4380 hx        1 HGT      0.145700
     25 HN21        5.8410    0.7790   -0.5470 hn        1 HGT      0.484800
     26 HN22        4.2270    0.7950   -1.0530 hn        1 HGT      0.484800
     27 H2          1.3190   -1.2490   -1.2230 h1        1 HGT      0.128700
     28 H261        1.7050   -2.5570    1.5270 h1        1 HGT      0.086700
     29 H262        0.5340   -2.9500    0.1830 h1        1 HGT      0.086700
     30 HO5         2.0020   -4.4040   -0.4230 ho        1 HGT      0.450000
     31 H24         4.0310   -2.3890    0.8420 hx        1 HGT      0.156700
     32 HN1         6.3370   -2.1320   -0.0910 hn        1 HGT      0.484300
     33 H221        5.0060   -1.0380   -2.3620 hx        1 HGT      0.114700
     34 H222        5.7080   -2.6670   -2.7760 hx        1 HGT      0.114700
     35 H211        7.9770   -1.9760   -2.1040 h1        1 HGT      0.077700
     36 H212        7.2580   -0.6840   -3.2000 h1        1 HGT      0.077700
     37 H36         7.8770    0.9090    1.7070 ho        1 HGT      0.507667
     38 H35         8.7280   -2.0400    1.0480 ho        1 HGT      0.507667
     39 H34        10.5280    0.0690    1.3990 ho        1 HGT      0.507667
     40 H231        4.7030    1.7250    0.2570 hn        1 HGT      0.484800
     41 H12         5.2950   -3.2910   -0.7310 hn        1 HGT      0.484300
@<TRIPOS>BOND
     1    1    2 1   
     2    1   20 1   
     3    2    3 1   
     4    2    7 1   
     5    2   21 1   
     6    3    4 1   
     7    3    5 1   
     8    3   22 1   
     9    4   23 1   
    10    5    6 1   
    11    5   11 1   
    12    5   24 1   
    13    6   25 1   
    14    6   26 1   
    15    6   40 1   
    16    7    8 1   
    17    7   10 1   
    18    7   27 1   
    19    8    9 1   
    20    8   28 1   
    21    8   29 1   
    22    9   30 1   
    23   10   11 1   
    24   11   12 1   
    25   11   31 1   
    26   12   13 1   
    27   12   32 1   
    28   12   41 1   
    29   13   14 1   
    30   13   33 1   
    31   13   34 1   
    32   14   15 1   
    33   14   35 1   
    34   14   36 1   
    35   15   16 1   
    36   16   17 1   
    37   16   18 1   
    38   16   19 1   
    39   17   37 1   
    40   18   38 1   
    41   19   39 1   
@<TRIPOS>SUBSTRUCTURE
     1 HGT         1 TEMP              0 ****  ****    0 ROOT
