@<TRIPOS>MOLECULE
HGU
   12    11     1     0     0
SMALL
bcc


@<TRIPOS>ATOM
      1 O           0.0530   -0.0000    0.0240 oh        1 HGU     -0.352300
      2 N           1.3960    0.0000   -0.1710 n4        1 HGU     -0.555500
      3 C           2.0220    0.0000    1.2480 c2        1 HGU      0.619100
      4 NH1         1.4240   -0.0000    2.3640 n2        1 HGU     -0.543100
      5 NH2         3.5200   -0.0000    1.2240 n4        1 HGU     -0.818600
      6 HO         -0.4120   -0.0000   -0.8570 ho        1 HGU      0.532000
      7 HN          1.6820   -0.8570   -0.6900 hn        1 HGU      0.496800
      8 HN1         0.4220   -0.0000    2.4960 hn        1 HGU      0.569400
      9 HN21        3.8850   -0.8490    0.7600 hn        1 HGU      0.519133
     10 HN22        3.8740    0.0000    2.2100 hn        1 HGU      0.519133
     11 HN3         1.6820    0.8570   -0.6900 hn        1 HGU      0.496800
     12 HH23        3.8850    0.8480    0.7600 hn        1 HGU      0.519133
@<TRIPOS>BOND
     1    1    2 1   
     2    1    6 1   
     3    2    3 1   
     4    2    7 1   
     5    2   11 1   
     6    3    4 2   
     7    3    5 1   
     8    4    8 1   
     9    5    9 1   
    10    5   10 1   
    11    5   12 1   
@<TRIPOS>SUBSTRUCTURE
     1 HGU         1 TEMP              0 ****  ****    0 ROOT
