@<TRIPOS>MOLECULE
HGU
   10     9     1     0     0
SMALL
bcc


@<TRIPOS>ATOM
      1 O          -0.2510    0.2490   -1.8290 oh        1 HGU     -0.415300
      2 N          -0.9000    0.0070   -0.6850 nh        1 HGU     -0.570700
      3 C           0.0230    0.0270    0.4790 c2        1 HGU      0.681100
      4 NH1         1.3250   -0.0380    0.4350 n2        1 HGU     -0.840100
      5 NH2        -0.6540    0.1080    1.7350 nh        1 HGU     -0.878800
      6 HO         -0.1830   -0.6210   -2.2680 ho        1 HGU      0.428000
      7 HN         -1.5840    0.7570   -0.5740 hn        1 HGU      0.395800
      8 HN1         1.7270    0.0330   -0.4750 hn        1 HGU      0.404400
      9 HN21       -0.0390   -0.0200    2.5140 hn        1 HGU      0.397300
     10 HN22       -1.4460   -0.4990    1.7890 hn        1 HGU      0.397300
@<TRIPOS>BOND
     1    1    2 1   
     2    1    6 1   
     3    2    3 1   
     4    2    7 1   
     5    3    4 2   
     6    3    5 1   
     7    4    8 1   
     8    5    9 1   
     9    5   10 1   
@<TRIPOS>SUBSTRUCTURE
     1 HGU         1 TEMP              0 ****  ****    0 ROOT
