@<TRIPOS>MOLECULE
HGU
   12    11     1     0     0
SMALL
bcc


@<TRIPOS>ATOM
      1 O           1.5490   -0.7170   -0.7910 oh        1 HGU     -0.392300
      2 N           1.1730    0.3200   -0.0110 n4        1 HGU     -0.564500
      3 C           2.0310    0.3340    1.2840 c2        1 HGU      0.654100
      4 NH1         1.9200    1.1590    2.2330 n2        1 HGU     -0.591100
      5 NH2         3.0640   -0.7460    1.3610 n4        1 HGU     -0.796600
      6 HO          0.9980   -0.7380   -1.6210 ho        1 HGU      0.539000
      7 HN          0.1680    0.2270    0.2640 hn        1 HGU      0.509800
      8 HN1         1.2830    1.9300    2.3290 hn        1 HGU      0.564400
      9 HN21        3.7270   -0.6570    0.5700 hn        1 HGU      0.522467
     10 HN22        2.6070   -1.6740    1.3180 hn        1 HGU      0.522467
     11 HN3         1.3210    1.2270   -0.5110 hn        1 HGU      0.509800
     12 HH23        3.5910   -0.6660    2.2570 hn        1 HGU      0.522467
@<TRIPOS>BOND
     1    1    2 1   
     2    1    6 1   
     3    2    3 1   
     4    2    7 1   
     5    2   11 1   
     6    3    4 2   
     7    3    5 1   
     8    4    8 1   
     9    5    9 1   
    10    5   10 1   
    11    5   12 1   
@<TRIPOS>SUBSTRUCTURE
     1 HGU         1 TEMP              0 ****  ****    0 ROOT
