@<TRIPOS>MOLECULE
HGU
   10     8     1     0     0
SMALL
bcc


@<TRIPOS>ATOM
      1 O          -0.9850   -1.0800   -1.2550 oh        1 HGU     -0.427300
      2 N          -0.2890    0.0380   -0.9190 nh        1 HGU     -0.496500
      3 C           0.4200    0.0990    0.3450 c2        1 HGU      0.255000
      4 NH1         1.6550   -0.2500    0.4050 n1        1 HGU     -0.290000
      5 NH2        -0.2450    0.5430    1.5090 nh        1 HGU     -0.827600
      6 HO         -1.4380   -0.9320   -2.0090 ho        1 HGU      0.429000
      7 HN         -0.2390    0.7570   -1.5200 hn        1 HGU      0.384800
      8 HN1         2.0750   -0.5290   -0.3280 DU        1 HGU      0.164000
      9 HN21       -0.2670    0.0050    2.2650 hn        1 HGU      0.404300
     10 HN22       -0.6880    1.3490    1.5060 hn        1 HGU      0.404300
@<TRIPOS>BOND
     1    1    2 1   
     2    1    6 1   
     3    2    3 1   
     4    2    7 1   
     5    3    4 2   
     6    3    5 1   
     7    5    9 1   
     8    5   10 1   
@<TRIPOS>SUBSTRUCTURE
     1 HGU         1 TEMP              0 ****  ****    0 ROOT
