@<TRIPOS>MOLECULE
HGU
   12    11     1     0     0
SMALL
bcc


@<TRIPOS>ATOM
      1 O           1.4740   -0.7090   -0.7740 oh        1 HGU     -0.392300
      2 N           1.2300    0.3960   -0.0330 ny        1 HGU     -0.564500
      3 C           2.0720    0.3420    1.2710 c2        1 HGU      0.654100
      4 NH1         2.0720    1.2130    2.1850 n2        1 HGU     -0.591100
      5 NH2         2.9400   -0.8690    1.4050 nz        1 HGU     -0.796600
      6 HO          0.9340   -0.6830   -1.6110 ho        1 HGU      0.539000
      7 HN          1.5010    1.2580   -0.5610 hn        1 HGU      0.509800
      8 HN1         1.5510    2.0710    2.2410 hn        1 HGU      0.564400
      9 HN21        2.3570   -1.7250    1.3960 hn        1 HGU      0.522467
     10 HN22        3.4680   -0.8270    2.3050 hn        1 HGU      0.522467
     11 HN3         0.2200    0.4440    0.2320 hn        1 HGU      0.509800
     12 HH23        3.6140   -0.9100    0.6200 hn        1 HGU      0.522467
@<TRIPOS>BOND
     1    1    2 1   
     2    1    6 1   
     3    2    3 1   
     4    2    7 1   
     5    2   11 1   
     6    3    4 2   
     7    3    5 1   
     8    4    8 1   
     9    5    9 1   
    10    5   10 1   
    11    5   12 1   
@<TRIPOS>SUBSTRUCTURE
     1 HGU         1 TEMP              0 ****  ****    0 ROOT
