@<TRIPOS>MOLECULE
HGX
  124   123     1     0     0
SMALL
bcc


@<TRIPOS>ATOM
      1 O11        11.6020   -0.6370   -0.2980 o         1 HGX     -0.586000
      2 C11        12.1920   -1.1620    0.6530 c         1 HGX      0.656100
      3 C12        13.6700   -1.3210    0.8490 c3        1 HGX     -0.132400
      4 C13        14.3540   -1.7140   -0.4430 c3        1 HGX     -0.076400
      5 C14        15.8580   -1.7420   -0.2680 c3        1 HGX     -0.080400
      6 C15        16.5480   -2.1540   -1.5510 c3        1 HGX     -0.078400
      7 C16        18.0520   -2.1770   -1.3800 c3        1 HGX     -0.079400
      8 C17        18.7430   -2.5890   -2.6620 c3        1 HGX     -0.078400
      9 C18        20.2470   -2.6110   -2.4930 c3        1 HGX     -0.079400
     10 C19        20.9380   -3.0240   -3.7740 c3        1 HGX     -0.078400
     11 C20        22.4420   -3.0460   -3.6050 c3        1 HGX     -0.079400
     12 C21        23.1340   -3.4580   -4.8860 c3        1 HGX     -0.079400
     13 C22        24.6380   -3.4810   -4.7180 c3        1 HGX     -0.080400
     14 C23        25.3310   -3.8910   -5.9920 c3        1 HGX     -0.093100
     15 O3         11.4790   -1.6870    1.6880 os        1 HGX     -0.431900
     16 C3         10.0530   -1.5460    1.6920 c3        1 HGX      0.141400
     17 C2          9.6360   -0.3790    2.5830 c3        1 HGX      0.099100
     18 C1          8.1140   -0.1520    2.5390 c3        1 HGX      0.181400
     19 O3P         7.5920   -0.3520    1.2650 os        1 HGX     -0.588200
     20 O2         10.3280    0.7840    2.0890 os        1 HGX     -0.439900
     21 C31        10.4770    1.8340    2.9560 c         1 HGX      0.647100
     22 O31        10.1610    1.6830    4.1370 o         1 HGX     -0.545000
     23 C32        11.0510    3.0540    2.3020 c3        1 HGX     -0.117400
     24 C33         9.9690    4.1050    2.1420 c3        1 HGX     -0.109400
     25 C34        10.5120    5.3260    1.4330 c3        1 HGX     -0.068400
     26 C35         9.4390    6.3820    1.2740 c3        1 HGX     -0.083400
     27 C36         9.9660    7.5970    0.5420 c3        1 HGX     -0.077400
     28 C37         8.8900    8.6490    0.3790 c3        1 HGX     -0.080400
     29 C38         9.4140    9.8640   -0.3560 c3        1 HGX     -0.078400
     30 C39         8.3360   10.9140   -0.5210 c3        1 HGX     -0.079400
     31 C40         8.8600   12.1280   -1.2570 c3        1 HGX     -0.078400
     32 C42         7.7820   13.1780   -1.4220 c3        1 HGX     -0.079400
     33 C43         8.3050   14.3930   -2.1580 c3        1 HGX     -0.078400
     34 C44         7.2260   15.4420   -2.3230 c3        1 HGX     -0.079400
     35 C45         7.7490   16.6570   -3.0580 c3        1 HGX     -0.078400
     36 C46         6.6700   17.7060   -3.2230 c3        1 HGX     -0.079400
     37 C47         7.1920   18.9220   -3.9590 c3        1 HGX     -0.080400
     38 C48         6.1210   19.9690   -4.1260 c3        1 HGX     -0.093100
     39 O1          7.8320    2.0720    0.6650 o         1 HGX     -0.817500
     40 P1          6.8880    0.9350    0.5130 p5        1 HGX      1.446800
     41 O4          5.4420    0.9560    0.7160 o         1 HGX     -0.817500
     42 O5          7.2390    0.4430   -1.0380 os        1 HGX     -0.563200
     43 C4          8.5470    0.0540   -1.2700 c3        1 HGX      0.188400
     44 C5          9.1220    0.7690   -2.5040 c3        1 HGX      0.098800
     45 N1          9.5250    2.2090   -2.3120 n4        1 HGX     -0.579800
     46 C6         10.4080    2.3590   -1.1180 c3        1 HGX      0.074100
     47 C7         10.2740    2.6410   -3.5270 c3        1 HGX      0.074100
     48 C8          8.3180    3.0720   -2.1560 c3        1 HGX      0.074100
     49 H121       13.8650   -2.0870    1.6460 hc        1 HGX      0.080700
     50 H122       14.0650   -0.3360    1.2180 hc        1 HGX      0.080700
     51 H131       14.0750   -0.9870   -1.2510 hc        1 HGX      0.052200
     52 H132       13.9920   -2.7250   -0.7670 hc        1 HGX      0.052200
     53 H141       16.1280   -2.4590    0.5520 hc        1 HGX      0.043200
     54 H142       16.2200   -0.7280    0.0460 hc        1 HGX      0.043200
     55 H151       16.2730   -1.4400   -2.3720 hc        1 HGX      0.040700
     56 H152       16.1890   -3.1700   -1.8620 hc        1 HGX      0.040700
     57 H161       18.4110   -1.1600   -1.0690 hc        1 HGX      0.041200
     58 H162       18.3260   -2.8900   -0.5590 hc        1 HGX      0.041200
     59 H171       18.3840   -3.6060   -2.9730 hc        1 HGX      0.039700
     60 H172       18.4680   -1.8770   -3.4840 hc        1 HGX      0.039700
     61 H181       20.6060   -1.5950   -2.1820 hc        1 HGX      0.040200
     62 H182       20.5220   -3.3240   -1.6710 hc        1 HGX      0.040200
     63 H191       20.5800   -4.0410   -4.0850 hc        1 HGX      0.039200
     64 H192       20.6630   -2.3120   -4.5960 hc        1 HGX      0.039200
     65 H201       22.8010   -2.0290   -3.2940 hc        1 HGX      0.040200
     66 H202       22.7180   -3.7580   -2.7830 hc        1 HGX      0.040200
     67 H211       22.7760   -4.4760   -5.1970 hc        1 HGX      0.039200
     68 H212       22.8590   -2.7470   -5.7080 hc        1 HGX      0.039200
     69 H221       24.9110   -4.1920   -3.8940 hc        1 HGX      0.038700
     70 H222       24.9940   -2.4630   -4.4060 hc        1 HGX      0.038700
     71 H231       25.0080   -4.9130   -6.3050 hc        1 HGX      0.033033
     72 H232       26.4380   -3.9010   -5.8450 hc        1 HGX      0.033033
     73 H233       25.0910   -3.1800   -6.8180 hc        1 HGX      0.033033
     74 H31         9.6540   -1.4320    0.6520 h1        1 HGX      0.084700
     75 H32         9.6860   -2.5050    2.1470 h1        1 HGX      0.084700
     76 H2          9.9510   -0.5660    3.6470 h1        1 HGX      0.079700
     77 H11         7.9020    0.8940    2.8960 h1        1 HGX      0.049200
     78 H12         7.6390   -0.9020    3.2340 h1        1 HGX      0.049200
     79 H321       11.8820    3.4380    2.9510 hc        1 HGX      0.060200
     80 H322       11.4780    2.7810    1.3010 hc        1 HGX      0.060200
     81 H331        9.5810    4.3940    3.1540 hc        1 HGX      0.090700
     82 H332        9.1040    3.6670    1.5650 hc        1 HGX      0.090700
     83 H341       11.3770    5.7500    2.0080 hc        1 HGX      0.025700
     84 H342       10.9010    5.0310    0.4210 hc        1 HGX      0.025700
     85 H351        9.0620    6.6860    2.2860 hc        1 HGX      0.050200
     86 H352        8.5670    5.9500    0.7150 hc        1 HGX      0.050200
     87 H361       10.3510    7.2940   -0.4670 hc        1 HGX      0.033200
     88 H362       10.8330    8.0310    1.1080 hc        1 HGX      0.033200
     89 H371        8.5090    8.9560    1.3890 hc        1 HGX      0.043200
     90 H372        8.0210    8.2140   -0.1820 hc        1 HGX      0.043200
     91 H381        9.7970    9.5570   -1.3650 hc        1 HGX      0.036700
     92 H382       10.2810   10.3000    0.2070 hc        1 HGX      0.036700
     93 H391        7.4690   10.4780   -1.0840 hc        1 HGX      0.041200
     94 H392        7.9540   11.2210    0.4880 hc        1 HGX      0.041200
     95 H401        9.2430   11.8210   -2.2650 hc        1 HGX      0.038200
     96 H402        9.7260   12.5650   -0.6930 hc        1 HGX      0.038200
     97 H421        6.9150   12.7410   -1.9850 hc        1 HGX      0.040700
     98 H422        7.3980   13.4850   -0.4130 hc        1 HGX      0.040700
     99 H431        9.1710   14.8290   -1.5940 hc        1 HGX      0.038700
    100 H432        8.6880   14.0860   -3.1660 hc        1 HGX      0.038700
    101 H441        6.8430   15.7490   -1.3140 hc        1 HGX      0.040200
    102 H442        6.3600   15.0050   -2.8860 hc        1 HGX      0.040200
    103 H451        8.6150   17.0940   -2.4950 hc        1 HGX      0.039200
    104 H452        8.1330   16.3500   -4.0670 hc        1 HGX      0.039200
    105 H461        6.2870   18.0130   -2.2150 hc        1 HGX      0.039700
    106 H462        5.8040   17.2690   -3.7870 hc        1 HGX      0.039700
    107 H471        8.0590   19.3560   -3.3950 hc        1 HGX      0.038200
    108 H472        7.5770   18.6120   -4.9670 hc        1 HGX      0.038200
    109 H481        5.2590   19.5620   -4.7070 hc        1 HGX      0.032700
    110 H482        6.5270   20.8560   -4.6700 hc        1 HGX      0.032700
    111 H483        5.7430   20.3080   -3.1310 hc        1 HGX      0.032700
    112 H41         8.5680   -1.0450   -1.5340 h1        1 HGX      0.065200
    113 H42         9.2000    0.2350   -0.3670 h1        1 HGX      0.065200
    114 H51         8.3530    0.7460   -3.3250 hx        1 HGX      0.083700
    115 H52        10.0480    0.2100   -2.8200 hx        1 HGX      0.083700
    116 H61        10.9430    3.3420   -1.1810 hx        1 HGX      0.100700
    117 H62         9.7800    2.3410   -0.1720 hx        1 HGX      0.100700
    118 H63        11.1430    1.5110   -1.0870 hx        1 HGX      0.100700
    119 H71        10.5130    3.7340   -3.4500 hx        1 HGX      0.100700
    120 H72        11.2270    2.0560   -3.6060 hx        1 HGX      0.100700
    121 H73         9.6450    2.4610   -4.4380 hx        1 HGX      0.100700
    122 H81         8.6430    4.1360   -2.0250 hx        1 HGX      0.100700
    123 H82         7.6690    2.9690   -3.0620 hx        1 HGX      0.100700
    124 H83         7.7510    2.7330   -1.2320 hx        1 HGX      0.100700
@<TRIPOS>BOND
     1    1    2 2   
     2    2    3 1   
     3    2   15 1   
     4    3    4 1   
     5    3   49 1   
     6    3   50 1   
     7    4    5 1   
     8    4   51 1   
     9    4   52 1   
    10    5    6 1   
    11    5   53 1   
    12    5   54 1   
    13    6    7 1   
    14    6   55 1   
    15    6   56 1   
    16    7    8 1   
    17    7   57 1   
    18    7   58 1   
    19    8    9 1   
    20    8   59 1   
    21    8   60 1   
    22    9   10 1   
    23    9   61 1   
    24    9   62 1   
    25   10   11 1   
    26   10   63 1   
    27   10   64 1   
    28   11   12 1   
    29   11   65 1   
    30   11   66 1   
    31   12   13 1   
    32   12   67 1   
    33   12   68 1   
    34   13   14 1   
    35   13   69 1   
    36   13   70 1   
    37   14   71 1   
    38   14   72 1   
    39   14   73 1   
    40   15   16 1   
    41   16   17 1   
    42   16   74 1   
    43   16   75 1   
    44   17   18 1   
    45   17   20 1   
    46   17   76 1   
    47   18   19 1   
    48   18   77 1   
    49   18   78 1   
    50   19   40 1   
    51   20   21 1   
    52   21   22 2   
    53   21   23 1   
    54   23   24 1   
    55   23   79 1   
    56   23   80 1   
    57   24   25 1   
    58   24   81 1   
    59   24   82 1   
    60   25   26 1   
    61   25   83 1   
    62   25   84 1   
    63   26   27 1   
    64   26   85 1   
    65   26   86 1   
    66   27   28 1   
    67   27   87 1   
    68   27   88 1   
    69   28   29 1   
    70   28   89 1   
    71   28   90 1   
    72   29   30 1   
    73   29   91 1   
    74   29   92 1   
    75   30   31 1   
    76   30   93 1   
    77   30   94 1   
    78   31   32 1   
    79   31   95 1   
    80   31   96 1   
    81   32   33 1   
    82   32   97 1   
    83   32   98 1   
    84   33   34 1   
    85   33   99 1   
    86   33  100 1   
    87   34   35 1   
    88   34  101 1   
    89   34  102 1   
    90   35   36 1   
    91   35  103 1   
    92   35  104 1   
    93   36   37 1   
    94   36  105 1   
    95   36  106 1   
    96   37   38 1   
    97   37  107 1   
    98   37  108 1   
    99   38  109 1   
   100   38  110 1   
   101   38  111 1   
   102   39   40 1   
   103   40   41 1   
   104   40   42 1   
   105   42   43 1   
   106   43   44 1   
   107   43  112 1   
   108   43  113 1   
   109   44   45 1   
   110   44  114 1   
   111   44  115 1   
   112   45   46 1   
   113   45   47 1   
   114   45   48 1   
   115   46  116 1   
   116   46  117 1   
   117   46  118 1   
   118   47  119 1   
   119   47  120 1   
   120   47  121 1   
   121   48  122 1   
   122   48  123 1   
   123   48  124 1   
@<TRIPOS>SUBSTRUCTURE
     1 HGX         1 TEMP              0 ****  ****    0 ROOT
