@<TRIPOS>MOLECULE
HGX
  124   123     1     0     0
SMALL
bcc


@<TRIPOS>ATOM
      1 O11         0.8100   -0.9420   -2.0020 o         1 HGX     -0.586000
      2 C11         1.3340    0.0760   -1.5360 c         1 HGX      0.656100
      3 C12         2.0930    0.2190   -0.2510 c3        1 HGX     -0.132400
      4 C13         1.4270   -0.5550    0.8660 c3        1 HGX     -0.076400
      5 C14         2.2680   -0.5150    2.1240 c3        1 HGX     -0.080400
      6 C15         1.5990   -1.2710    3.2520 c3        1 HGX     -0.078400
      7 C16         2.4410   -1.2370    4.5090 c3        1 HGX     -0.079400
      8 C17         1.7730   -1.9920    5.6380 c3        1 HGX     -0.078400
      9 C18         2.6150   -1.9590    6.8950 c3        1 HGX     -0.079400
     10 C19         1.9460   -2.7140    8.0240 c3        1 HGX     -0.078400
     11 C20         2.7880   -2.6800    9.2820 c3        1 HGX     -0.079400
     12 C21         2.1190   -3.4350   10.4110 c3        1 HGX     -0.079400
     13 C22         2.9610   -3.4020   11.6690 c3        1 HGX     -0.080400
     14 C23         2.2990   -4.1520   12.7960 c3        1 HGX     -0.093100
     15 O3          1.2500    1.2540   -2.2160 os        1 HGX     -0.431900
     16 C3          0.6240    1.2710   -3.5030 c3        1 HGX      0.141400
     17 C2          1.6760    1.2240   -4.6080 c3        1 HGX      0.099100
     18 C1          1.0280    1.1560   -6.0020 c3        1 HGX      0.181400
     19 O3P        -0.1110    0.3560   -6.0110 os        1 HGX     -0.588200
     20 O2          2.4710    0.0470   -4.3710 os        1 HGX     -0.439900
     21 C31         3.7200    0.0150   -4.9310 c         1 HGX      0.647100
     22 O31         4.1600    1.0330   -5.4680 o         1 HGX     -0.545000
     23 C32         4.3980   -1.3120   -4.7740 c3        1 HGX     -0.117400
     24 C33         4.4230   -2.0330   -6.1080 c3        1 HGX     -0.109400
     25 C34         5.0530   -3.4010   -5.9640 c3        1 HGX     -0.068400
     26 C35         5.0880   -4.1250   -7.2930 c3        1 HGX     -0.083400
     27 C36         5.6930   -5.5050   -7.1540 c3        1 HGX     -0.077400
     28 C37         5.7200   -6.2290   -8.4820 c3        1 HGX     -0.080400
     29 C38         6.3210   -7.6120   -8.3440 c3        1 HGX     -0.078400
     30 C39         6.3450   -8.3360   -9.6730 c3        1 HGX     -0.079400
     31 C40         6.9460   -9.7180   -9.5350 c3        1 HGX     -0.078400
     32 C42         6.9690  -10.4420  -10.8640 c3        1 HGX     -0.079400
     33 C43         7.5700  -11.8250  -10.7270 c3        1 HGX     -0.078400
     34 C44         7.5920  -12.5490  -12.0560 c3        1 HGX     -0.079400
     35 C45         8.1930  -13.9310  -11.9190 c3        1 HGX     -0.078400
     36 C46         8.2150  -14.6550  -13.2480 c3        1 HGX     -0.079400
     37 C47         8.8160  -16.0380  -13.1120 c3        1 HGX     -0.080400
     38 C48         8.8400  -16.7620  -14.4330 c3        1 HGX     -0.093100
     39 O1          1.1910   -1.6840   -6.6700 o         1 HGX     -0.817500
     40 P1         -0.0930   -0.9950   -6.9560 p5        1 HGX      1.446800
     41 O4         -0.6890   -0.7490   -8.2660 o         1 HGX     -0.817500
     42 O5         -1.1390   -1.8800   -6.0110 os        1 HGX     -0.563200
     43 C4         -0.8620   -1.9020   -4.6540 c3        1 HGX      0.188400
     44 C5         -0.8450   -3.3430   -4.1200 c3        1 HGX      0.098800
     45 N1          0.3820   -4.1580   -4.4400 n4        1 HGX     -0.579800
     46 C6          1.6240   -3.4130   -4.0780 c3        1 HGX      0.074100
     47 C7          0.3200   -5.4160   -3.6400 c3        1 HGX      0.074100
     48 C8          0.4120   -4.5090   -5.8900 c3        1 HGX      0.074100
     49 H121        3.1310   -0.1680   -0.4320 hc        1 HGX      0.080700
     50 H122        2.1760    1.3050    0.0190 hc        1 HGX      0.080700
     51 H131        0.4140   -0.1200    1.0740 hc        1 HGX      0.052200
     52 H132        1.2700   -1.6190    0.5430 hc        1 HGX      0.052200
     53 H141        2.4340    0.5510    2.4320 hc        1 HGX      0.043200
     54 H142        3.2770   -0.9610    1.9180 hc        1 HGX      0.043200
     55 H151        1.4290   -2.3360    2.9420 hc        1 HGX      0.040700
     56 H152        0.5930   -0.8230    3.4610 hc        1 HGX      0.040700
     57 H161        3.4480   -1.6860    4.3010 hc        1 HGX      0.041200
     58 H162        2.6120   -0.1720    4.8190 hc        1 HGX      0.041200
     59 H171        1.6010   -3.0570    5.3290 hc        1 HGX      0.039700
     60 H172        0.7660   -1.5430    5.8470 hc        1 HGX      0.039700
     61 H181        3.6210   -2.4090    6.6860 hc        1 HGX      0.040200
     62 H182        2.7860   -0.8940    7.2050 hc        1 HGX      0.040200
     63 H191        0.9400   -2.2640    8.2330 hc        1 HGX      0.039200
     64 H192        1.7740   -3.7790    7.7150 hc        1 HGX      0.039200
     65 H201        3.7940   -3.1300    9.0730 hc        1 HGX      0.040200
     66 H202        2.9600   -1.6160    9.5910 hc        1 HGX      0.040200
     67 H211        1.1130   -2.9850   10.6200 hc        1 HGX      0.039200
     68 H212        1.9470   -4.5000   10.1020 hc        1 HGX      0.039200
     69 H221        3.1330   -2.3370   11.9760 hc        1 HGX      0.038700
     70 H222        3.9670   -3.8510   11.4570 hc        1 HGX      0.038700
     71 H231        2.9350   -4.1150   13.7130 hc        1 HGX      0.033033
     72 H232        1.3050   -3.7040   13.0380 hc        1 HGX      0.033033
     73 H233        2.1410   -5.2230   12.5190 hc        1 HGX      0.033033
     74 H31         0.0990    2.2640   -3.5390 h1        1 HGX      0.084700
     75 H32        -0.1160    0.4370   -3.6060 h1        1 HGX      0.084700
     76 H2          2.3420    2.1300   -4.5550 h1        1 HGX      0.079700
     77 H11         1.7930    0.7660   -6.7300 h1        1 HGX      0.049200
     78 H12         0.7210    2.2030   -6.2860 h1        1 HGX      0.049200
     79 H321        5.4410   -1.1290   -4.4040 hc        1 HGX      0.060200
     80 H322        3.8520   -1.9280   -4.0120 hc        1 HGX      0.060200
     81 H331        3.3710   -2.1240   -6.5060 hc        1 HGX      0.090700
     82 H332        5.0050   -1.4230   -6.8480 hc        1 HGX      0.090700
     83 H341        6.0960   -3.3020   -5.5610 hc        1 HGX      0.025700
     84 H342        4.4690   -4.0080   -5.2210 hc        1 HGX      0.025700
     85 H351        5.6840   -3.5250   -8.0300 hc        1 HGX      0.050200
     86 H352        4.0460   -4.2060   -7.7040 hc        1 HGX      0.050200
     87 H361        5.1010   -6.1040   -6.4120 hc        1 HGX      0.033200
     88 H362        6.7370   -5.4200   -6.7510 hc        1 HGX      0.033200
     89 H371        4.6770   -6.3110   -8.8880 hc        1 HGX      0.043200
     90 H372        6.3150   -5.6330   -9.2230 hc        1 HGX      0.043200
     91 H381        5.7280   -8.2080   -7.6020 hc        1 HGX      0.036700
     92 H382        7.3650   -7.5290   -7.9420 hc        1 HGX      0.036700
     93 H391        6.9390   -7.7390  -10.4150 hc        1 HGX      0.041200
     94 H392        5.3010   -8.4170  -10.0760 hc        1 HGX      0.041200
     95 H401        7.9900   -9.6360   -9.1340 hc        1 HGX      0.038200
     96 H402        6.3530  -10.3140   -8.7920 hc        1 HGX      0.038200
     97 H421        5.9240  -10.5240  -11.2660 hc        1 HGX      0.040700
     98 H422        7.5620   -9.8460  -11.6070 hc        1 HGX      0.040700
     99 H431        6.9760  -12.4200   -9.9840 hc        1 HGX      0.038700
    100 H432        8.6140  -11.7420  -10.3260 hc        1 HGX      0.038700
    101 H441        6.5470  -12.6300  -12.4570 hc        1 HGX      0.040200
    102 H442        8.1850  -11.9530  -12.7990 hc        1 HGX      0.040200
    103 H451        9.2380  -13.8490  -11.5180 hc        1 HGX      0.039200
    104 H452        7.6000  -14.5270  -11.1760 hc        1 HGX      0.039200
    105 H461        8.8080  -14.0590  -13.9910 hc        1 HGX      0.039700
    106 H462        7.1700  -14.7370  -13.6490 hc        1 HGX      0.039700
    107 H471        9.8600  -15.9530  -12.7100 hc        1 HGX      0.038200
    108 H472        8.2230  -16.6310  -12.3680 hc        1 HGX      0.038200
    109 H481        9.4470  -16.1980  -15.1820 hc        1 HGX      0.032700
    110 H482        9.2860  -17.7790  -14.3110 hc        1 HGX      0.032700
    111 H483        7.8050  -16.8780  -14.8390 hc        1 HGX      0.032700
    112 H41         0.1110   -1.3810   -4.4220 h1        1 HGX      0.065200
    113 H42        -1.7030   -1.3930   -4.0960 h1        1 HGX      0.065200
    114 H51        -1.7300   -3.8960   -4.5430 hx        1 HGX      0.083700
    115 H52        -0.9180   -3.2900   -2.9970 hx        1 HGX      0.083700
    116 H61         2.4790   -4.1350   -4.0180 hx        1 HGX      0.100700
    117 H62         1.4760   -2.8960   -3.0920 hx        1 HGX      0.100700
    118 H63         1.8520   -2.6360   -4.8740 hx        1 HGX      0.100700
    119 H71         1.1770   -6.0800   -3.9220 hx        1 HGX      0.100700
    120 H72        -0.6460   -5.9440   -3.8510 hx        1 HGX      0.100700
    121 H73         0.3830   -5.1670   -2.5490 hx        1 HGX      0.100700
    122 H81         0.4550   -3.5460   -6.4920 hx        1 HGX      0.100700
    123 H82         1.3260   -5.1200   -6.1000 hx        1 HGX      0.100700
    124 H83        -0.5130   -5.0820   -6.1520 hx        1 HGX      0.100700
@<TRIPOS>BOND
     1    1    2 2   
     2    2    3 1   
     3    2   15 1   
     4    3    4 1   
     5    3   49 1   
     6    3   50 1   
     7    4    5 1   
     8    4   51 1   
     9    4   52 1   
    10    5    6 1   
    11    5   53 1   
    12    5   54 1   
    13    6    7 1   
    14    6   55 1   
    15    6   56 1   
    16    7    8 1   
    17    7   57 1   
    18    7   58 1   
    19    8    9 1   
    20    8   59 1   
    21    8   60 1   
    22    9   10 1   
    23    9   61 1   
    24    9   62 1   
    25   10   11 1   
    26   10   63 1   
    27   10   64 1   
    28   11   12 1   
    29   11   65 1   
    30   11   66 1   
    31   12   13 1   
    32   12   67 1   
    33   12   68 1   
    34   13   14 1   
    35   13   69 1   
    36   13   70 1   
    37   14   71 1   
    38   14   72 1   
    39   14   73 1   
    40   15   16 1   
    41   16   17 1   
    42   16   74 1   
    43   16   75 1   
    44   17   18 1   
    45   17   20 1   
    46   17   76 1   
    47   18   19 1   
    48   18   77 1   
    49   18   78 1   
    50   19   40 1   
    51   20   21 1   
    52   21   22 2   
    53   21   23 1   
    54   23   24 1   
    55   23   79 1   
    56   23   80 1   
    57   24   25 1   
    58   24   81 1   
    59   24   82 1   
    60   25   26 1   
    61   25   83 1   
    62   25   84 1   
    63   26   27 1   
    64   26   85 1   
    65   26   86 1   
    66   27   28 1   
    67   27   87 1   
    68   27   88 1   
    69   28   29 1   
    70   28   89 1   
    71   28   90 1   
    72   29   30 1   
    73   29   91 1   
    74   29   92 1   
    75   30   31 1   
    76   30   93 1   
    77   30   94 1   
    78   31   32 1   
    79   31   95 1   
    80   31   96 1   
    81   32   33 1   
    82   32   97 1   
    83   32   98 1   
    84   33   34 1   
    85   33   99 1   
    86   33  100 1   
    87   34   35 1   
    88   34  101 1   
    89   34  102 1   
    90   35   36 1   
    91   35  103 1   
    92   35  104 1   
    93   36   37 1   
    94   36  105 1   
    95   36  106 1   
    96   37   38 1   
    97   37  107 1   
    98   37  108 1   
    99   38  109 1   
   100   38  110 1   
   101   38  111 1   
   102   39   40 1   
   103   40   41 1   
   104   40   42 1   
   105   42   43 1   
   106   43   44 1   
   107   43  112 1   
   108   43  113 1   
   109   44   45 1   
   110   44  114 1   
   111   44  115 1   
   112   45   46 1   
   113   45   47 1   
   114   45   48 1   
   115   46  116 1   
   116   46  117 1   
   117   46  118 1   
   118   47  119 1   
   119   47  120 1   
   120   47  121 1   
   121   48  122 1   
   122   48  123 1   
   123   48  124 1   
@<TRIPOS>SUBSTRUCTURE
     1 HGX         1 TEMP              0 ****  ****    0 ROOT
