@<TRIPOS>MOLECULE
HGX
  124   123     1     0     0
SMALL
bcc


@<TRIPOS>ATOM
      1 O11         0.8760   -0.9600   -1.9840 o         1 HGX     -0.586000
      2 C11         1.4090    0.0500   -1.5120 c         1 HGX      0.656100
      3 C12         2.1660    0.1780   -0.2240 c3        1 HGX     -0.132400
      4 C13         1.4680   -0.5660    0.8960 c3        1 HGX     -0.076400
      5 C14         2.3030   -0.5410    2.1580 c3        1 HGX     -0.080400
      6 C15         1.6010   -1.2630    3.2890 c3        1 HGX     -0.078400
      7 C16         2.4350   -1.2430    4.5520 c3        1 HGX     -0.079400
      8 C17         1.7330   -1.9620    5.6840 c3        1 HGX     -0.078400
      9 C18         2.5660   -1.9420    6.9480 c3        1 HGX     -0.079400
     10 C19         1.8640   -2.6600    8.0800 c3        1 HGX     -0.078400
     11 C20         2.6970   -2.6390    9.3440 c3        1 HGX     -0.079400
     12 C21         1.9950   -3.3560   10.4770 c3        1 HGX     -0.079400
     13 C22         2.8270   -3.3360   11.7420 c3        1 HGX     -0.080400
     14 C23         2.1310   -4.0480   12.8730 c3        1 HGX     -0.093100
     15 O3          1.3390    1.2320   -2.1850 os        1 HGX     -0.431900
     16 C3          0.7140    1.2630   -3.4730 c3        1 HGX      0.141400
     17 C2          1.7660    1.2120   -4.5780 c3        1 HGX      0.099100
     18 C1          1.1180    1.1590   -5.9720 c3        1 HGX      0.181400
     19 O3P        -0.0290    0.3720   -5.9870 os        1 HGX     -0.588200
     20 O2          2.5490    0.0250   -4.3470 os        1 HGX     -0.439900
     21 C31         3.7990   -0.0160   -4.9050 c         1 HGX      0.647100
     22 O31         4.2490    1.0010   -5.4350 o         1 HGX     -0.545000
     23 C32         4.4620   -1.3510   -4.7580 c3        1 HGX     -0.117400
     24 C33         4.4810   -2.0630   -6.0970 c3        1 HGX     -0.109400
     25 C34         5.0960   -3.4380   -5.9630 c3        1 HGX     -0.068400
     26 C35         5.1240   -4.1520   -7.2980 c3        1 HGX     -0.083400
     27 C36         5.7150   -5.5390   -7.1690 c3        1 HGX     -0.077400
     28 C37         5.7360   -6.2530   -8.5040 c3        1 HGX     -0.080400
     29 C38         6.3240   -7.6420   -8.3770 c3        1 HGX     -0.078400
     30 C39         6.3420   -8.3550   -9.7120 c3        1 HGX     -0.079400
     31 C40         6.9290   -9.7440   -9.5860 c3        1 HGX     -0.078400
     32 C42         6.9470  -10.4560  -10.9210 c3        1 HGX     -0.079400
     33 C43         7.5350  -11.8450  -10.7960 c3        1 HGX     -0.078400
     34 C44         7.5520  -12.5570  -12.1320 c3        1 HGX     -0.079400
     35 C45         8.1400  -13.9460  -12.0070 c3        1 HGX     -0.078400
     36 C46         8.1570  -14.6580  -13.3420 c3        1 HGX     -0.079400
     37 C47         8.7450  -16.0470  -13.2190 c3        1 HGX     -0.080400
     38 C48         8.7640  -16.7600  -14.5470 c3        1 HGX     -0.093100
     39 O1          1.2520   -1.6780   -6.6580 o         1 HGX     -0.817500
     40 P1         -0.0250   -0.9740   -6.9400 p5        1 HGX      1.446800
     41 O4         -0.6180   -0.7130   -8.2480 o         1 HGX     -0.817500
     42 O5         -1.0800   -1.8540   -6.0010 os        1 HGX     -0.563200
     43 C4         -0.8040   -1.8870   -4.6440 c3        1 HGX      0.188400
     44 C5         -0.8020   -3.3310   -4.1190 c3        1 HGX      0.098800
     45 N1          0.4170   -4.1570   -4.4440 n4        1 HGX     -0.579800
     46 C6          1.6660   -3.4270   -4.0760 c3        1 HGX      0.074100
     47 C7          0.3410   -5.4180   -3.6510 c3        1 HGX      0.074100
     48 C8          0.4440   -4.4990   -5.8950 c3        1 HGX      0.074100
     49 H121        3.1920   -0.2460   -0.3960 hc        1 HGX      0.080700
     50 H122        2.2840    1.2630    0.0390 hc        1 HGX      0.080700
     51 H131        1.2800   -1.6260    0.5810 hc        1 HGX      0.052200
     52 H132        0.4690   -0.0960    1.0930 hc        1 HGX      0.052200
     53 H141        2.5020    0.5220    2.4580 hc        1 HGX      0.043200
     54 H142        3.2970   -1.0220    1.9640 hc        1 HGX      0.043200
     55 H151        1.3980   -2.3250    2.9890 hc        1 HGX      0.040700
     56 H152        0.6080   -0.7790    3.4860 hc        1 HGX      0.040700
     57 H161        3.4270   -1.7280    4.3560 hc        1 HGX      0.041200
     58 H162        2.6400   -0.1810    4.8510 hc        1 HGX      0.041200
     59 H171        1.5280   -3.0240    5.3860 hc        1 HGX      0.039700
     60 H172        0.7410   -1.4760    5.8800 hc        1 HGX      0.039700
     61 H181        2.7720   -0.8800    7.2460 hc        1 HGX      0.040200
     62 H182        3.5580   -2.4280    6.7520 hc        1 HGX      0.040200
     63 H191        0.8720   -2.1730    8.2760 hc        1 HGX      0.039200
     64 H192        1.6580   -3.7220    7.7830 hc        1 HGX      0.039200
     65 H201        3.6890   -3.1260    9.1490 hc        1 HGX      0.039700
     66 H202        2.9030   -1.5770    9.6410 hc        1 HGX      0.039700
     67 H211        1.7890   -4.4180   10.1800 hc        1 HGX      0.039200
     68 H212        1.0030   -2.8690   10.6730 hc        1 HGX      0.039200
     69 H221        3.0330   -2.2730   12.0360 hc        1 HGX      0.038700
     70 H222        3.8190   -3.8210   11.5440 hc        1 HGX      0.038700
     71 H231        1.1510   -3.5630   13.1010 hc        1 HGX      0.033033
     72 H232        1.9390   -5.1160   12.6080 hc        1 HGX      0.033033
     73 H233        2.7610   -4.0210   13.7940 hc        1 HGX      0.033033
     74 H31        -0.0340    0.4370   -3.5810 h1        1 HGX      0.084700
     75 H32         0.2000    2.2610   -3.5030 h1        1 HGX      0.084700
     76 H2          2.4420    2.1100   -4.5180 h1        1 HGX      0.079700
     77 H11         0.8240    2.2120   -6.2500 h1        1 HGX      0.049200
     78 H12         1.8800    0.7660   -6.7020 h1        1 HGX      0.049200
     79 H321        3.9090   -1.9670   -4.0000 hc        1 HGX      0.060200
     80 H322        5.5060   -1.1820   -4.3860 hc        1 HGX      0.060200
     81 H331        3.4280   -2.1400   -6.4960 hc        1 HGX      0.090700
     82 H332        5.0690   -1.4530   -6.8330 hc        1 HGX      0.090700
     83 H341        4.5050   -4.0450   -5.2260 hc        1 HGX      0.025700
     84 H342        6.1390   -3.3540   -5.5590 hc        1 HGX      0.025700
     85 H351        4.0820   -4.2190   -7.7100 hc        1 HGX      0.049700
     86 H352        5.7280   -3.5520   -8.0300 hc        1 HGX      0.049700
     87 H361        5.1170   -6.1380   -6.4330 hc        1 HGX      0.033200
     88 H362        6.7590   -5.4680   -6.7640 hc        1 HGX      0.033200
     89 H371        4.6930   -6.3210   -8.9110 hc        1 HGX      0.043200
     90 H372        6.3380   -5.6560   -9.2390 hc        1 HGX      0.043200
     91 H381        7.3680   -7.5730   -7.9730 hc        1 HGX      0.036700
     92 H382        5.7230   -8.2390   -7.6400 hc        1 HGX      0.036700
     93 H391        5.2980   -8.4230  -10.1170 hc        1 HGX      0.041200
     94 H392        6.9430   -7.7580  -10.4480 hc        1 HGX      0.041200
     95 H401        6.3300  -10.3410   -8.8490 hc        1 HGX      0.038200
     96 H402        7.9740   -9.6750   -9.1820 hc        1 HGX      0.038200
     97 H421        5.9020  -10.5250  -11.3250 hc        1 HGX      0.040700
     98 H422        7.5470   -9.8590  -11.6580 hc        1 HGX      0.040700
     99 H431        8.5790  -11.7770  -10.3930 hc        1 HGX      0.038700
    100 H432        6.9350  -12.4420  -10.0590 hc        1 HGX      0.038700
    101 H441        8.1510  -11.9600  -12.8680 hc        1 HGX      0.040200
    102 H442        6.5070  -12.6260  -12.5350 hc        1 HGX      0.040200
    103 H451        7.5400  -14.5440  -11.2700 hc        1 HGX      0.039200
    104 H452        9.1850  -13.8770  -11.6040 hc        1 HGX      0.039200
    105 H461        8.7560  -14.0610  -14.0790 hc        1 HGX      0.039700
    106 H462        7.1120  -14.7270  -13.7460 hc        1 HGX      0.039700
    107 H471        9.7900  -15.9760  -12.8150 hc        1 HGX      0.038200
    108 H472        8.1460  -16.6430  -12.4810 hc        1 HGX      0.038200
    109 H481        9.3780  -16.1940  -15.2890 hc        1 HGX      0.032700
    110 H482        9.2010  -17.7810  -14.4340 hc        1 HGX      0.032700
    111 H483        7.7300  -16.8620  -14.9550 hc        1 HGX      0.032700
    112 H41        -1.6400   -1.3730   -4.0830 h1        1 HGX      0.065200
    113 H42         0.1750   -1.3770   -4.4090 h1        1 HGX      0.065200
    114 H51        -0.8750   -3.2850   -2.9950 hx        1 HGX      0.083700
    115 H52        -1.6920   -3.8720   -4.5450 hx        1 HGX      0.083700
    116 H61         1.5220   -2.9140   -3.0870 hx        1 HGX      0.100700
    117 H62         1.9020   -2.6480   -4.8680 hx        1 HGX      0.100700
    118 H63         2.5130   -4.1580   -4.0200 hx        1 HGX      0.100700
    119 H71        -0.6310   -5.9360   -3.8660 hx        1 HGX      0.100700
    120 H72         1.1910   -6.0900   -3.9370 hx        1 HGX      0.100700
    121 H73         0.4060   -5.1770   -2.5580 hx        1 HGX      0.100700
    122 H81        -0.4870   -5.0620   -6.1610 hx        1 HGX      0.100700
    123 H82         1.3510   -5.1190   -6.1090 hx        1 HGX      0.100700
    124 H83         0.4970   -3.5330   -6.4920 hx        1 HGX      0.100700
@<TRIPOS>BOND
     1    1    2 2   
     2    2    3 1   
     3    2   15 1   
     4    3    4 1   
     5    3   49 1   
     6    3   50 1   
     7    4    5 1   
     8    4   51 1   
     9    4   52 1   
    10    5    6 1   
    11    5   53 1   
    12    5   54 1   
    13    6    7 1   
    14    6   55 1   
    15    6   56 1   
    16    7    8 1   
    17    7   57 1   
    18    7   58 1   
    19    8    9 1   
    20    8   59 1   
    21    8   60 1   
    22    9   10 1   
    23    9   61 1   
    24    9   62 1   
    25   10   11 1   
    26   10   63 1   
    27   10   64 1   
    28   11   12 1   
    29   11   65 1   
    30   11   66 1   
    31   12   13 1   
    32   12   67 1   
    33   12   68 1   
    34   13   14 1   
    35   13   69 1   
    36   13   70 1   
    37   14   71 1   
    38   14   72 1   
    39   14   73 1   
    40   15   16 1   
    41   16   17 1   
    42   16   74 1   
    43   16   75 1   
    44   17   18 1   
    45   17   20 1   
    46   17   76 1   
    47   18   19 1   
    48   18   77 1   
    49   18   78 1   
    50   19   40 1   
    51   20   21 1   
    52   21   22 2   
    53   21   23 1   
    54   23   24 1   
    55   23   79 1   
    56   23   80 1   
    57   24   25 1   
    58   24   81 1   
    59   24   82 1   
    60   25   26 1   
    61   25   83 1   
    62   25   84 1   
    63   26   27 1   
    64   26   85 1   
    65   26   86 1   
    66   27   28 1   
    67   27   87 1   
    68   27   88 1   
    69   28   29 1   
    70   28   89 1   
    71   28   90 1   
    72   29   30 1   
    73   29   91 1   
    74   29   92 1   
    75   30   31 1   
    76   30   93 1   
    77   30   94 1   
    78   31   32 1   
    79   31   95 1   
    80   31   96 1   
    81   32   33 1   
    82   32   97 1   
    83   32   98 1   
    84   33   34 1   
    85   33   99 1   
    86   33  100 1   
    87   34   35 1   
    88   34  101 1   
    89   34  102 1   
    90   35   36 1   
    91   35  103 1   
    92   35  104 1   
    93   36   37 1   
    94   36  105 1   
    95   36  106 1   
    96   37   38 1   
    97   37  107 1   
    98   37  108 1   
    99   38  109 1   
   100   38  110 1   
   101   38  111 1   
   102   39   40 1   
   103   40   41 1   
   104   40   42 1   
   105   42   43 1   
   106   43   44 1   
   107   43  112 1   
   108   43  113 1   
   109   44   45 1   
   110   44  114 1   
   111   44  115 1   
   112   45   46 1   
   113   45   47 1   
   114   45   48 1   
   115   46  116 1   
   116   46  117 1   
   117   46  118 1   
   118   47  119 1   
   119   47  120 1   
   120   47  121 1   
   121   48  122 1   
   122   48  123 1   
   123   48  124 1   
@<TRIPOS>SUBSTRUCTURE
     1 HGX         1 TEMP              0 ****  ****    0 ROOT
