@<TRIPOS>MOLECULE
HGX
  124   123     1     0     0
SMALL
bcc


@<TRIPOS>ATOM
      1 O11         0.9280   -0.9850   -1.9630 o         1 HGX     -0.586000
      2 C11         1.4690    0.0190   -1.4860 c         1 HGX      0.656100
      3 C12         2.2270    0.1360   -0.1980 c3        1 HGX     -0.132400
      4 C13         1.5060   -0.5800    0.9250 c3        1 HGX     -0.076400
      5 C14         2.3360   -0.5650    2.1910 c3        1 HGX     -0.080400
      6 C15         1.6110   -1.2580    3.3250 c3        1 HGX     -0.078400
      7 C16         2.4390   -1.2460    4.5920 c3        1 HGX     -0.079400
      8 C17         1.7130   -1.9340    5.7290 c3        1 HGX     -0.078400
      9 C18         2.5400   -1.9200    6.9960 c3        1 HGX     -0.079400
     10 C19         1.8130   -2.6060    8.1330 c3        1 HGX     -0.078400
     11 C20         2.6390   -2.5910    9.4020 c3        1 HGX     -0.079400
     12 C21         1.9120   -3.2760   10.5390 c3        1 HGX     -0.079400
     13 C22         2.7370   -3.2620   11.8080 c3        1 HGX     -0.080400
     14 C23         2.0170   -3.9420   12.9440 c3        1 HGX     -0.093100
     15 O3          1.4080    1.2050   -2.1550 os        1 HGX     -0.431900
     16 C3          0.7800    1.2470   -3.4420 c3        1 HGX      0.141400
     17 C2          1.8300    1.1930   -4.5480 c3        1 HGX      0.099100
     18 C1          1.1790    1.1530   -5.9420 c3        1 HGX      0.181400
     19 O3P         0.0260    0.3740   -5.9580 os        1 HGX     -0.588200
     20 O2          2.6040   -0.0000   -4.3250 os        1 HGX     -0.439900
     21 C31         3.8530   -0.0470   -4.8860 c         1 HGX      0.647100
     22 O31         4.3110    0.9710   -5.4100 o         1 HGX     -0.545000
     23 C32         4.5070   -1.3880   -4.7480 c3        1 HGX     -0.117400
     24 C33         4.5180   -2.0910   -6.0910 c3        1 HGX     -0.109400
     25 C34         5.1240   -3.4720   -5.9670 c3        1 HGX     -0.068400
     26 C35         5.1450   -4.1760   -7.3070 c3        1 HGX     -0.083400
     27 C36         5.7270   -5.5680   -7.1890 c3        1 HGX     -0.077400
     28 C37         5.7410   -6.2720   -8.5290 c3        1 HGX     -0.080400
     29 C38         6.3210   -7.6650   -8.4130 c3        1 HGX     -0.078400
     30 C39         6.3330   -8.3680   -9.7540 c3        1 HGX     -0.079400
     31 C40         6.9140   -9.7610   -9.6390 c3        1 HGX     -0.078400
     32 C42         6.9250  -10.4640  -10.9800 c3        1 HGX     -0.079400
     33 C43         7.5060  -11.8570  -10.8660 c3        1 HGX     -0.078400
     34 C44         7.5160  -12.5590  -12.2070 c3        1 HGX     -0.079400
     35 C45         8.0980  -13.9520  -12.0940 c3        1 HGX     -0.078400
     36 C46         8.1070  -14.6550  -13.4340 c3        1 HGX     -0.079400
     37 C47         8.6880  -16.0480  -13.3220 c3        1 HGX     -0.080400
     38 C48         8.6990  -16.7510  -14.6550 c3        1 HGX     -0.093100
     39 O1          1.2910   -1.6810   -6.6430 o         1 HGX     -0.817500
     40 P1          0.0180   -0.9670   -6.9180 p5        1 HGX      1.446800
     41 O4         -0.5760   -0.6950   -8.2240 o         1 HGX     -0.817500
     42 O5         -1.0410   -1.8440   -5.9800 os        1 HGX     -0.563200
     43 C4         -0.7620   -1.8860   -4.6250 c3        1 HGX      0.188400
     44 C5         -0.7700   -3.3330   -4.1060 c3        1 HGX      0.098800
     45 N1          0.4420   -4.1650   -4.4390 n4        1 HGX     -0.579800
     46 C6          1.6980   -3.4470   -4.0700 c3        1 HGX      0.074100
     47 C7          0.3590   -5.4310   -3.6520 c3        1 HGX      0.074100
     48 C8          0.4630   -4.5010   -5.8920 c3        1 HGX      0.074100
     49 H121        2.3730    1.2190    0.0580 hc        1 HGX      0.080200
     50 H122        3.2410   -0.3170   -0.3650 hc        1 HGX      0.080200
     51 H131        1.2930   -1.6380    0.6180 hc        1 HGX      0.052200
     52 H132        0.5180   -0.0830    1.1150 hc        1 HGX      0.052200
     53 H141        2.5630    0.4950    2.4810 hc        1 HGX      0.043200
     54 H142        3.3180   -1.0750    2.0050 hc        1 HGX      0.043200
     55 H151        1.3820   -2.3170    3.0350 hc        1 HGX      0.040700
     56 H152        0.6300   -0.7460    3.5120 hc        1 HGX      0.040700
     57 H161        3.4190   -1.7590    4.4070 hc        1 HGX      0.041200
     58 H162        2.6710   -0.1860    4.8810 hc        1 HGX      0.041200
     59 H171        1.4820   -2.9930    5.4410 hc        1 HGX      0.039700
     60 H172        0.7330   -1.4200    5.9140 hc        1 HGX      0.039700
     61 H181        3.5200   -2.4350    6.8120 hc        1 HGX      0.040200
     62 H182        2.7720   -0.8610    7.2830 hc        1 HGX      0.040200
     63 H191        1.5810   -3.6650    7.8470 hc        1 HGX      0.039200
     64 H192        0.8330   -2.0910    8.3170 hc        1 HGX      0.039200
     65 H201        2.8710   -1.5320    9.6870 hc        1 HGX      0.039700
     66 H202        3.6190   -3.1060    9.2180 hc        1 HGX      0.039700
     67 H211        1.6790   -4.3350   10.2540 hc        1 HGX      0.039200
     68 H212        0.9320   -2.7610   10.7230 hc        1 HGX      0.039200
     69 H221        2.9700   -2.2010   12.0910 hc        1 HGX      0.038700
     70 H222        3.7170   -3.7760   11.6220 hc        1 HGX      0.038700
     71 H231        2.6420   -3.9200   13.8680 hc        1 HGX      0.032700
     72 H232        1.0490   -3.4280   13.1610 hc        1 HGX      0.032700
     73 H233        1.7980   -5.0070   12.6900 hc        1 HGX      0.032700
     74 H31         0.2730    2.2490   -3.4660 h1        1 HGX      0.084700
     75 H32         0.0260    0.4270   -3.5520 h1        1 HGX      0.084700
     76 H2          2.5120    2.0870   -4.4850 h1        1 HGX      0.079700
     77 H11         1.9360    0.7570   -6.6750 h1        1 HGX      0.049200
     78 H12         0.8920    2.2090   -6.2140 h1        1 HGX      0.049200
     79 H321        5.5530   -1.2290   -4.3760 hc        1 HGX      0.060200
     80 H322        3.9510   -2.0040   -3.9930 hc        1 HGX      0.060200
     81 H331        5.1090   -1.4810   -6.8240 hc        1 HGX      0.090700
     82 H332        3.4630   -2.1590   -6.4880 hc        1 HGX      0.090700
     83 H341        6.1680   -3.3970   -5.5640 hc        1 HGX      0.025200
     84 H342        4.5290   -4.0790   -5.2330 hc        1 HGX      0.025200
     85 H351        5.7500   -3.5750   -8.0360 hc        1 HGX      0.049700
     86 H352        4.1020   -4.2340   -7.7170 hc        1 HGX      0.049700
     87 H361        5.1270   -6.1680   -6.4560 hc        1 HGX      0.033200
     88 H362        6.7730   -5.5060   -6.7860 hc        1 HGX      0.033200
     89 H371        4.6970   -6.3310   -8.9340 hc        1 HGX      0.043200
     90 H372        6.3450   -5.6730   -9.2610 hc        1 HGX      0.043200
     91 H381        7.3670   -7.6060   -8.0110 hc        1 HGX      0.036700
     92 H382        5.7190   -8.2640   -7.6800 hc        1 HGX      0.036700
     93 H391        6.9350   -7.7690  -10.4870 hc        1 HGX      0.041200
     94 H392        5.2870   -8.4290  -10.1560 hc        1 HGX      0.041200
     95 H401        7.9600   -9.7010   -9.2380 hc        1 HGX      0.038200
     96 H402        6.3130  -10.3610   -8.9050 hc        1 HGX      0.038200
     97 H421        5.8790  -10.5240  -11.3820 hc        1 HGX      0.040200
     98 H422        7.5260   -9.8640  -11.7130 hc        1 HGX      0.040200
     99 H431        8.5520  -11.7960  -10.4650 hc        1 HGX      0.038700
    100 H432        6.9050  -12.4560  -10.1320 hc        1 HGX      0.038700
    101 H441        6.4700  -12.6200  -12.6080 hc        1 HGX      0.040200
    102 H442        8.1170  -11.9600  -12.9410 hc        1 HGX      0.040200
    103 H451        9.1440  -13.8910  -11.6930 hc        1 HGX      0.039200
    104 H452        7.4970  -14.5520  -11.3590 hc        1 HGX      0.039200
    105 H461        7.0610  -14.7150  -13.8350 hc        1 HGX      0.039700
    106 H462        8.7070  -14.0550  -14.1690 hc        1 HGX      0.039700
    107 H471        9.7340  -15.9850  -12.9210 hc        1 HGX      0.038200
    108 H472        8.0880  -16.6450  -12.5860 hc        1 HGX      0.038200
    109 H481        7.6630  -16.8450  -15.0600 hc        1 HGX      0.032700
    110 H482        9.1320  -17.7750  -14.5500 hc        1 HGX      0.032700
    111 H483        9.3130  -16.1830  -15.3960 hc        1 HGX      0.032700
    112 H41        -1.5930   -1.3680   -4.0590 h1        1 HGX      0.065200
    113 H42         0.2210   -1.3850   -4.3890 h1        1 HGX      0.065200
    114 H51        -1.6650   -3.8650   -4.5340 hx        1 HGX      0.083700
    115 H52        -0.8400   -3.2910   -2.9830 hx        1 HGX      0.083700
    116 H61         1.9380   -2.6650   -4.8590 hx        1 HGX      0.100700
    117 H62         1.5600   -2.9370   -3.0790 hx        1 HGX      0.100700
    118 H63         2.5400   -4.1840   -4.0200 hx        1 HGX      0.100700
    119 H71         0.4290   -5.1950   -2.5580 hx        1 HGX      0.100700
    120 H72        -0.6170   -5.9400   -3.8670 hx        1 HGX      0.100700
    121 H73         1.2040   -6.1070   -3.9430 hx        1 HGX      0.100700
    122 H81         0.5220   -3.5320   -6.4830 hx        1 HGX      0.100700
    123 H82         1.3660   -5.1260   -6.1100 hx        1 HGX      0.100700
    124 H83        -0.4720   -5.0550   -6.1580 hx        1 HGX      0.100700
@<TRIPOS>BOND
     1    1    2 2   
     2    2    3 1   
     3    2   15 1   
     4    3    4 1   
     5    3   49 1   
     6    3   50 1   
     7    4    5 1   
     8    4   51 1   
     9    4   52 1   
    10    5    6 1   
    11    5   53 1   
    12    5   54 1   
    13    6    7 1   
    14    6   55 1   
    15    6   56 1   
    16    7    8 1   
    17    7   57 1   
    18    7   58 1   
    19    8    9 1   
    20    8   59 1   
    21    8   60 1   
    22    9   10 1   
    23    9   61 1   
    24    9   62 1   
    25   10   11 1   
    26   10   63 1   
    27   10   64 1   
    28   11   12 1   
    29   11   65 1   
    30   11   66 1   
    31   12   13 1   
    32   12   67 1   
    33   12   68 1   
    34   13   14 1   
    35   13   69 1   
    36   13   70 1   
    37   14   71 1   
    38   14   72 1   
    39   14   73 1   
    40   15   16 1   
    41   16   17 1   
    42   16   74 1   
    43   16   75 1   
    44   17   18 1   
    45   17   20 1   
    46   17   76 1   
    47   18   19 1   
    48   18   77 1   
    49   18   78 1   
    50   19   40 1   
    51   20   21 1   
    52   21   22 2   
    53   21   23 1   
    54   23   24 1   
    55   23   79 1   
    56   23   80 1   
    57   24   25 1   
    58   24   81 1   
    59   24   82 1   
    60   25   26 1   
    61   25   83 1   
    62   25   84 1   
    63   26   27 1   
    64   26   85 1   
    65   26   86 1   
    66   27   28 1   
    67   27   87 1   
    68   27   88 1   
    69   28   29 1   
    70   28   89 1   
    71   28   90 1   
    72   29   30 1   
    73   29   91 1   
    74   29   92 1   
    75   30   31 1   
    76   30   93 1   
    77   30   94 1   
    78   31   32 1   
    79   31   95 1   
    80   31   96 1   
    81   32   33 1   
    82   32   97 1   
    83   32   98 1   
    84   33   34 1   
    85   33   99 1   
    86   33  100 1   
    87   34   35 1   
    88   34  101 1   
    89   34  102 1   
    90   35   36 1   
    91   35  103 1   
    92   35  104 1   
    93   36   37 1   
    94   36  105 1   
    95   36  106 1   
    96   37   38 1   
    97   37  107 1   
    98   37  108 1   
    99   38  109 1   
   100   38  110 1   
   101   38  111 1   
   102   39   40 1   
   103   40   41 1   
   104   40   42 1   
   105   42   43 1   
   106   43   44 1   
   107   43  112 1   
   108   43  113 1   
   109   44   45 1   
   110   44  114 1   
   111   44  115 1   
   112   45   46 1   
   113   45   47 1   
   114   45   48 1   
   115   46  116 1   
   116   46  117 1   
   117   46  118 1   
   118   47  119 1   
   119   47  120 1   
   120   47  121 1   
   121   48  122 1   
   122   48  123 1   
   123   48  124 1   
@<TRIPOS>SUBSTRUCTURE
     1 HGX         1 TEMP              0 ****  ****    0 ROOT
