@<TRIPOS>MOLECULE
HGX
  124   122     1     0     0
SMALL
bcc


@<TRIPOS>ATOM
      1 O11        -3.6330    1.3830    2.2100 o         1 HGX     -0.356000
      2 C11        -2.6460    2.0970    2.1800 c1        1 HGX      0.303000
      3 C12        -2.4240    3.1490    3.2830 c2        1 HGX     -0.156000
      4 C13        -3.7490    3.4370    3.9820 c3        1 HGX     -0.158000
      5 C14        -3.5150    4.3900    5.1480 c3        1 HGX     -0.157000
      6 C15        -4.8170    5.2100    5.4170 c3        1 HGX     -0.158000
      7 C16        -4.5800    6.1840    6.6070 c3        1 HGX     -0.157000
      8 C17        -5.3960    7.4820    6.3850 c3        1 HGX     -0.158000
      9 C18        -5.8000    8.0880    7.7700 c3        1 HGX     -0.157000
     10 C19        -6.2800    9.5460    7.5750 c3        1 HGX     -0.158000
     11 C20        -7.2150    9.9500    8.7620 c3        1 HGX     -0.158000
     12 C21        -7.6310   11.4180    8.6090 c3        1 HGX     -0.158000
     13 C22        -8.8750   11.6900    9.4710 c3        1 HGX     -0.159000
     14 C23        -9.1990   13.1600    9.4380 c3        1 HGX     -0.210000
     15 O3         -1.7350    2.0400    1.0260 os        1 HGX     -0.279000
     16 C3         -2.0490    0.9880    0.0780 c3        1 HGX     -0.016000
     17 C2         -1.0950    1.0810   -1.1300 c3        1 HGX      0.000000
     18 C1         -1.4420    2.2940   -1.9490 c3        1 HGX      0.034000
     19 O3P        -0.4960    3.3290   -1.6890 os        1 HGX     -0.747000
     20 O2         -1.2270   -0.0760   -1.9240 os        1 HGX     -0.278000
     21 C31        -0.0820   -0.9480   -1.8840 c2        1 HGX      0.367000
     22 O31         0.6320   -0.9650   -0.9070 o         1 HGX     -0.411000
     23 C32         0.2560   -1.8330   -3.1020 c3        1 HGX     -0.173000
     24 C33         0.5100   -3.2630   -2.6390 c3        1 HGX     -0.151000
     25 C34         1.0640   -4.0820   -3.8050 c3        1 HGX     -0.160000
     26 C35         1.0750   -5.5720   -3.4290 c3        1 HGX     -0.156000
     27 C36         2.1310   -6.3180   -4.2990 c3        1 HGX     -0.159000
     28 C37         2.1240   -7.8320   -3.9440 c3        1 HGX     -0.157000
     29 C38         3.4080   -8.4890   -4.4770 c3        1 HGX     -0.158000
     30 C39         3.4090   -9.9900   -4.1080 c3        1 HGX     -0.157000
     31 C40         4.8140  -10.6010   -4.4110 c3        1 HGX     -0.158000
     32 C42         4.8760  -12.0520   -3.8680 c3        1 HGX     -0.157000
     33 C43         6.3400  -12.5690   -3.9300 c3        1 HGX     -0.158000
     34 C44         6.4140  -14.0070   -3.3080 c3        1 HGX     -0.157000
     35 C45         7.8540  -14.5690   -3.4700 c3        1 HGX     -0.158000
     36 C46         7.9360  -15.9730   -2.8350 c3        1 HGX     -0.158000
     37 C47         9.3780  -16.4800   -2.9090 c3        1 HGX     -0.159000
     38 C48         9.4680  -17.8730   -2.2570 c3        1 HGX     -0.210000
     39 O1          1.1840    4.0320   -3.4880 o         1 HGX     -0.824500
     40 P1         -0.1530    4.3810   -2.8780 p5        1 HGX      1.915000
     41 O4         -1.2290    4.3090   -3.9440 o         1 HGX     -0.824500
     42 O5         -0.0940    5.8700   -2.2770 os        1 HGX     -0.724000
     43 C4          0.5900    6.8970   -3.0410 c3        1 HGX      0.034000
     44 C5          0.2340    8.2690   -2.4830 c3        1 HGX     -0.139000
     45 N1          0.9230    9.2990   -3.2450 n4        1 HGX      0.050000
     46 C6          0.6230    9.1440   -4.6360 c3        1 HGX     -0.197333
     47 C7          0.4850   10.6000   -2.8000 c3        1 HGX     -0.197333
     48 C8          2.3290    9.1800   -3.0470 c3        1 HGX     -0.197333
     49 H121       -1.7750    2.8070    3.9370 ha        1 HGX      0.116500
     50 H122       -2.0810    3.9750    2.8840 ha        1 HGX      0.116500
     51 H131       -4.1290    2.5990    4.3170 hc        1 HGX      0.097000
     52 H132       -4.3710    3.8460    3.3450 hc        1 HGX      0.097000
     53 H141       -2.7860    5.0000    4.9280 hc        1 HGX      0.079500
     54 H142       -3.2810    3.8760    5.9490 hc        1 HGX      0.079500
     55 H151       -5.5560    4.5910    5.6400 hc        1 HGX      0.082000
     56 H152       -5.0510    5.7230    4.6170 hc        1 HGX      0.082000
     57 H161       -4.8660    5.7570    7.4420 hc        1 HGX      0.078500
     58 H162       -3.6350    6.4030    6.6630 hc        1 HGX      0.078500
     59 H171       -4.8500    8.1300    5.8920 hc        1 HGX      0.080000
     60 H172       -6.2040    7.2770    5.8710 hc        1 HGX      0.080000
     61 H181       -6.5230    7.5560    8.1610 hc        1 HGX      0.078500
     62 H182       -5.0270    8.0770    8.3690 hc        1 HGX      0.078500
     63 H191       -6.7770    9.6180    6.7260 hc        1 HGX      0.079500
     64 H192       -5.5050   10.1440    7.5510 hc        1 HGX      0.079500
     65 H201       -6.7380    9.8330    9.6070 hc        1 HGX      0.078000
     66 H202       -8.0160    9.3820    8.7570 hc        1 HGX      0.078000
     67 H211       -6.9000   11.9950    8.9020 hc        1 HGX      0.079000
     68 H212       -7.8370   11.6030    7.6710 hc        1 HGX      0.079000
     69 H221       -8.6990   11.4140   10.3950 hc        1 HGX      0.077500
     70 H222       -9.6350   11.1800    9.1170 hc        1 HGX      0.077500
     71 H231       -8.5350   13.6510    9.9620 hc        1 HGX      0.071667
     72 H232      -10.0900   13.3070    9.8200 hc        1 HGX      0.071667
     73 H233       -9.1840   13.4770    8.5120 hc        1 HGX      0.071667
     74 H31        -2.9670    1.0900   -0.2260 h1        1 HGX      0.106000
     75 H32        -1.9430    0.1170    0.5100 h1        1 HGX      0.106000
     76 H2         -0.1710    1.1550   -0.8110 h1        1 HGX      0.144000
     77 H11        -2.3250    2.5980   -1.7120 h1        1 HGX      0.085000
     78 H12        -1.4200    2.0580   -2.9180 h1        1 HGX      0.085000
     79 H321       -0.4940   -1.8220   -3.7310 hc        1 HGX      0.140500
     80 H322        1.0530   -1.4880   -3.5410 hc        1 HGX      0.140500
     81 H331        1.1540   -3.2590   -1.9100 hc        1 HGX      0.080500
     82 H332       -0.3320   -3.6610   -2.3300 hc        1 HGX      0.080500
     83 H341        0.4970   -3.9490   -4.5960 hc        1 HGX      0.083500
     84 H342        1.9730   -3.7900   -4.0030 hc        1 HGX      0.083500
     85 H351        0.1850   -5.9580   -3.5910 hc        1 HGX      0.076000
     86 H352        1.3040   -5.6690   -2.4810 hc        1 HGX      0.076000
     87 H361        3.0240   -5.9440   -4.1210 hc        1 HGX      0.081000
     88 H362        1.9100   -6.2020   -5.2540 hc        1 HGX      0.081000
     89 H371        1.3390   -8.2620   -4.3570 hc        1 HGX      0.077500
     90 H372        2.0810   -7.9380   -2.9810 hc        1 HGX      0.077500
     91 H381        4.1790   -8.0600   -4.0800 hc        1 HGX      0.079500
     92 H382        3.4450   -8.3910   -5.4570 hc        1 HGX      0.079500
     93 H391        2.7220  -10.4620   -4.6440 hc        1 HGX      0.078500
     94 H392        3.2080  -10.0910   -3.1590 hc        1 HGX      0.078500
     95 H401        5.4990  -10.0660   -3.9790 hc        1 HGX      0.079500
     96 H402        4.9670  -10.6080   -5.3860 hc        1 HGX      0.079500
     97 H421        4.5640  -12.0670   -2.9430 hc        1 HGX      0.078500
     98 H422        4.3020  -12.6300   -4.4150 hc        1 HGX      0.078500
     99 H431        6.6360  -12.6010   -4.8610 hc        1 HGX      0.079500
    100 H432        6.9210  -11.9650   -3.4240 hc        1 HGX      0.079500
    101 H441        5.7810  -14.5950   -3.7690 hc        1 HGX      0.078500
    102 H442        6.1850  -13.9630   -2.3520 hc        1 HGX      0.078500
    103 H451        8.0750  -14.6290   -4.4200 hc        1 HGX      0.079000
    104 H452        8.4940  -13.9680   -3.0210 hc        1 HGX      0.079000
    105 H461        7.6570  -15.9250   -1.9070 hc        1 HGX      0.078500
    106 H462        7.3530  -16.5830   -3.3190 hc        1 HGX      0.078500
    107 H471        9.9660  -15.8600   -2.4350 hc        1 HGX      0.078000
    108 H472        9.6570  -16.5390   -3.8500 hc        1 HGX      0.078000
    109 H481        8.8100  -18.4770   -2.6800 hc        1 HGX      0.072000
    110 H482        9.2760  -17.7990   -1.3010 hc        1 HGX      0.072000
    111 H483       10.3780  -18.2370   -2.3830 hc        1 HGX      0.072000
    112 H41         1.5540    6.7610   -2.9780 h1        1 HGX      0.110500
    113 H42         0.3120    6.8440   -3.9830 h1        1 HGX      0.110500
    114 H51         0.5060    8.3200   -1.5450 hx        1 HGX      0.119000
    115 H52        -0.7340    8.4070   -2.5490 hx        1 HGX      0.119000
    116 H61        -0.3170    8.9020   -4.7410 hx        1 HGX      0.139222
    117 H62         0.8010    9.9980   -5.1100 hx        1 HGX      0.139222
    118 H63         1.1860    8.4360   -5.0140 hx        1 HGX      0.139222
    119 H71         0.6410   10.6840   -1.8370 hx        1 HGX      0.139222
    120 H72         0.9900   11.2980   -3.2770 hx        1 HGX      0.139222
    121 H73        -0.4800   10.7050   -2.9880 hx        1 HGX      0.139222
    122 H81         2.5090    8.9480   -2.1080 hx        1 HGX      0.139222
    123 H82         2.6830    8.4770   -3.6320 hx        1 HGX      0.139222
    124 H83         2.7620   10.0340   -3.2630 hx        1 HGX      0.139222
@<TRIPOS>BOND
     1    1    2 1   
     2    2   15 1   
     3    3    4 1   
     4    3   49 1   
     5    3   50 1   
     6    4    5 1   
     7    4   51 1   
     8    4   52 1   
     9    5    6 1   
    10    5   53 1   
    11    5   54 1   
    12    6    7 1   
    13    6   55 1   
    14    6   56 1   
    15    7    8 1   
    16    7   57 1   
    17    7   58 1   
    18    8    9 1   
    19    8   59 1   
    20    8   60 1   
    21    9   10 1   
    22    9   61 1   
    23    9   62 1   
    24   10   11 1   
    25   10   63 1   
    26   10   64 1   
    27   11   12 1   
    28   11   65 1   
    29   11   66 1   
    30   12   13 1   
    31   12   67 1   
    32   12   68 1   
    33   13   14 1   
    34   13   69 1   
    35   13   70 1   
    36   14   71 1   
    37   14   72 1   
    38   14   73 1   
    39   15   16 1   
    40   16   17 1   
    41   16   74 1   
    42   16   75 1   
    43   17   18 1   
    44   17   20 1   
    45   17   76 1   
    46   18   19 1   
    47   18   77 1   
    48   18   78 1   
    49   19   40 1   
    50   20   21 1   
    51   21   22 1   
    52   21   23 1   
    53   23   24 1   
    54   23   79 1   
    55   23   80 1   
    56   24   25 1   
    57   24   81 1   
    58   24   82 1   
    59   25   26 1   
    60   25   83 1   
    61   25   84 1   
    62   26   27 1   
    63   26   85 1   
    64   26   86 1   
    65   27   28 1   
    66   27   87 1   
    67   27   88 1   
    68   28   29 1   
    69   28   89 1   
    70   28   90 1   
    71   29   30 1   
    72   29   91 1   
    73   29   92 1   
    74   30   31 1   
    75   30   93 1   
    76   30   94 1   
    77   31   32 1   
    78   31   95 1   
    79   31   96 1   
    80   32   33 1   
    81   32   97 1   
    82   32   98 1   
    83   33   34 1   
    84   33   99 1   
    85   33  100 1   
    86   34   35 1   
    87   34  101 1   
    88   34  102 1   
    89   35   36 1   
    90   35  103 1   
    91   35  104 1   
    92   36   37 1   
    93   36  105 1   
    94   36  106 1   
    95   37   38 1   
    96   37  107 1   
    97   37  108 1   
    98   38  109 1   
    99   38  110 1   
   100   38  111 1   
   101   39   40 1   
   102   40   41 1   
   103   40   42 1   
   104   42   43 1   
   105   43   44 1   
   106   43  112 1   
   107   43  113 1   
   108   44   45 1   
   109   44  114 1   
   110   44  115 1   
   111   45   46 1   
   112   45   47 1   
   113   45   48 1   
   114   46  116 1   
   115   46  117 1   
   116   46  118 1   
   117   47  119 1   
   118   47  120 1   
   119   47  121 1   
   120   48  122 1   
   121   48  123 1   
   122   48  124 1   
@<TRIPOS>SUBSTRUCTURE
     1 HGX         1 TEMP              0 ****  ****    0 ROOT
