@<TRIPOS>MOLECULE
HGZ
   33    34     1     0     0
SMALL
bcc


@<TRIPOS>ATOM
      1 C1          0.0760    0.0860   -0.0110 ca        1 HGZ     -0.153000
      2 C2          1.4780    0.0120   -0.0840 ca        1 HGZ     -0.101800
      3 C3          2.2450   -0.0420    1.1100 ca        1 HGZ      0.075600
      4 C4          1.5640   -0.0130    2.3680 ca        1 HGZ      0.054100
      5 C5          0.1720    0.0500    2.4220 ca        1 HGZ      0.106100
      6 C6         -0.5740    0.1030    1.2130 ca        1 HGZ      0.077100
      7 C7          2.1790   -0.0120   -1.3550 cc        1 HGZ      0.020600
      8 C8          3.5330   -0.0810   -1.3800 cd        1 HGZ     -0.233200
      9 C9          4.3300   -0.1310   -0.1500 c         1 HGZ      0.692700
     10 N10         3.6300   -0.1150    1.0610 ns        1 HGZ     -0.433100
     11 O11         5.5750   -0.1900   -0.1200 o         1 HGZ     -0.634500
     12 C12         1.3970    0.0410   -2.6130 c3        1 HGZ     -0.068900
     13 O13         2.3300    0.0440    3.5220 os        1 HGZ     -0.338900
     14 C14         2.2670   -1.1420    4.3200 c3        1 HGZ      0.111700
     15 O15        -0.4490   -0.0590    3.6520 os        1 HGZ     -0.330900
     16 C16        -1.1580    1.1160    4.0570 c3        1 HGZ      0.118700
     17 O17        -1.9450    0.1940    1.3720 os        1 HGZ     -0.320900
     18 C18        -2.7220    0.0730    0.1860 c3        1 HGZ      0.111700
     19 H1         -0.5020    0.1260   -0.9470 ha        1 HGZ      0.146000
     20 H8          4.1130   -0.1010   -2.3140 ha        1 HGZ      0.164000
     21 HN10        4.1350   -0.1160    1.9220 hn        1 HGZ      0.345500
     22 H12         0.6980   -0.8310   -2.6720 hc        1 HGZ      0.053700
     23 H12A        2.0690    0.0140   -3.5060 hc        1 HGZ      0.053700
     24 H12B        0.7950    0.9840   -2.6550 hc        1 HGZ      0.053700
     25 H14         1.2130   -1.3560    4.6210 h1        1 HGZ      0.049367
     26 H14A        2.6990   -2.0050    3.7590 h1        1 HGZ      0.049367
     27 H14B        2.8950   -0.8890    5.2100 h1        1 HGZ      0.049367
     28 H16        -1.5800    0.8310    5.0530 h1        1 HGZ      0.048367
     29 H16A       -1.9720    1.3510    3.3300 h1        1 HGZ      0.048367
     30 H16B       -0.4530    1.9760    4.1540 h1        1 HGZ      0.048367
     31 H18        -2.5400    0.9430   -0.4920 h1        1 HGZ      0.046033
     32 H18A       -2.5010   -0.8870   -0.3400 h1        1 HGZ      0.046033
     33 H18B       -3.7750    0.0830    0.5650 h1        1 HGZ      0.046033
@<TRIPOS>BOND
     1    1    2 ar  
     2    1    6 ar  
     3    1   19 1   
     4    2    3 ar  
     5    2    7 1   
     6    3    4 ar  
     7    3   10 1   
     8    4    5 ar  
     9    4   13 1   
    10    5    6 ar  
    11    5   15 1   
    12    6   17 1   
    13    7    8 2   
    14    7   12 1   
    15    8    9 1   
    16    8   20 1   
    17    9   10 1   
    18    9   11 2   
    19   10   21 1   
    20   12   22 1   
    21   12   23 1   
    22   12   24 1   
    23   13   14 1   
    24   14   25 1   
    25   14   26 1   
    26   14   27 1   
    27   15   16 1   
    28   16   28 1   
    29   16   29 1   
    30   16   30 1   
    31   17   18 1   
    32   18   31 1   
    33   18   32 1   
    34   18   33 1   
@<TRIPOS>SUBSTRUCTURE
     1 HGZ         1 TEMP              0 ****  ****    0 ROOT
