@<TRIPOS>MOLECULE
HGZ
   33    34     1     0     0
SMALL
bcc


@<TRIPOS>ATOM
      1 C1          0.0790    0.0930   -0.0130 ca        1 HGZ     -0.153000
      2 C2          1.4820    0.0170   -0.0820 ca        1 HGZ     -0.101800
      3 C3          2.2450   -0.0450    1.1140 ca        1 HGZ      0.075600
      4 C4          1.5600   -0.0210    2.3700 ca        1 HGZ      0.054100
      5 C5          0.1680    0.0440    2.4200 ca        1 HGZ      0.106100
      6 C6         -0.5750    0.1050    1.2090 ca        1 HGZ      0.077100
      7 C7          2.1860   -0.0010   -1.3510 cc        1 HGZ      0.020600
      8 C8          3.5400   -0.0730   -1.3730 cd        1 HGZ     -0.233200
      9 C9          4.3340   -0.1310   -0.1400 c         1 HGZ      0.692700
     10 N10         3.6300   -0.1200    1.0690 n         1 HGZ     -0.433100
     11 O11         5.5780   -0.1920   -0.1060 o         1 HGZ     -0.634500
     12 C12         1.4080    0.0600   -2.6110 c3        1 HGZ     -0.068900
     13 O13         2.3220    0.0280    3.5270 os        1 HGZ     -0.338900
     14 C14         2.2550   -1.1620    4.3180 c3        1 HGZ      0.111700
     15 O15        -0.4570   -0.0700    3.6480 os        1 HGZ     -0.330900
     16 C16        -1.1650    1.1030    4.0570 c3        1 HGZ      0.118700
     17 O17        -1.9460    0.1970    1.3650 os        1 HGZ     -0.320900
     18 C18        -2.7190    0.0840    0.1750 c3        1 HGZ      0.111700
     19 H1         -0.4950    0.1390   -0.9510 ha        1 HGZ      0.146000
     20 H8          4.1230   -0.0890   -2.3050 ha        1 HGZ      0.164000
     21 HN10        4.1320   -0.1270    1.9310 hn        1 HGZ      0.345500
     22 H12         0.7080   -0.8100   -2.6770 hc        1 HGZ      0.053700
     23 H12A        0.8080    1.0040   -2.6500 hc        1 HGZ      0.053700
     24 H12B        2.0830    0.0360   -3.5030 hc        1 HGZ      0.053700
     25 H14         2.6870   -2.0230    3.7540 h1        1 HGZ      0.049367
     26 H14A        1.1990   -1.3750    4.6150 h1        1 HGZ      0.049367
     27 H14B        2.8810   -0.9150    5.2120 h1        1 HGZ      0.049367
     28 H16        -1.5900    0.8140    5.0500 h1        1 HGZ      0.048367
     29 H16A       -1.9760    1.3430    3.3290 h1        1 HGZ      0.048367
     30 H16B       -0.4590    1.9620    4.1600 h1        1 HGZ      0.048367
     31 H18        -2.5330    0.9570   -0.4970 h1        1 HGZ      0.046033
     32 H18A       -3.7730    0.0940    0.5510 h1        1 HGZ      0.046033
     33 H18B       -2.4980   -0.8740   -0.3550 h1        1 HGZ      0.046033
@<TRIPOS>BOND
     1    1    2 ar  
     2    1    6 ar  
     3    1   19 1   
     4    2    3 ar  
     5    2    7 1   
     6    3    4 ar  
     7    3   10 1   
     8    4    5 ar  
     9    4   13 1   
    10    5    6 ar  
    11    5   15 1   
    12    6   17 1   
    13    7    8 2   
    14    7   12 1   
    15    8    9 1   
    16    8   20 1   
    17    9   10 1   
    18    9   11 2   
    19   10   21 1   
    20   12   22 1   
    21   12   23 1   
    22   12   24 1   
    23   13   14 1   
    24   14   25 1   
    25   14   26 1   
    26   14   27 1   
    27   15   16 1   
    28   16   28 1   
    29   16   29 1   
    30   16   30 1   
    31   17   18 1   
    32   18   31 1   
    33   18   32 1   
    34   18   33 1   
@<TRIPOS>SUBSTRUCTURE
     1 HGZ         1 TEMP              0 ****  ****    0 ROOT
