@<TRIPOS>MOLECULE
HGZ
   33    34     1     0     0
SMALL
bcc


@<TRIPOS>ATOM
      1 C1         -0.3370   -1.6110   -0.0030 ca        1 HGZ     -0.153000
      2 C2          0.8920   -0.9270   -0.0100 ca        1 HGZ     -0.101800
      3 C3          0.9100    0.4930   -0.0130 ca        1 HGZ      0.075600
      4 C4         -0.3350    1.1970   -0.0160 ca        1 HGZ      0.054100
      5 C5         -1.5450    0.5040    0.0010 ca        1 HGZ      0.106100
      6 C6         -1.5380   -0.9180    0.0040 ca        1 HGZ      0.077100
      7 C7          2.1600   -1.6320   -0.0130 cc        1 HGZ      0.020600
      8 C8          3.3230   -0.9350   -0.0220 cd        1 HGZ     -0.233200
      9 C9          3.3470    0.5320   -0.0320 c         1 HGZ      0.692700
     10 N10         2.1110    1.1870   -0.0200 n         1 HGZ     -0.433100
     11 O11         4.3880    1.2180   -0.0450 o         1 HGZ     -0.634500
     12 C12         2.1640   -3.1150   -0.0070 c3        1 HGZ     -0.068900
     13 O13        -0.3020    2.5790   -0.1300 os        1 HGZ     -0.338900
     14 C14        -0.7270    3.2680    1.0490 c3        1 HGZ      0.111700
     15 O15        -2.7190    1.2230    0.1320 os        1 HGZ     -0.330900
     16 C16        -3.5840    1.1440   -1.0040 c3        1 HGZ      0.118700
     17 O17        -2.7870   -1.5120   -0.0100 os        1 HGZ     -0.320900
     18 C18        -2.8090   -2.9240    0.1670 c3        1 HGZ      0.111700
     19 H1         -0.3310   -2.7110    0.0000 ha        1 HGZ      0.146000
     20 H8          4.3110   -1.4190   -0.0260 ha        1 HGZ      0.164000
     21 HN10        2.0820    2.1840   -0.0570 hn        1 HGZ      0.345500
     22 H12         1.6350   -3.5060   -0.9130 hc        1 HGZ      0.053700
     23 H12A        3.2080   -3.5160   -0.0090 hc        1 HGZ      0.053700
     24 H12B        1.6410   -3.5000    0.9040 hc        1 HGZ      0.053700
     25 H14        -0.6790    4.3460    0.7510 h1        1 HGZ      0.049367
     26 H14A       -1.7700    2.9740    1.3200 h1        1 HGZ      0.049367
     27 H14B       -0.0260    3.0560    1.8910 h1        1 HGZ      0.049367
     28 H16        -4.4580    1.7760   -0.7060 h1        1 HGZ      0.048367
     29 H16A       -3.0760    1.5640   -1.9050 h1        1 HGZ      0.048367
     30 H16B       -3.8980    0.0870   -1.1840 h1        1 HGZ      0.048367
     31 H18        -2.3330   -3.4360   -0.7050 h1        1 HGZ      0.046033
     32 H18A       -2.3020   -3.2150    1.1190 h1        1 HGZ      0.046033
     33 H18B       -3.9030   -3.1600    0.2140 h1        1 HGZ      0.046033
@<TRIPOS>BOND
     1    1    2 ar  
     2    1    6 ar  
     3    1   19 1   
     4    2    3 ar  
     5    2    7 1   
     6    3    4 ar  
     7    3   10 1   
     8    4    5 ar  
     9    4   13 1   
    10    5    6 ar  
    11    5   15 1   
    12    6   17 1   
    13    7    8 2   
    14    7   12 1   
    15    8    9 1   
    16    8   20 1   
    17    9   10 1   
    18    9   11 2   
    19   10   21 1   
    20   12   22 1   
    21   12   23 1   
    22   12   24 1   
    23   13   14 1   
    24   14   25 1   
    25   14   26 1   
    26   14   27 1   
    27   15   16 1   
    28   16   28 1   
    29   16   29 1   
    30   16   30 1   
    31   17   18 1   
    32   18   31 1   
    33   18   32 1   
    34   18   33 1   
@<TRIPOS>SUBSTRUCTURE
     1 HGZ         1 TEMP              0 ****  ****    0 ROOT
