@<TRIPOS>MOLECULE
HH1
   87    86     1     0     0
SMALL
bcc


@<TRIPOS>ATOM
      1 O01         4.7580    3.0180    0.6290 os        1 HH1     -0.275000
      2 C02         4.4560    1.6400    0.8770 c2        1 HH1      0.404000
      3 O03         5.1890    0.7670    0.4350 o         1 HH1     -0.423000
      4 NP4         3.4170    1.2940    1.8280 n         1 HH1     -0.345000
      5 C05         2.7660    0.0270    1.7430 c3        1 HH1      0.008000
      6 C06         1.3110    0.2300    1.2790 c3        1 HH1      0.026000
      7 O07         1.1510    1.5130    0.8270 oh        1 HH1     -0.330000
      8 C08         0.9870   -0.7550    0.1460 c3        1 HH1     -0.170000
      9 C09        -0.2420   -0.4560   -0.3780 c3        1 HH1     -0.010000
     10 C10         0.2620    0.1580   -1.7640 c3        1 HH1     -0.133000
     11 C11        -0.5290    1.4690   -2.0740 c2        1 HH1     -0.087000
     12 C12        -1.3950    1.5160   -3.1590 c2        1 HH1     -0.121000
     13 C13        -2.0070    2.7180   -3.5120 c1        1 HH1     -0.131000
     14 C14        -1.7490    3.8800   -2.7730 c1        1 HH1     -0.125333
     15 C15        -0.8830    3.8350   -1.6880 c1        1 HH1     -0.125333
     16 C16        -0.2710    2.6320   -1.3340 c1        1 HH1     -0.134000
     17 C17        -1.2560   -1.6920   -0.5080 c2        1 HH1      0.265000
     18 O18        -0.9460   -2.8670   -0.6740 o         1 HH1     -0.299000
     19 C19        -3.4160   -2.1390    0.5340 c3        1 HH1      0.005000
     20 C20        -4.5820   -1.3140    0.8540 c3        1 HH1     -0.153000
     21 C49        -6.9150   -1.5890    0.0860 c3        1 HH1     -0.167000
     22 C22        -5.4500   -1.2860   -0.3310 c3        1 HH1     -0.064000
     23 C23        -4.9660   -2.3370   -1.2840 c2        1 HH1     -0.086000
     24 C24        -5.6040   -2.9220   -2.3800 c2        1 HH1     -0.117000
     25 C25        -5.1240   -4.1240   -2.9070 c1        1 HH1     -0.133000
     26 C26        -4.0020   -4.7430   -2.3340 c1        1 HH1     -0.125333
     27 C27        -3.3620   -4.1570   -1.2360 c1        1 HH1     -0.125333
     28 C28        -3.8380   -2.9600   -0.7100 c1        1 HH1     -0.075000
     29 N29        -1.1720    0.5510    0.5360 n3        1 HH1     -0.266000
     30 C30        -2.3960   -0.0130    0.5530 c2        1 HH1      0.038000
     31 C35        -2.4560   -1.2250    0.0510 c2        1 HH1     -0.285000
     32 C36         2.7730   -0.6310    3.0920 c3        1 HH1     -0.137000
     33 C37         3.9470   -1.6120    3.1790 c2        1 HH1     -0.087000
     34 C38         3.9350   -2.7530    2.4250 c2        1 HH1     -0.121000
     35 C39         4.9110   -3.7160    2.6090 c1        1 HH1     -0.124000
     36 C40         5.9030   -3.5250    3.5590 c1        1 HH1     -0.125333
     37 C41         5.9170   -2.3770    4.3190 c1        1 HH1     -0.125333
     38 C42         4.9460   -1.4190    4.1350 c1        1 HH1     -0.134000
     39 C44         5.6340    3.2380   -0.5080 c3        1 HH1      0.021000
     40 C45         6.6060    4.0670   -0.1730 c3        1 HH1     -0.029000
     41 O46         6.0790    5.4820   -0.5430 os        1 HH1     -0.280000
     42 C47         4.8080    5.2410   -1.4020 c3        1 HH1     -0.022000
     43 C48         4.8260    3.9550   -1.6940 c3        1 HH1     -0.210000
     44 C1         -7.8350   -0.5730   -0.5400 c2        1 HH1      0.301000
     45 N1         -9.1520   -0.3550    0.0150 n         1 HH1     -0.436000
     46 O2         -7.4360    0.1290   -1.4390 o         1 HH1     -0.382000
     47 HP4         3.2210    1.8610    2.5140 hn        1 HH1      0.250000
     48 H05         3.2430   -0.5460    1.0960 h1        1 HH1      0.109000
     49 H06         0.7110    0.0730    2.0240 h1        1 HH1      0.127000
     50 H07         1.8560    1.7480    0.3540 ho        1 HH1      0.222000
     51 H081        1.6650   -0.6830   -0.5530 hc        1 HH1      0.099000
     52 H082        0.9770   -1.6910    0.5090 hc        1 HH1      0.099000
     53 H101        0.1090   -0.5020   -2.4910 hc        1 HH1      0.113500
     54 H102        1.2180    0.3610   -1.7030 hc        1 HH1      0.113500
     55 H12        -1.5800    0.6880   -3.6870 ha        1 HH1      0.143000
     56 H13        -2.6060    2.7490   -4.2620 ha        1 HH1      0.133000
     57 H14        -2.1760    4.7170   -3.0190 ha        1 HH1      0.134333
     58 H15        -0.7050    4.6390   -1.1770 ha        1 HH1      0.134333
     59 H16         0.3470    2.6000   -0.5610 ha        1 HH1      0.137000
     60 H19        -2.9460   -2.6060    1.2750 hc        1 HH1      0.120000
     61 H201       -4.2920   -0.4220    1.0520 hc        1 HH1      0.089000
     62 H202       -5.0770   -1.7250    1.6120 hc        1 HH1      0.089000
     63 H491       -7.1620   -2.4820   -0.2170 hc        1 HH1      0.105500
     64 H492       -6.9920   -1.5420    1.0490 hc        1 HH1      0.105500
     65 H22        -5.4000   -0.3750   -0.7720 hc        1 HH1      0.128000
     66 H24        -6.3830   -2.4930   -2.7770 ha        1 HH1      0.145000
     67 H25        -5.5680   -4.5330   -3.6700 ha        1 HH1      0.130000
     68 H26        -3.6680   -5.5810   -2.7010 ha        1 HH1      0.134333
     69 H27        -2.5690   -4.5950   -0.8320 ha        1 HH1      0.134333
     70 H29        -0.9470    1.3820    0.8400 hn        1 HH1      0.223000
     71 H30        -3.0670    0.2810    1.2180 h4        1 HH1      0.172000
     72 H361        1.9310   -1.1180    3.2220 hc        1 HH1      0.105000
     73 H362        2.8650    0.0550    3.7920 hc        1 HH1      0.105000
     74 H38         3.2360   -2.8890    1.7560 ha        1 HH1      0.134000
     75 H39         4.9010   -4.5200    2.0770 ha        1 HH1      0.135000
     76 H40         6.5790   -4.1920    3.6870 ha        1 HH1      0.134333
     77 H41         6.6330   -2.2400    5.0030 ha        1 HH1      0.134333
     78 H42         4.9550   -0.6080    4.6720 ha        1 HH1      0.130000
     79 H44         6.0040    2.3930   -0.8170 h1        1 HH1      0.135000
     80 H451        6.7820    4.0120    0.7740 h1        1 HH1      0.101000
     81 H452        7.4130    3.8650   -0.6780 h1        1 HH1      0.101000
     82 H471        3.9930    5.4650   -0.8820 h1        1 HH1      0.088000
     83 H472        4.8460    5.7720   -2.2180 h1        1 HH1      0.088000
     84 H481        3.9140    3.6070   -1.7370 hc        1 HH1      0.109500
     85 H482        5.2790    3.8130   -2.5400 hc        1 HH1      0.109500
     86 HN11       -9.6930    0.3030   -0.3300 hn        1 HH1      0.224000
     87 HN12       -9.4410   -0.8630    0.7370 hn        1 HH1      0.224000
@<TRIPOS>BOND
     1    1    2 1   
     2    1   39 1   
     3    2    3 1   
     4    2    4 1   
     5    4    5 1   
     6    4   47 1   
     7    5    6 1   
     8    5   32 1   
     9    5   48 1   
    10    6    7 1   
    11    6    8 1   
    12    6   49 1   
    13    7   50 1   
    14    8    9 1   
    15    8   51 1   
    16    8   52 1   
    17    9   10 1   
    18    9   17 1   
    19    9   29 1   
    20   10   11 1   
    21   10   53 1   
    22   10   54 1   
    23   11   12 1   
    24   11   16 1   
    25   12   13 1   
    26   12   55 1   
    27   13   56 1   
    28   14   15 1   
    29   14   57 1   
    30   15   58 1   
    31   16   59 1   
    32   17   18 1   
    33   17   31 1   
    34   19   20 1   
    35   19   28 1   
    36   19   31 1   
    37   19   60 1   
    38   20   22 1   
    39   20   61 1   
    40   20   62 1   
    41   21   22 1   
    42   21   44 1   
    43   21   63 1   
    44   21   64 1   
    45   22   23 1   
    46   22   65 1   
    47   23   24 1   
    48   23   28 1   
    49   24   25 1   
    50   24   66 1   
    51   25   67 1   
    52   26   27 1   
    53   26   68 1   
    54   27   69 1   
    55   29   30 1   
    56   29   70 1   
    57   30   31 1   
    58   30   71 1   
    59   32   33 1   
    60   32   72 1   
    61   32   73 1   
    62   33   34 1   
    63   33   38 1   
    64   34   35 1   
    65   34   74 1   
    66   35   75 1   
    67   36   37 1   
    68   36   76 1   
    69   37   77 1   
    70   38   78 1   
    71   39   40 1   
    72   39   43 1   
    73   39   79 1   
    74   40   41 1   
    75   40   80 1   
    76   40   81 1   
    77   41   42 1   
    78   42   43 1   
    79   42   82 1   
    80   42   83 1   
    81   43   84 1   
    82   43   85 1   
    83   44   45 1   
    84   44   46 1   
    85   45   86 1   
    86   45   87 1   
@<TRIPOS>SUBSTRUCTURE
     1 HH1         1 TEMP              0 ****  ****    0 ROOT
