@<TRIPOS>MOLECULE
HH1
   87    92     1     0     0
SMALL
bcc


@<TRIPOS>ATOM
      1 O01        -5.2400   -0.8450   -0.4040 os        1 HH1     -0.437900
      2 C02        -3.9260   -0.4280   -0.3420 c         1 HH1      0.726100
      3 O03        -3.2500   -0.3670   -1.3830 o         1 HH1     -0.582000
      4 NP4        -3.5090   -0.1860    0.9600 n         1 HH1     -0.516900
      5 C05        -2.3370    0.6510    1.1640 c3        1 HH1      0.064700
      6 C06        -1.0810   -0.1860    1.5370 c3        1 HH1      0.130100
      7 O07        -1.2460   -0.8690    2.7680 oh        1 HH1     -0.609800
      8 C08        -0.7010   -1.1430    0.4140 c3        1 HH1     -0.126400
      9 C09         0.7900   -1.5240    0.4060 c3        1 HH1      0.080200
     10 C10         0.9590   -2.6740   -0.6050 c3        1 HH1     -0.012100
     11 C11         2.3380   -3.2210   -0.7080 ca        1 HH1     -0.082300
     12 C12         3.2380   -2.6950   -1.6430 ca        1 HH1     -0.115500
     13 C13         4.5140   -3.2400   -1.7740 ca        1 HH1     -0.131000
     14 C14         4.9030   -4.3130   -0.9720 ca        1 HH1     -0.128000
     15 C15         4.0130   -4.8380   -0.0360 ca        1 HH1     -0.131000
     16 C16         2.7350   -4.2960    0.0960 ca        1 HH1     -0.115500
     17 C17         1.6360   -0.2890   -0.0510 c         1 HH1      0.595300
     18 O18         1.5280    0.2320   -1.1610 o         1 HH1     -0.560100
     19 C19         3.5030    1.1290    1.1790 c3        1 HH1      0.060800
     20 C20         3.1680    2.3620    0.3130 c3        1 HH1     -0.076400
     21 C22         4.3050    2.5460   -0.7130 c3        1 HH1     -0.009400
     22 C23         5.3460    1.5450   -0.3100 ca        1 HH1     -0.081300
     23 C24         6.6190    1.3740   -0.8310 ca        1 HH1     -0.117000
     24 C25         7.4350    0.3660   -0.3010 ca        1 HH1     -0.131000
     25 C26         6.9750   -0.4520    0.7280 ca        1 HH1     -0.130000
     26 C27         5.6910   -0.2790    1.2580 ca        1 HH1     -0.111000
     27 C28         4.8820    0.7210    0.7390 ca        1 HH1     -0.080300
     28 N29         1.3310   -1.8610    1.7450 nh        1 HH1     -0.698000
     29 C30         2.2470   -0.8610    2.0980 c2        1 HH1      0.104000
     30 C35         2.5060    0.0430    1.0930 ce        1 HH1     -0.298400
     31 C36        -2.5450    1.7040    2.2680 c3        1 HH1     -0.056100
     32 C37        -3.7530    2.5400    2.0400 ca        1 HH1     -0.100300
     33 C38        -3.7100    3.6140    1.1440 ca        1 HH1     -0.127500
     34 C39        -4.8400    4.4040    0.9380 ca        1 HH1     -0.123500
     35 C40        -6.0220    4.1270    1.6270 ca        1 HH1     -0.124000
     36 C41        -6.0700    3.0600    2.5230 ca        1 HH1     -0.123500
     37 C42        -4.9410    2.2690    2.7300 ca        1 HH1     -0.127500
     38 C44        -5.7200   -1.2830   -1.6870 c3        1 HH1      0.130100
     39 C45        -7.2260   -0.9760   -1.7080 c3        1 HH1      0.122400
     40 O46        -7.9410   -2.2100   -1.7360 os        1 HH1     -0.421600
     41 C47        -7.0420   -3.3140   -1.8940 c3        1 HH1      0.128400
     42 C48        -5.6090   -2.8050   -1.8060 c3        1 HH1     -0.130400
     43 N1          1.5510    2.9380   -2.7950 n         1 HH1     -0.675000
     44 O2          3.1860    4.5160   -2.8150 o         1 HH1     -0.634100
     45 HP4        -4.2400   -0.0760    1.6330 hn        1 HH1      0.319500
     46 H05        -2.0940    1.1880    0.1960 h1        1 HH1      0.084700
     47 H06        -0.2400    0.5390    1.7400 h1        1 HH1      0.085700
     48 H07        -1.9730   -1.4960    2.6640 ho        1 HH1      0.411000
     49 H081       -0.9410   -0.6750   -0.5800 hc        1 HH1      0.081700
     50 H082       -1.3180   -2.0760    0.5040 hc        1 HH1      0.081700
     51 H101        0.2540   -3.5010   -0.3240 hc        1 HH1      0.061700
     52 H102        0.6380   -2.2680   -1.6040 hc        1 HH1      0.061700
     53 H12         2.9340   -1.8400   -2.2680 ha        1 HH1      0.135000
     54 H13         5.2150   -2.8190   -2.5090 ha        1 HH1      0.130500
     55 H14         5.9090   -4.7420   -1.0770 ha        1 HH1      0.129000
     56 H15         4.3170   -5.6820    0.6000 ha        1 HH1      0.130500
     57 H16         2.0370   -4.7090    0.8390 ha        1 HH1      0.135000
     58 H19         3.5640    1.4530    2.2590 hc        1 HH1      0.055700
     59 H201        3.1030    3.2670    0.9660 hc        1 HH1      0.054700
     60 H202        2.1850    2.2370   -0.2010 hc        1 HH1      0.054700
     61 H22         4.7140    3.5910   -0.6470 hc        1 HH1      0.079700
     62 H24         6.9840    2.0170   -1.6450 ha        1 HH1      0.136000
     63 H25         8.4470    0.2220   -0.7060 ha        1 HH1      0.130000
     64 H26         7.6250   -1.2420    1.1310 ha        1 HH1      0.129000
     65 H27         5.3300   -0.9300    2.0670 ha        1 HH1      0.130000
     66 H29         0.6410   -2.0900    2.4320 hn        1 HH1      0.423800
     67 H30         2.7110   -0.8950    3.0920 h4        1 HH1      0.166000
     68 H361       -2.6060    1.1850    3.2630 hc        1 HH1      0.070200
     69 H362       -1.6310    2.3570    2.2870 hc        1 HH1      0.070200
     70 H38        -2.7780    3.8360    0.6020 ha        1 HH1      0.132500
     71 H39        -4.7980    5.2470    0.2330 ha        1 HH1      0.136500
     72 H40        -6.9130    4.7520    1.4640 ha        1 HH1      0.136000
     73 H41        -6.9990    2.8420    3.0700 ha        1 HH1      0.136500
     74 H42        -4.9810    1.4350    3.4470 ha        1 HH1      0.132500
     75 H44        -5.1670   -0.7520   -2.5050 h1        1 HH1      0.096700
     76 H451       -7.5560   -0.4270   -0.7890 h1        1 HH1      0.063700
     77 H452       -7.5020   -0.4010   -2.6280 h1        1 HH1      0.063700
     78 H471       -7.2620   -3.7800   -2.8890 h1        1 HH1      0.050200
     79 H472       -7.2890   -4.0390   -1.0760 h1        1 HH1      0.050200
     80 H481       -5.0260   -3.0850   -2.7170 hc        1 HH1      0.068700
     81 H482       -5.0860   -3.2310   -0.9140 hc        1 HH1      0.068700
     82 HN11        0.8790    3.5970   -3.0950 hn        1 HH1      0.317000
     83 HN12        1.2600    2.0190   -2.5660 hn        1 HH1      0.317000
     84 C49         3.8530    2.2890   -2.1410 c3        1 HH1     -0.144400
     85 C1          2.8500    3.3320   -2.5970 c         1 HH1      0.657100
     86 H491        3.4320    1.2510   -2.2180 hc        1 HH1      0.075200
     87 H492        4.7400    2.3590   -2.8260 hc        1 HH1      0.075200
@<TRIPOS>BOND
     1    1    2 1   
     2    1   38 1   
     3    2    3 2   
     4    2    4 1   
     5    4    5 1   
     6    4   45 1   
     7    5    6 1   
     8    5   31 1   
     9    5   46 1   
    10    6    7 1   
    11    6    8 1   
    12    6   47 1   
    13    7   48 1   
    14    8    9 1   
    15    8   49 1   
    16    8   50 1   
    17    9   10 1   
    18    9   17 1   
    19    9   28 1   
    20   10   11 1   
    21   10   51 1   
    22   10   52 1   
    23   11   12 ar  
    24   11   16 ar  
    25   12   13 ar  
    26   12   53 1   
    27   13   14 ar  
    28   13   54 1   
    29   14   15 ar  
    30   14   55 1   
    31   15   16 ar  
    32   15   56 1   
    33   16   57 1   
    34   17   18 2   
    35   17   30 1   
    36   19   20 1   
    37   19   27 1   
    38   19   30 1   
    39   19   58 1   
    40   20   21 1   
    41   20   59 1   
    42   20   60 1   
    43   21   22 1   
    44   21   61 1   
    45   21   84 1   
    46   22   23 ar  
    47   22   27 ar  
    48   23   24 ar  
    49   23   62 1   
    50   24   25 ar  
    51   24   63 1   
    52   25   26 ar  
    53   25   64 1   
    54   26   27 ar  
    55   26   65 1   
    56   28   29 1   
    57   28   66 1   
    58   29   30 2   
    59   29   67 1   
    60   31   32 1   
    61   31   68 1   
    62   31   69 1   
    63   32   33 ar  
    64   32   37 ar  
    65   33   34 ar  
    66   33   70 1   
    67   34   35 ar  
    68   34   71 1   
    69   35   36 ar  
    70   35   72 1   
    71   36   37 ar  
    72   36   73 1   
    73   37   74 1   
    74   38   39 1   
    75   38   42 1   
    76   38   75 1   
    77   39   40 1   
    78   39   76 1   
    79   39   77 1   
    80   40   41 1   
    81   41   42 1   
    82   41   78 1   
    83   41   79 1   
    84   42   80 1   
    85   42   81 1   
    86   43   82 1   
    87   43   83 1   
    88   43   85 1   
    89   44   85 2   
    90   84   85 1   
    91   84   86 1   
    92   84   87 1   
@<TRIPOS>SUBSTRUCTURE
     1 HH1         1 TEMP              0 ****  ****    0 ROOT
