@<TRIPOS>MOLECULE
HH2
   28    29     1     0     0
SMALL
bcc


@<TRIPOS>ATOM
      1 N1          0.0000    0.0000    0.0000 nb        1 HH2     -0.471000
      2 C2          1.3180    0.0000    0.0000 ca        1 HH2      0.168300
      3 C3          2.0230    0.0000    1.1980 ca        1 HH2      0.375900
      4 N4          1.3890    0.0010    2.3530 nb        1 HH2     -0.663000
      5 N5         -0.6310    0.0020    3.5310 nc        1 HH2     -0.565700
      6 C6         -1.9410    0.0040    3.5570 cd        1 HH2      0.094800
      7 N6         -2.5700    0.0050    4.7750 nv        1 HH2     -0.564800
      8 N7         -2.7070   -0.0030    2.4310 ns        1 HH2     -0.028400
      9 C8         -2.1270   -0.0000    1.2070 c         1 HH2      0.527000
     10 O8         -2.7980   -0.0010    0.1910 o         1 HH2     -0.736500
     11 C9         -0.6560    0.0000    1.1520 ca        1 HH2      0.085500
     12 C10         0.0550    0.0010    2.3730 ca        1 HH2      0.351000
     13 C11         2.0660    0.0000   -1.3070 c3        1 HH2      0.215100
     14 O4          3.4710   -0.0010   -1.0530 os        1 HH2     -0.485200
     15 P1          4.2050   -0.0010   -2.4850 p5        1 HH2      0.899800
     16 O1P         3.8090    1.2070   -3.2430 o         1 HH2     -0.649000
     17 O2P         3.7740   -1.3140   -3.3090 o         1 HH2     -0.649000
     18 O3P         5.8000   -0.0020   -2.2720 os        1 HH2     -0.463800
     19 P2          6.4660   -0.0020   -3.7380 p5        1 HH2      0.797900
     20 O4P         6.0360    1.2070   -4.4750 o         1 HH2     -0.618500
     21 O5P         8.0700   -0.0020   -3.5990 o         1 HH2     -0.618500
     22 O6P         5.9960   -1.3160   -4.5400 o         1 HH2     -0.618500
     23 H31         3.0480    0.0020    1.5490 h4        1 HH2     -0.007900
     24 HN61       -2.7800    0.8720    5.2290 hn        1 HH2      0.227300
     25 HN62       -2.7710   -0.8610    5.2350 hn        1 HH2      0.227300
     26 HN7        -3.7050   -0.0090    2.5080 hn        1 HH2      0.133500
     27 H111        1.8010   -0.8840   -1.8740 h1        1 HH2      0.017200
     28 H112        1.8020    0.8850   -1.8740 h1        1 HH2      0.017200
@<TRIPOS>BOND
     1    1    2 ar  
     2    1   11 ar  
     3    2    3 ar  
     4    2   13 1   
     5    3    4 ar  
     6    3   23 1   
     7    4   12 ar  
     8    5    6 2   
     9    5   12 1   
    10    6    7 1   
    11    6    8 1   
    12    7   24 1   
    13    7   25 1   
    14    8    9 1   
    15    8   26 1   
    16    9   10 2   
    17    9   11 1   
    18   11   12 ar  
    19   13   14 1   
    20   13   27 1   
    21   13   28 1   
    22   14   15 1   
    23   15   16 1   
    24   15   17 1   
    25   15   18 1   
    26   18   19 1   
    27   19   20 1   
    28   19   21 1   
    29   19   22 1   
@<TRIPOS>SUBSTRUCTURE
     1 HH2         1 TEMP              0 ****  ****    0 ROOT
