@<TRIPOS>MOLECULE
HH3
   23    23     1     0     0
SMALL
bcc


@<TRIPOS>ATOM
      1 O1          0.0060   -1.5830   -0.1670 o         1 HH3     -0.497100
      2 O2          0.6960   -0.2160    3.2840 oh        1 HH3     -0.541800
      3 C1          3.1540    0.8250   -3.2810 ca        1 HH3     -0.071000
      4 C6          3.6660    0.9650   -1.9920 ca        1 HH3     -0.142000
      5 C5          1.3320   -0.5030   -2.4180 ca        1 HH3     -0.066500
      6 C4          1.8500   -0.3670   -1.1160 ca        1 HH3     -0.196600
      7 C3          3.0220    0.3730   -0.9050 ca        1 HH3     -0.066500
      8 C2          1.9850    0.0900   -3.4930 ca        1 HH3     -0.142000
      9 C7          1.1010   -1.0270   -0.0410 c         1 HH3      0.563700
     10 N1          1.6800   -1.0630    1.3230 n4        1 HH3     -0.709800
     11 C9          1.3890    0.1990    2.1500 c3        1 HH3      0.156300
     12 C10         2.7820    0.8960    2.6070 c         1 HH3      0.957600
     13 O3          3.8150    0.2980    2.2160 o         1 HH3     -0.739800
     14 O4          2.6220    1.9570    3.2200 o         1 HH3     -0.739800
     15 HO2        -0.2470   -0.0350    3.1580 ho        1 HH3      0.411000
     16 H3          3.4570    0.5190    0.1050 ha        1 HH3      0.177000
     17 H2          1.5780   -0.0190   -4.5090 ha        1 HH3      0.154000
     18 HN1         2.7200   -1.1220    1.2840 hn        1 HH3      0.469800
     19 H9          0.8070    0.9140    1.5080 hx        1 HH3      0.075700
     20 H1          3.6700    1.2950   -4.1330 ha        1 HH3      0.147000
     21 H6          4.5850    1.5480   -1.8200 ha        1 HH3      0.154000
     22 H12         1.3190   -1.8740    1.8360 hn        1 HH3      0.469800
     23 H5          0.4060   -1.0810   -2.5770 ha        1 HH3      0.177000
@<TRIPOS>BOND
     1    1    9 2   
     2    2   11 1   
     3    2   15 1   
     4    3    4 ar  
     5    3    8 ar  
     6    3   20 1   
     7    4    7 ar  
     8    4   21 1   
     9    5    6 ar  
    10    5    8 ar  
    11    5   23 1   
    12    6    7 ar  
    13    6    9 1   
    14    7   16 1   
    15    8   17 1   
    16    9   10 1   
    17   10   11 1   
    18   10   18 1   
    19   10   22 1   
    20   11   12 1   
    21   11   19 1   
    22   12   13 1   
    23   12   14 1   
@<TRIPOS>SUBSTRUCTURE
     1 HH3         1 TEMP              0 ****  ****    0 ROOT
