@<TRIPOS>MOLECULE
HH3
   23    23     1     0     0
SMALL
bcc


@<TRIPOS>ATOM
      1 O1         -0.0480   -1.5130   -0.1390 o         1 HH3     -0.497100
      2 O2          0.7730   -0.2260    3.3130 oh        1 HH3     -0.541800
      3 C1          3.1030    0.8380   -3.2960 ca        1 HH3     -0.071000
      4 C6          3.6510    0.9400   -2.0180 ca        1 HH3     -0.142000
      5 C5          1.2580   -0.4420   -2.4070 ca        1 HH3     -0.066500
      6 C4          1.8130   -0.3440   -1.1160 ca        1 HH3     -0.196600
      7 C3          3.0140    0.3530   -0.9240 ca        1 HH3     -0.066500
      8 C2          1.9050    0.1460   -3.4890 ca        1 HH3     -0.142000
      9 C7          1.0680   -0.9960   -0.0330 c         1 HH3      0.563700
     10 N1          1.6800   -1.0730    1.3150 ny        1 HH3     -0.709800
     11 C9          1.4520    0.1840    2.1690 c3        1 HH3      0.156300
     12 C10         2.8780    0.8270    2.6000 c         1 HH3      0.957600
     13 O3          3.8810    0.2010    2.1740 o         1 HH3     -0.739800
     14 O4          2.7700    1.8820    3.2350 o         1 HH3     -0.739800
     15 HO2        -0.1650   -0.0120    3.2140 ho        1 HH3      0.411000
     16 H3          3.4780    0.4690    0.0770 ha        1 HH3      0.177000
     17 H2          1.4690    0.0660   -4.4960 ha        1 HH3      0.154000
     18 HN1         1.3050   -1.8800    1.8250 hn        1 HH3      0.469800
     19 H9          0.8790    0.9280    1.5530 hx        1 HH3      0.075700
     20 H1          3.6120    1.3040   -4.1530 ha        1 HH3      0.147000
     21 H6          4.5930    1.4900   -1.8610 ha        1 HH3      0.154000
     22 H12         2.7160   -1.1660    1.2480 hn        1 HH3      0.469800
     23 H5          0.3100   -0.9860   -2.5510 ha        1 HH3      0.177000
@<TRIPOS>BOND
     1    1    9 2   
     2    2   11 1   
     3    2   15 1   
     4    3    4 ar  
     5    3    8 ar  
     6    3   20 1   
     7    4    7 ar  
     8    4   21 1   
     9    5    6 ar  
    10    5    8 ar  
    11    5   23 1   
    12    6    7 ar  
    13    6    9 1   
    14    7   16 1   
    15    8   17 1   
    16    9   10 1   
    17   10   11 1   
    18   10   18 1   
    19   10   22 1   
    20   11   12 1   
    21   11   19 1   
    22   12   13 1   
    23   12   14 1   
@<TRIPOS>SUBSTRUCTURE
     1 HH3         1 TEMP              0 ****  ****    0 ROOT
