@<TRIPOS>MOLECULE
HH3
   22    19     1     0     0
SMALL
bcc


@<TRIPOS>ATOM
      1 O1         -1.8990    0.0540    0.2780 o         1 HH3     -0.667100
      2 O2         -1.8290    1.1600    2.4410 oh        1 HH3     -0.595800
      3 C1          1.5320   -0.0800   -3.3620 c1        1 HH3     -0.073500
      4 C6          2.2000   -0.0190   -2.1500 c1        1 HH3     -0.073500
      5 C5          1.4830    0.0350   -0.9650 c1        1 HH3     -0.073500
      6 C4          0.0980    0.0280   -0.9920 cg        1 HH3     -0.071200
      7 C3         -0.5710   -0.0330   -2.2050 c1        1 HH3     -0.028500
      8 C2          0.1450   -0.0870   -3.3890 c1        1 HH3     -0.073500
      9 C7         -0.6850    0.0490    0.3020 c         1 HH3      0.599300
     10 N1         -0.0000    0.0760    1.5440 n         1 HH3     -0.540900
     11 C9         -0.7090    0.3590    2.7380 c3        1 HH3      0.147500
     12 C10        -1.1680   -0.9340    3.3700 c         1 HH3      0.940600
     13 O3         -2.2590   -1.4540    3.0170 o         1 HH3     -0.814800
     14 O4         -0.4750   -1.4760    4.2700 o         1 HH3     -0.814800
     15 HO2        -1.9290    1.7760    3.0740 ho        1 HH3      0.389000
     16 H1          2.0370   -0.1190   -4.1960 ha        1 HH3      0.071250
     17 H6          3.1760   -0.0150   -2.1310 ha        1 HH3      0.071250
     18 H5          1.9540    0.1050   -0.1120 ha        1 HH3      0.071250
     19 H3         -1.5470   -0.0380   -2.2250 ha        1 HH3      0.094500
     20 H2         -0.3250   -0.1300   -4.2430 ha        1 HH3      0.071250
     21 HN1         0.8960   -0.0920    1.5740 hn        1 HH3      0.333500
     22 H9         -0.1230    0.8360    3.3610 h2        1 HH3      0.038700
@<TRIPOS>BOND
     1    1    9 2   
     2    2   11 1   
     3    2   15 1   
     4    3    8 3   
     5    3   16 1   
     6    4    5 3   
     7    4   17 1   
     8    5   18 1   
     9    6    7 3   
    10    6    9 1   
    11    7   19 1   
    12    8   20 1   
    13    9   10 1   
    14   10   11 1   
    15   10   21 1   
    16   11   12 1   
    17   11   22 1   
    18   12   13 1   
    19   12   14 1   
@<TRIPOS>SUBSTRUCTURE
     1 HH3         1 TEMP              0 ****  ****    0 ROOT
