@<TRIPOS>MOLECULE
HH3
   23    23     1     0     0
SMALL
bcc


@<TRIPOS>ATOM
      1 O1          0.0450   -1.6330   -0.1580 o         1 HH3     -0.497100
      2 O2          0.7510   -0.2870    3.2980 oh        1 HH3     -0.541800
      3 C1          3.0900    0.8880   -3.2860 ca        1 HH3     -0.071000
      4 C6          3.6180    1.0240   -2.0020 ca        1 HH3     -0.142000
      5 C5          1.3120   -0.4920   -2.4140 ca        1 HH3     -0.066500
      6 C4          1.8460   -0.3610   -1.1170 ca        1 HH3     -0.196600
      7 C3          3.0040    0.4030   -0.9140 ca        1 HH3     -0.066500
      8 C2          1.9350    0.1300   -3.4900 ca        1 HH3     -0.142000
      9 C7          1.1280   -1.0520   -0.0400 c         1 HH3      0.563700
     10 N1          1.7270   -1.0900    1.3150 n4        1 HH3     -0.709800
     11 C9          1.4190    0.1560    2.1600 c3        1 HH3      0.156300
     12 C10         2.8030    0.8790    2.6060 c         1 HH3      0.957600
     13 O3          3.8430    0.3080    2.1940 o         1 HH3     -0.739800
     14 O4          2.6280    1.9280    3.2340 o         1 HH3     -0.739800
     15 HO2        -0.1970   -0.1250    3.1870 ho        1 HH3      0.411000
     16 H3          3.4500    0.5460    0.0920 ha        1 HH3      0.177000
     17 H2          1.5150    0.0240   -4.5020 ha        1 HH3      0.154000
     18 HN1         2.7670   -1.1250    1.2600 hn        1 HH3      0.469800
     19 H9          0.8130    0.8650    1.5340 hx        1 HH3      0.075700
     20 H1          3.5820    1.3820   -4.1390 ha        1 HH3      0.147000
     21 H6          4.5260    1.6250   -1.8360 ha        1 HH3      0.154000
     22 H12         1.3910   -1.9140    1.8240 hn        1 HH3      0.469800
     23 H5          0.3970   -1.0890   -2.5670 ha        1 HH3      0.177000
@<TRIPOS>BOND
     1    1    9 2   
     2    2   11 1   
     3    2   15 1   
     4    3    4 ar  
     5    3    8 ar  
     6    3   20 1   
     7    4    7 ar  
     8    4   21 1   
     9    5    6 ar  
    10    5    8 ar  
    11    5   23 1   
    12    6    7 ar  
    13    6    9 1   
    14    7   16 1   
    15    8   17 1   
    16    9   10 1   
    17   10   11 1   
    18   10   18 1   
    19   10   22 1   
    20   11   12 1   
    21   11   19 1   
    22   12   13 1   
    23   12   14 1   
@<TRIPOS>SUBSTRUCTURE
     1 HH3         1 TEMP              0 ****  ****    0 ROOT
