@<TRIPOS>MOLECULE
HH3
   22    22     1     0     0
SMALL
bcc


@<TRIPOS>ATOM
      1 O1          0.2700   -2.1060    0.5530 o         1 HH3     -0.635100
      2 O2         -2.5030   -0.3580    1.6460 oh        1 HH3     -0.635800
      3 C1          4.2210    0.8940   -0.1470 ca        1 HH3     -0.131000
      4 C6          3.9620   -0.3790   -0.6540 ca        1 HH3     -0.146500
      5 C5          2.6960   -0.9450   -0.5080 ca        1 HH3     -0.096000
      6 C4          1.6810   -0.2320    0.1390 ca        1 HH3     -0.122600
      7 C3          1.9430    1.0410    0.6510 ca        1 HH3     -0.096000
      8 C2          3.2130    1.6010    0.5080 ca        1 HH3     -0.146500
      9 C7          0.3350   -0.8830    0.2900 c         1 HH3      0.662700
     10 N1         -0.7620   -0.0980    0.0700 n         1 HH3     -0.543900
     11 C9         -2.1340   -0.5270    0.2830 c3        1 HH3      0.151500
     12 C10        -3.1000    0.3270   -0.6250 c         1 HH3      0.900600
     13 O3         -3.3710    1.4760   -0.1740 o         1 HH3     -0.817300
     14 O4         -3.5210   -0.1870   -1.6860 o         1 HH3     -0.817300
     15 HO2        -2.8670    0.5370    1.7310 ho        1 HH3      0.415000
     16 H5          2.4810   -1.9560   -0.8890 ha        1 HH3      0.147500
     17 H3          1.1560    1.6040    1.1760 ha        1 HH3      0.147500
     18 H2          3.4170    2.6030    0.9120 ha        1 HH3      0.123000
     19 HN1        -0.6340    0.8720   -0.1020 hn        1 HH3      0.308500
     20 H9         -2.2120   -1.6320    0.0830 h2        1 HH3      0.089700
     21 H1          5.2190    1.3400   -0.2630 ha        1 HH3      0.118000
     22 H6          4.7560   -0.9390   -1.1670 ha        1 HH3      0.123000
@<TRIPOS>BOND
     1    1    9 2   
     2    2   11 1   
     3    2   15 1   
     4    3    4 ar  
     5    3    8 ar  
     6    3   21 1   
     7    4    5 ar  
     8    4   22 1   
     9    5    6 ar  
    10    5   16 1   
    11    6    7 ar  
    12    6    9 1   
    13    7    8 ar  
    14    7   17 1   
    15    8   18 1   
    16    9   10 1   
    17   10   11 1   
    18   10   19 1   
    19   11   12 1   
    20   11   20 1   
    21   12   13 1   
    22   12   14 1   
@<TRIPOS>SUBSTRUCTURE
     1 HH3         1 TEMP              0 ****  ****    0 ROOT
