@<TRIPOS>MOLECULE
HH6
   27    18     1     0     0
SMALL
bcc


@<TRIPOS>ATOM
      1 C1         -1.3430    0.0370    0.2470 c1        1 HH6     -0.021750
      2 C2          0.0410    0.0370    0.2470 c1        1 HH6     -0.039000
      3 C3         -1.7620    0.0370    1.5430 c1        1 HH6     -0.021750
      4 C4         -2.2860    0.0370   -0.7980 c1        1 HH6     -0.141250
      5 C5          1.4470    0.0370   -0.3120 c1        1 HH6     -0.021750
      6 N6          0.4600    0.0370    1.5350 n2        1 HH6     -0.049000
      7 N7         -0.6530    0.0370    2.3450 n1        1 HH6     -0.188000
      8 C8         -3.1390    0.0370    1.8370 c1        1 HH6     -0.141250
      9 C9         -3.6410    0.0370   -0.5080 c1        1 HH6     -0.182000
     10 C10         2.0080   -1.1910   -0.6280 c1        1 HH6     -0.141250
     11 C11         2.1710    1.2020   -0.5130 c1        1 HH6     -0.114500
     12 C12        -4.0670    0.0370    0.8090 c1        1 HH6      0.115000
     13 C13         3.2930   -1.2540   -1.1440 c1        1 HH6     -0.141250
     14 C14         3.4560    1.1390   -1.0290 c1        1 HH6     -0.114500
     15 O15        -5.3360    0.3610    1.3230 oh        1 HH6     -0.248000
     16 C16         4.0170   -0.0890   -1.3440 c1        1 HH6     -0.021750
     17 O17         5.3370   -0.1560   -1.8280 o         1 HH6     -0.250000
     18 H1         -1.9860    0.0370   -1.7260 ha        1 HH6      0.140000
     19 H3         -3.4390    0.0370    2.7660 ha        1 HH6      0.140000
     20 H4         -4.2950    0.0370   -1.2320 ha        1 HH6      0.154000
     21 H5          1.4980   -2.0110   -0.4860 ha        1 HH6      0.140000
     22 H6          1.7760    2.0660   -0.2910 ha        1 HH6      0.151500
     23 H7          3.6880   -2.1180   -1.3660 ha        1 HH6      0.140000
     24 H8          3.9660    1.9590   -1.1710 ha        1 HH6      0.151500
     25 H9         -5.8930   -0.3150    1.1830 ho        1 HH6      0.220000
     26 H10         5.3300   -0.1130   -2.7140 ho        1 HH6      0.219000
     27 H2         -0.6520    0.0370    3.2570 DU        1 HH6      0.268000
@<TRIPOS>BOND
     1    1    4 1   
     2    2    6 1   
     3    3    8 1   
     4    4   18 1   
     5    5   10 1   
     6    6    7 1   
     7    8   19 1   
     8    9   12 1   
     9    9   20 1   
    10   10   21 1   
    11   11   14 1   
    12   11   22 1   
    13   12   15 1   
    14   13   16 1   
    15   13   23 1   
    16   14   24 1   
    17   15   25 1   
    18   17   26 1   
@<TRIPOS>SUBSTRUCTURE
     1 HH6         1 TEMP              0 ****  ****    0 ROOT
