@<TRIPOS>MOLECULE
HH6
   27    29     1     0     0
SMALL
bcc


@<TRIPOS>ATOM
      1 C1          1.1420    0.0730    0.0440 ca        1 HH6     -0.235900
      2 C2         -0.0660    0.8900   -0.1020 cc        1 HH6      0.413500
      3 C3          2.2260    1.0160   -0.1240 ca        1 HH6     -0.021200
      4 C4          1.4260   -1.2640    0.3110 ca        1 HH6     -0.025000
      5 C5         -1.4350    0.4120   -0.0140 ca        1 HH6     -0.131900
      6 N6          0.2870    2.1810   -0.3320 nd        1 HH6     -0.513100
      7 N7          1.6240    2.2740   -0.2930 na        1 HH6     -0.014100
      8 C8          3.5660    0.6220   -0.0490 ca        1 HH6     -0.179000
      9 C9          2.7500   -1.6650    0.3870 ca        1 HH6     -0.237000
     10 C10        -1.7740   -0.8410   -0.5410 ca        1 HH6     -0.072000
     11 C11        -2.4280    1.2000    0.5910 ca        1 HH6     -0.072000
     12 C12         3.7990   -0.7320    0.2050 ca        1 HH6      0.154100
     13 C13        -3.0800   -1.3130   -0.4600 ca        1 HH6     -0.190000
     14 C14        -3.7370    0.7420    0.6810 ca        1 HH6     -0.190000
     15 O15         5.1200   -1.1130    0.2700 oh        1 HH6     -0.497100
     16 C16        -4.0600   -0.5190    0.1540 ca        1 HH6      0.131100
     17 O17        -5.3710   -0.9180    0.2740 oh        1 HH6     -0.496100
     18 H1          0.6100   -1.9860    0.4670 ha        1 HH6      0.143000
     19 H3          4.3990    1.3240   -0.1760 ha        1 HH6      0.158000
     20 H4          2.9970   -2.7160    0.5940 ha        1 HH6      0.136000
     21 H5         -1.0020   -1.4540   -1.0310 ha        1 HH6      0.144000
     22 H6         -2.1690    2.1890    0.9990 ha        1 HH6      0.144000
     23 H7         -3.3430   -2.2950   -0.8760 ha        1 HH6      0.143500
     24 H8         -4.5210    1.3490    1.1550 ha        1 HH6      0.143500
     25 H9          5.1490   -2.0630    0.4550 ho        1 HH6      0.422000
     26 H10        -5.4560   -1.7910   -0.1360 ho        1 HH6      0.419000
     27 H2          2.0650    3.0770   -0.6790 hn        1 HH6      0.320700
@<TRIPOS>BOND
     1    1    2 1   
     2    1    3 ar  
     3    1    4 ar  
     4    2    5 1   
     5    2    6 2   
     6    3    7 1   
     7    3    8 ar  
     8    4    9 ar  
     9    4   18 1   
    10    5   10 ar  
    11    5   11 ar  
    12    6    7 1   
    13    7   27 1   
    14    8   12 ar  
    15    8   19 1   
    16    9   12 ar  
    17    9   20 1   
    18   10   13 ar  
    19   10   21 1   
    20   11   14 ar  
    21   11   22 1   
    22   12   15 1   
    23   13   16 ar  
    24   13   23 1   
    25   14   16 ar  
    26   14   24 1   
    27   15   25 1   
    28   16   17 1   
    29   17   26 1   
@<TRIPOS>SUBSTRUCTURE
     1 HH6         1 TEMP              0 ****  ****    0 ROOT
