@<TRIPOS>MOLECULE
HH6
   27    29     1     0     0
SMALL
bcc


@<TRIPOS>ATOM
      1 C1         -0.0040    0.0490   -0.0300 ca        1 HH6     -0.235900
      2 C2          1.4610    0.0060   -0.0140 cc        1 HH6      0.413500
      3 C3         -0.3720   -0.0230    1.3660 ca        1 HH6     -0.021200
      4 C4         -0.9960    0.1620   -1.0000 ca        1 HH6     -0.025000
      5 C5          2.3290    0.0510   -1.1790 ca        1 HH6     -0.131900
      6 N6          1.8970   -0.0820    1.2680 nd        1 HH6     -0.513100
      7 N7          0.8350   -0.0450    2.0870 na        1 HH6     -0.014100
      8 C8         -1.7080   -0.0040    1.7800 ca        1 HH6     -0.179000
      9 C9         -2.3240    0.1810   -0.6020 ca        1 HH6     -0.237000
     10 C10         1.9550   -0.6090   -2.3570 ca        1 HH6     -0.072000
     11 C11         3.5470    0.7490   -1.1340 ca        1 HH6     -0.072000
     12 C12        -2.6670    0.0950    0.7690 ca        1 HH6      0.154100
     13 C13         2.7740   -0.5700   -3.4800 ca        1 HH6     -0.190000
     14 C14         4.3760    0.7990   -2.2480 ca        1 HH6     -0.190000
     15 O15        -3.9790    0.1050    1.1830 oh        1 HH6     -0.497100
     16 C16         3.9840    0.1370   -3.4230 ca        1 HH6      0.131100
     17 O17         4.8440    0.2240   -4.4930 oh        1 HH6     -0.496100
     18 H1         -0.7280    0.2440   -2.0640 ha        1 HH6      0.143000
     19 H3         -2.0040   -0.0590    2.8350 ha        1 HH6      0.158000
     20 H4         -3.1230    0.2670   -1.3510 ha        1 HH6      0.136000
     21 H5          1.0090   -1.1720   -2.3900 ha        1 HH6      0.144000
     22 H6          3.8500    1.2630   -0.2080 ha        1 HH6      0.144000
     23 H7          2.4790   -1.0910   -4.4010 ha        1 HH6      0.143500
     24 H8          5.3290    1.3450   -2.2240 ha        1 HH6      0.143500
     25 H9         -4.5410    0.1830    0.3980 ho        1 HH6      0.422000
     26 H10         4.4620   -0.2800   -5.2260 ho        1 HH6      0.419000
     27 H2          0.9380   -0.3430    3.0290 hn        1 HH6      0.320700
@<TRIPOS>BOND
     1    1    2 1   
     2    1    3 ar  
     3    1    4 ar  
     4    2    5 1   
     5    2    6 2   
     6    3    7 1   
     7    3    8 ar  
     8    4    9 ar  
     9    4   18 1   
    10    5   10 ar  
    11    5   11 ar  
    12    6    7 1   
    13    7   27 1   
    14    8   12 ar  
    15    8   19 1   
    16    9   12 ar  
    17    9   20 1   
    18   10   13 ar  
    19   10   21 1   
    20   11   14 ar  
    21   11   22 1   
    22   12   15 1   
    23   13   16 ar  
    24   13   23 1   
    25   14   16 ar  
    26   14   24 1   
    27   15   25 1   
    28   16   17 1   
    29   17   26 1   
@<TRIPOS>SUBSTRUCTURE
     1 HH6         1 TEMP              0 ****  ****    0 ROOT
