@<TRIPOS>MOLECULE
HHA
   19    19     1     0     0
SMALL
bcc


@<TRIPOS>ATOM
      1 O1          2.3840   -1.0540   -0.5050 o         1 HHA     -0.829800
      2 C           1.9110   -0.0240    0.0580 c         1 HHA      0.901800
      3 O2          2.5980    0.7970    0.7250 o         1 HHA     -0.829800
      4 C1          0.4200    0.2380   -0.0930 ce        1 HHA     -0.165400
      5 C6         -0.0640    1.4780   -0.2830 cf        1 HHA     -0.185000
      6 C5         -1.4760    1.7060   -0.4930 cf        1 HHA     -0.098000
      7 C4         -2.3690    0.7200   -0.3190 c2        1 HHA     -0.244200
      8 C3         -1.9690   -0.6460    0.1390 c3        1 HHA      0.175300
      9 O3'        -2.2820   -0.8020    1.5220 oh        1 HHA     -0.615800
     10 C2         -0.4660   -0.9830   -0.0910 c3        1 HHA      0.171700
     11 N2         -0.2850   -1.8210   -1.2700 n3        1 HHA     -0.897800
     12 H6          0.6100    2.3470   -0.2770 ha        1 HHA      0.139000
     13 H5         -1.7850    2.7140   -0.8100 ha        1 HHA      0.104000
     14 H4         -3.4460    0.8700   -0.4730 ha        1 HHA      0.107000
     15 H3         -2.6210   -1.4210   -0.3590 h1        1 HHA      0.073700
     16 H3'        -1.7070   -0.1990    2.0080 ho        1 HHA      0.401000
     17 H2         -0.1470   -1.6140    0.7970 h1        1 HHA      0.077700
     18 HN21       -0.4100   -1.2640   -2.0950 hn        1 HHA      0.356800
     19 HN22        0.6690   -2.1520   -1.2680 hn        1 HHA      0.356800
@<TRIPOS>BOND
     1    1    2 1   
     2    2    3 1   
     3    2    4 1   
     4    4    5 2   
     5    4   10 1   
     6    5    6 1   
     7    5   12 1   
     8    6    7 2   
     9    6   13 1   
    10    7    8 1   
    11    7   14 1   
    12    8    9 1   
    13    8   10 1   
    14    8   15 1   
    15    9   16 1   
    16   10   11 1   
    17   10   17 1   
    18   11   18 1   
    19   11   19 1   
@<TRIPOS>SUBSTRUCTURE
     1 HHA         1 TEMP              0 ****  ****    0 ROOT
