@<TRIPOS>MOLECULE
HHA
   20    20     1     0     0
SMALL
bcc


@<TRIPOS>ATOM
      1 O1          0.1750   -0.7900   -0.0860 oh        1 HHA     -0.578100
      2 C           1.4100   -0.2190   -0.1240 c         1 HHA      0.640300
      3 O2          1.8080    0.1530    0.9850 o         1 HHA     -0.504000
      4 C1          2.1550   -0.0700   -1.3890 ce        1 HHA     -0.210400
      5 C6          3.4990    0.0420   -1.3620 cf        1 HHA     -0.047000
      6 C5          4.2610    0.2290   -2.5790 cf        1 HHA     -0.140000
      7 C4          3.6430    0.5380   -3.7280 c2        1 HHA     -0.175200
      8 C3          2.1580    0.6970   -3.8140 c3        1 HHA      0.135300
      9 O3'         1.7930    2.0670   -3.8380 oh        1 HHA     -0.581800
     10 C2          1.3750   -0.0350   -2.6790 c3        1 HHA      0.168700
     11 N2          0.9130   -1.3650   -3.0340 n3        1 HHA     -0.919800
     12 H6          4.0500    0.0180   -0.4050 ha        1 HHA      0.163000
     13 H5          5.3550    0.1210   -2.5120 ha        1 HHA      0.146000
     14 H4          4.1960    0.7240   -4.6610 ha        1 HHA      0.145000
     15 H3          1.8010    0.3210   -4.8200 h1        1 HHA      0.082700
     16 H3'         2.1340    2.4740   -3.0320 ho        1 HHA      0.409000
     17 H2          0.4430    0.5920   -2.5020 h1        1 HHA      0.088700
     18 HN21        0.3910   -1.3380   -3.8870 hn        1 HHA      0.363300
     19 HN22       -0.0690   -1.1570   -0.9490 ho        1 HHA      0.452000
     20 H23         1.6770   -2.0040   -3.1280 hn        1 HHA      0.363300
@<TRIPOS>BOND
     1    1    2 1   
     2    1   19 1   
     3    2    3 2   
     4    2    4 1   
     5    4    5 2   
     6    4   10 1   
     7    5    6 1   
     8    5   12 1   
     9    6    7 2   
    10    6   13 1   
    11    7    8 1   
    12    7   14 1   
    13    8    9 1   
    14    8   10 1   
    15    8   15 1   
    16    9   16 1   
    17   10   11 1   
    18   10   17 1   
    19   11   18 1   
    20   11   20 1   
@<TRIPOS>SUBSTRUCTURE
     1 HHA         1 TEMP              0 ****  ****    0 ROOT
