@<TRIPOS>MOLECULE
HHA
   20    20     1     0     0
SMALL
bcc


@<TRIPOS>ATOM
      1 O1          0.1870   -0.8440   -0.0860 oh        1 HHA     -0.578100
      2 C           1.4210   -0.2710   -0.1210 c         1 HHA      0.640300
      3 O2          1.8270    0.0810    0.9910 o         1 HHA     -0.504000
      4 C1          2.1570   -0.0960   -1.3890 ce        1 HHA     -0.210400
      5 C6          3.5010    0.0170   -1.3680 cf        1 HHA     -0.047000
      6 C5          4.2550    0.2280   -2.5870 cf        1 HHA     -0.140000
      7 C4          3.6280    0.5580   -3.7260 c2        1 HHA     -0.175200
      8 C3          2.1430    0.7180   -3.7990 c3        1 HHA      0.135300
      9 O3'         1.7770    2.0880   -3.7930 oh        1 HHA     -0.581800
     10 C2          1.3680   -0.0370   -2.6730 c3        1 HHA      0.168700
     11 N2          0.9050   -1.3600   -3.0500 n8        1 HHA     -0.919800
     12 H6          4.0590   -0.0250   -0.4160 ha        1 HHA      0.163000
     13 H5          5.3490    0.1190   -2.5300 ha        1 HHA      0.146000
     14 H4          4.1750    0.7630   -4.6590 ha        1 HHA      0.145000
     15 H3          1.7790    0.3610   -4.8090 h1        1 HHA      0.082700
     16 H3'         2.1230    2.4790   -2.9810 ho        1 HHA      0.409000
     17 H2          0.4370    0.5850   -2.4760 h1        1 HHA      0.088700
     18 HN21        0.3770   -1.3170   -3.8990 hn        1 HHA      0.363300
     19 HN22       -0.0620   -1.1950   -0.9540 ho        1 HHA      0.452000
     20 H23         1.6690   -1.9960   -3.1620 hn        1 HHA      0.363300
@<TRIPOS>BOND
     1    1    2 1   
     2    1   19 1   
     3    2    3 2   
     4    2    4 1   
     5    4    5 2   
     6    4   10 1   
     7    5    6 1   
     8    5   12 1   
     9    6    7 2   
    10    6   13 1   
    11    7    8 1   
    12    7   14 1   
    13    8    9 1   
    14    8   10 1   
    15    8   15 1   
    16    9   16 1   
    17   10   11 1   
    18   10   17 1   
    19   11   18 1   
    20   11   20 1   
@<TRIPOS>SUBSTRUCTURE
     1 HHA         1 TEMP              0 ****  ****    0 ROOT
