@<TRIPOS>MOLECULE
HHA
   20    20     1     0     0
SMALL
bcc


@<TRIPOS>ATOM
      1 O1          0.2480   -0.8590   -0.0460 oh        1 HHA     -0.578100
      2 C           1.5220   -0.3830   -0.1140 c         1 HHA      0.640300
      3 O2          2.0140   -0.1480    0.9940 o         1 HHA     -0.504000
      4 C1          2.2010   -0.1740   -1.4080 ce        1 HHA     -0.210400
      5 C6          3.5490   -0.1700   -1.4590 cf        1 HHA     -0.047000
      6 C5          4.2520    0.0710   -2.7030 cf        1 HHA     -0.140000
      7 C4          3.5950    0.5340   -3.7760 c2        1 HHA     -0.175200
      8 C3          2.1260    0.8170   -3.7490 c3        1 HHA      0.135300
      9 O3'         1.8760    2.2070   -3.6260 oh        1 HHA     -0.581800
     10 C2          1.3530    0.0440   -2.6350 c3        1 HHA      0.168700
     11 N2          0.7610   -1.2070   -3.0760 n3        1 HHA     -0.919800
     12 H6          4.1510   -0.3270   -0.5470 ha        1 HHA      0.163000
     13 H5          5.3340   -0.1280   -2.7180 ha        1 HHA      0.146000
     14 H4          4.1060    0.7640   -4.7230 ha        1 HHA      0.145000
     15 H3          1.6800    0.5660   -4.7580 h1        1 HHA      0.082700
     16 H3'         2.2980    2.5080   -2.8110 ho        1 HHA      0.409000
     17 H2          0.4880    0.7210   -2.3410 h1        1 HHA      0.088700
     18 HN21       -0.0750   -1.1230   -0.9200 ho        1 HHA      0.452000
     19 HN22        0.1940   -1.0590   -3.8870 hn        1 HHA      0.363300
     20 H23         1.4630   -1.8910   -3.2780 hn        1 HHA      0.363300
@<TRIPOS>BOND
     1    1    2 1   
     2    1   18 1   
     3    2    3 2   
     4    2    4 1   
     5    4    5 2   
     6    4   10 1   
     7    5    6 1   
     8    5   12 1   
     9    6    7 2   
    10    6   13 1   
    11    7    8 1   
    12    7   14 1   
    13    8    9 1   
    14    8   10 1   
    15    8   15 1   
    16    9   16 1   
    17   10   11 1   
    18   10   17 1   
    19   11   19 1   
    20   11   20 1   
@<TRIPOS>SUBSTRUCTURE
     1 HHA         1 TEMP              0 ****  ****    0 ROOT
