@<TRIPOS>MOLECULE
HHA
   19    17     1     0     0
SMALL
bcc


@<TRIPOS>ATOM
      1 O1         -2.0750    0.4510    2.3920 o         1 HHA     -0.564500
      2 C          -0.8160    0.4510    2.3920 c2        1 HHA      0.352000
      3 O2         -0.1870    0.4510    3.4830 o         1 HHA     -0.564500
      4 C1         -0.0600    0.4780    1.0830 c2        1 HHA     -0.142000
      5 C6          0.1220    1.7980    0.3290 c1        1 HHA     -0.185000
      6 C5          0.4000    1.7430   -1.2070 c1        1 HHA     -0.169000
      7 C4          0.2800    0.3920   -1.9200 c1        1 HHA     -0.169000
      8 C3         -0.2670   -0.7730   -1.1450 c2        1 HHA      0.060000
      9 O3'        -1.7310   -0.8030   -1.2410 oh        1 HHA     -0.343000
     10 C2          0.2090   -0.8060    0.3420 c3        1 HHA     -0.030000
     11 N2          1.6430   -1.1970    0.4410 n3        1 HHA     -0.330000
     12 H6          0.2770    2.6250    0.8240 ha        1 HHA      0.139000
     13 H5          0.4320    2.5690   -1.7270 ha        1 HHA      0.105500
     14 H4          0.3360    0.3470   -2.8930 ha        1 HHA      0.105500
     15 H3         -0.0380   -1.6140   -1.5840 h4        1 HHA      0.113000
     16 H3'        -1.9750   -1.3910   -1.8600 ho        1 HHA      0.200000
     17 H2         -0.2150   -1.5520    0.8080 h1        1 HHA      0.117000
     18 HN21        1.9240   -1.1070    1.3040 hn        1 HHA      0.152000
     19 HN22        1.7410   -2.0640    0.1780 hn        1 HHA      0.152000
@<TRIPOS>BOND
     1    1    2 1   
     2    2    3 1   
     3    2    4 1   
     4    4    5 1   
     5    4   10 1   
     6    5   12 1   
     7    6    7 1   
     8    6   13 1   
     9    7   14 1   
    10    8    9 1   
    11    8   10 1   
    12    8   15 1   
    13    9   16 1   
    14   10   11 1   
    15   10   17 1   
    16   11   18 1   
    17   11   19 1   
@<TRIPOS>SUBSTRUCTURE
     1 HHA         1 TEMP              0 ****  ****    0 ROOT
