@<TRIPOS>MOLECULE
HHE
   84    84     1     0     0
SMALL
bcc


@<TRIPOS>ATOM
      1 C1          1.1030   -4.6080    1.2270 c3        1 HHE      0.009000
      2 C2          2.4820   -4.0900    1.1200 c3        1 HHE     -0.137500
      3 C3          1.0700   -5.8710    2.2060 c3        1 HHE     -0.137500
      4 C4          3.3020   -5.3370    0.1340 c3        1 HHE     -0.193500
      5 C5          1.9180   -7.1310    1.2340 c3        1 HHE     -0.193500
      6 C6          3.3310   -6.5130    1.1940 c3        1 HHE      0.043000
      7 C7          1.7200   -5.8060    2.9280 c3        1 HHE     -0.095000
      8 C8          2.9210   -5.3980    2.4270 c3        1 HHE     -0.313000
      9 C9          3.0680   -4.2480    2.0530 c3        1 HHE     -0.095000
     10 C10         3.4020   -5.7320    2.5450 c3        1 HHE     -0.073000
     11 O11         4.3880   -7.4610    1.0060 oh        1 HHE     -0.305000
     12 N12         0.2550   -3.5930    1.7370 n         1 HHE     -0.371000
     13 C13        -2.3690    0.3220    0.7510 c3        1 HHE     -0.013000
     14 C14        -2.2940    1.2300   -0.4820 c3        1 HHE     -0.066000
     15 C15        -1.6370    2.5780   -0.0940 c3        1 HHE     -0.064000
     16 N16        -3.5980    1.4710   -0.9750 n3        1 HHE     -0.319000
     17 N17        -1.4470    3.3810   -1.2840 n3        1 HHE     -0.243000
     18 C18        -0.3000    2.9550   -1.9620 c3        1 HHE     -0.087000
     19 C19        -0.0230    3.9540   -3.1890 c1        1 HHE      0.311000
     20 N20        -0.0240    5.3180   -2.8100 n2        1 HHE     -0.290000
     21 C21        -1.1670    5.6860   -2.0370 c3        1 HHE     -0.011000
     22 C22        -1.4150    4.8230   -0.9140 c3        1 HHE      0.020000
     23 C23        -2.7590    5.2010   -0.2850 c3        1 HHE     -0.225500
     24 C24        -0.2770    5.0500    0.1460 c3        1 HHE     -0.225500
     25 C25         0.6500    6.3140   -3.6430 c1        1 HHE      0.072000
     26 C26         1.8860    6.8180   -3.2560 c1        1 HHE     -0.120500
     27 C27         2.5390    7.7650   -4.0600 c1        1 HHE     -0.120500
     28 C28         1.9460    8.2000   -5.2480 c1        1 HHE     -0.120500
     29 C29         0.7100    7.6950   -5.6340 c1        1 HHE     -0.120500
     30 C30         0.0590    6.7500   -4.8330 c1        1 HHE     -0.073000
     31 O31         0.6560    3.5830   -4.1450 o         1 HHE     -0.356000
     32 CL         -1.3990    6.7230   -5.7790 cl        1 HHE     -0.013000
     33 C33        -2.3290   -1.1390    0.3120 c3        1 HHE     -0.153000
     34 C34        -1.7790   -2.0220    1.4810 c3        1 HHE     -0.113000
     35 C35        -0.8550   -3.0900    0.9230 c2        1 HHE      0.300000
     36 O36        -1.0440   -3.5310   -0.1610 o         1 HHE     -0.369000
     37 C37        -2.9160   -2.6770    2.1980 c3        1 HHE     -0.167000
     38 O38        -3.5580    0.5690    1.4430 oh        1 HHE     -0.328000
     39 C39        -2.7240   -2.5190    3.7060 c3        1 HHE     -0.218000
     40 H1          0.7850   -4.8780    0.3410 h1        1 HHE      0.129000
     41 H2          2.5520   -3.1800    0.7450 hc        1 HHE      0.110000
     42 H3          0.1750   -6.1380    2.4940 hc        1 HHE      0.110000
     43 H4          2.7760   -5.5760   -0.6460 hc        1 HHE      0.093250
     44 H5          4.2380   -5.0480   -0.1200 hc        1 HHE      0.093250
     45 H6          1.9200   -8.0110    1.7050 hc        1 HHE      0.093250
     46 H7          1.5480   -7.2030    0.3600 hc        1 HHE      0.093250
     47 H8          1.8230   -6.6780    3.3480 hc        1 HHE      0.090500
     48 H9          1.4080   -5.1650    3.5880 hc        1 HHE      0.090500
     49 H10         2.7730   -5.7590    1.5370 hc        1 HHE      0.151000
     50 H11         2.7420   -3.6200    2.7630 hc        1 HHE      0.090500
     51 H12         3.9920   -4.0830    1.8820 hc        1 HHE      0.090500
     52 H13         3.2670   -6.3070    3.3020 hc        1 HHE      0.102500
     53 H14         4.2170   -5.1920    2.6200 hc        1 HHE      0.102500
     54 H15         4.2180   -7.9660    0.2670 ho        1 HHE      0.202000
     55 H16         0.4670   -3.1760    2.5110 hn        1 HHE      0.222000
     56 H17        -1.6410    0.4970    1.3100 h1        1 HHE      0.076000
     57 H18        -1.7390    0.7770   -1.2000 h1        1 HHE      0.108000
     58 H19        -0.7600    2.4070    0.3340 h1        1 HHE      0.070500
     59 H20        -2.2160    3.0540    0.5300 h1        1 HHE      0.070500
     60 H21        -3.8120    0.8230   -1.6390 hn        1 HHE      0.153000
     61 H22        -4.2200    1.4130   -0.2660 hn        1 HHE      0.153000
     62 H25        -0.2700    1.9830   -2.1470 h1        1 HHE      0.121500
     63 H26         0.4640    3.0350   -1.3550 h1        1 HHE      0.121500
     64 H27        -1.9860    5.6720   -2.6400 h1        1 HHE      0.101000
     65 H28        -1.0400    6.5950   -1.7070 h1        1 HHE      0.101000
     66 H29        -2.8380    4.7860    0.5730 hc        1 HHE      0.083000
     67 H30        -2.8110    6.1830   -0.1800 hc        1 HHE      0.083000
     68 H31        -3.4640    4.9040   -0.8460 hc        1 HHE      0.083000
     69 H32         0.5570    4.5850   -0.1540 hc        1 HHE      0.083000
     70 H33        -0.1010    6.0100    0.2340 hc        1 HHE      0.083000
     71 H34        -0.5510    4.6990    0.9880 hc        1 HHE      0.083000
     72 H35         2.3020    6.5110   -2.4200 ha        1 HHE      0.144500
     73 H36         3.4370    8.1330   -3.7790 ha        1 HHE      0.144500
     74 H37         2.4080    8.8690   -5.8170 ha        1 HHE      0.144500
     75 H38         0.2890    8.0020   -6.4760 ha        1 HHE      0.144500
     76 H39        -1.7460   -1.2280   -0.4610 hc        1 HHE      0.114500
     77 H40        -3.2450   -1.4380    0.0730 hc        1 HHE      0.114500
     78 H41        -1.2840   -1.4590    2.1050 hc        1 HHE      0.097000
     79 H42        -3.7530   -2.2590    1.9290 hc        1 HHE      0.106000
     80 H43        -2.9390   -3.6320    1.9710 hc        1 HHE      0.106000
     81 H44        -3.3660    0.9100    2.2590 ho        1 HHE      0.198000
     82 H45        -3.3830   -1.8610    4.0580 hc        1 HHE      0.074333
     83 H46        -2.8640   -3.4110    4.1580 hc        1 HHE      0.074333
     84 H47        -1.8220   -2.2020    3.8870 hc        1 HHE      0.074333
@<TRIPOS>BOND
     1    1    2 1   
     2    1    3 1   
     3    1   12 1   
     4    1   40 1   
     5    2    4 1   
     6    2    9 1   
     7    2   41 1   
     8    3    5 1   
     9    3    7 1   
    10    3   42 1   
    11    4    6 1   
    12    4   43 1   
    13    4   44 1   
    14    5    6 1   
    15    5   45 1   
    16    5   46 1   
    17    6   10 1   
    18    6   11 1   
    19    7    8 1   
    20    7   47 1   
    21    7   48 1   
    22    8    9 1   
    23    8   10 1   
    24    8   49 1   
    25    9   50 1   
    26    9   51 1   
    27   10   52 1   
    28   10   53 1   
    29   11   54 1   
    30   12   35 1   
    31   12   55 1   
    32   13   14 1   
    33   13   33 1   
    34   13   38 1   
    35   13   56 1   
    36   14   15 1   
    37   14   16 1   
    38   14   57 1   
    39   15   17 1   
    40   15   58 1   
    41   15   59 1   
    42   16   60 1   
    43   16   61 1   
    44   17   18 1   
    45   17   22 1   
    46   18   19 1   
    47   18   62 1   
    48   18   63 1   
    49   19   31 1   
    50   20   21 1   
    51   20   25 1   
    52   21   22 1   
    53   21   64 1   
    54   21   65 1   
    55   22   23 1   
    56   22   24 1   
    57   23   66 1   
    58   23   67 1   
    59   23   68 1   
    60   24   69 1   
    61   24   70 1   
    62   24   71 1   
    63   25   30 1   
    64   26   27 1   
    65   26   72 1   
    66   27   73 1   
    67   28   29 1   
    68   28   74 1   
    69   29   75 1   
    70   30   32 1   
    71   33   34 1   
    72   33   76 1   
    73   33   77 1   
    74   34   35 1   
    75   34   37 1   
    76   34   78 1   
    77   35   36 1   
    78   37   39 1   
    79   37   79 1   
    80   37   80 1   
    81   38   81 1   
    82   39   82 1   
    83   39   83 1   
    84   39   84 1   
@<TRIPOS>SUBSTRUCTURE
     1 HHE         1 TEMP              0 ****  ****    0 ROOT
