@<TRIPOS>MOLECULE
HHE
   86    90     1     0     0
SMALL
bcc


@<TRIPOS>ATOM
      1 C1         -0.1780    0.2270   -0.1860 c3        1 HHE      0.124500
      2 C2          0.8260    0.9970    0.6960 c3        1 HHE     -0.073200
      3 C3          0.0850   -1.2900   -0.0540 c3        1 HHE     -0.073200
      4 C4          2.2190    0.7250    0.1350 c3        1 HHE     -0.090400
      5 C5          1.4820   -1.5540   -0.6080 c3        1 HHE     -0.090400
      6 C6          2.5190   -0.7790    0.2190 c3        1 HHE      0.155800
      7 C7          0.0180   -1.7280    1.4040 c3        1 HHE     -0.089900
      8 C8          1.0490   -0.9630    2.2260 c3        1 HHE     -0.062700
      9 C9          0.7630    0.5320    2.1460 c3        1 HHE     -0.089900
     10 C10         2.4450   -1.2400    1.6810 c3        1 HHE     -0.110400
     11 O11         3.8150   -0.9440   -0.3240 oh        1 HHE     -0.570800
     12 N12        -1.6150    0.5620    0.1540 n4        1 HHE     -0.673800
     13 C13        -2.4450    5.5700    0.3550 c3        1 HHE      0.127100
     14 C14        -2.4880    6.7400   -0.6660 c3        1 HHE      0.076500
     15 C15        -1.7700    7.9810   -0.0480 c3        1 HHE      0.156800
     16 N16        -3.8920    7.0780   -1.0630 n4        1 HHE     -0.822600
     17 N17        -1.9260    9.1450   -0.8940 n3        1 HHE     -0.774600
     18 C18        -0.8650    9.2460   -1.8840 c3        1 HHE      0.080800
     19 C19        -0.9870   10.4340   -2.8460 c         1 HHE      0.704500
     20 N20        -1.5700   11.5910   -2.3570 n         1 HHE     -0.382000
     21 C21        -2.4700   11.5440   -1.2320 c3        1 HHE      0.110000
     22 C22        -2.1730   10.4210   -0.1830 c3        1 HHE      0.178200
     23 C23        -3.4270   10.3420    0.7040 c3        1 HHE     -0.113100
     24 C24        -1.0010   10.8710    0.6980 c3        1 HHE     -0.113100
     25 C25        -1.5400   12.8020   -3.1100 ca        1 HHE      0.016600
     26 C26        -2.1790   12.8890   -4.3630 ca        1 HHE     -0.107000
     27 C27        -2.1430   14.0740   -5.0910 ca        1 HHE     -0.115000
     28 C28        -1.4760   15.1910   -4.5900 ca        1 HHE     -0.099000
     29 C29        -0.8290   15.1220   -3.3580 ca        1 HHE     -0.111000
     30 C30        -0.8510   13.9360   -2.6200 ca        1 HHE      0.022400
     31 O31        -0.4980   10.3230   -3.9800 o         1 HHE     -0.585500
     32 CL         -0.0270   13.8900   -1.1320 cl        1 HHE     -0.089400
     33 C33        -2.7510    4.2370   -0.3300 c3        1 HHE     -0.102400
     34 C34        -2.2700    3.0340    0.4820 c3        1 HHE     -0.118700
     35 C35        -2.0670    1.8590   -0.4570 c         1 HHE      0.543100
     36 O36        -2.2260    1.8570   -1.6690 o         1 HHE     -0.414100
     37 C37        -3.2280    2.6860    1.6150 c3        1 HHE     -0.105400
     38 O38        -3.4340    5.7900    1.3460 oh        1 HHE     -0.608800
     39 C39        -4.4900    1.9910    1.1750 c3        1 HHE     -0.110100
     40 H1         -0.0380    0.5270   -1.2700 hx        1 HHE      0.116700
     41 H2          0.6180    2.0990    0.6370 hc        1 HHE      0.058700
     42 H3         -0.6630   -1.8670   -0.6640 hc        1 HHE      0.058700
     43 H4          2.9840    1.2880    0.7310 hc        1 HHE      0.081700
     44 H5          2.2970    1.0640   -0.9290 hc        1 HHE      0.081700
     45 H6          1.6980   -2.6530   -0.5550 hc        1 HHE      0.081700
     46 H7          1.5500   -1.2460   -1.6830 hc        1 HHE      0.081700
     47 H8         -1.0080   -1.5670    1.8230 hc        1 HHE      0.056450
     48 H9          0.2320   -2.8280    1.4650 hc        1 HHE      0.056450
     49 H10         0.9950   -1.2970    3.2980 hc        1 HHE      0.089700
     50 H11         1.5340    1.0910    2.7400 hc        1 HHE      0.056450
     51 H12        -0.2340    0.7620    2.6030 hc        1 HHE      0.056450
     52 H13         2.6720   -2.3360    1.7460 hc        1 HHE      0.076200
     53 H14         3.2160   -0.6950    2.2840 hc        1 HHE      0.076200
     54 H15         4.0800   -1.8610   -0.1710 ho        1 HHE      0.424000
     55 H16        -2.2070   -0.1980   -0.2130 hn        1 HHE      0.465800
     56 H17        -1.4100    5.5540    0.7980 h1        1 HHE      0.087700
     57 H18        -1.9430    6.4340   -1.6090 hx        1 HHE      0.118700
     58 H19        -0.6900    7.6750    0.0830 h1        1 HHE      0.075200
     59 H20        -2.2020    8.1640    0.9760 h1        1 HHE      0.075200
     60 H21        -4.4320    7.3040   -0.2180 hn        1 HHE      0.469800
     61 H22        -4.3260    6.2840   -1.5360 hn        1 HHE      0.469800
     62 H25         0.1580    9.3350   -1.4100 h1        1 HHE      0.071200
     63 H26        -0.8800    8.3090   -2.5100 h1        1 HHE      0.071200
     64 H27        -2.4190   12.5320   -0.6890 h1        1 HHE      0.065700
     65 H28        -3.5260   11.4030   -1.6080 h1        1 HHE      0.065700
     66 H29        -3.7590   11.3810    0.9530 hc        1 HHE      0.053033
     67 H30        -4.2670    9.8230    0.1850 hc        1 HHE      0.053033
     68 H31        -3.2090    9.8190    1.6660 hc        1 HHE      0.053033
     69 H32        -1.3000   11.7820    1.2730 hc        1 HHE      0.053033
     70 H33        -0.7190   10.0720    1.4240 hc        1 HHE      0.053033
     71 H34        -0.1100   11.1300    0.0770 hc        1 HHE      0.053033
     72 H35        -2.6870   12.0070   -4.7830 ha        1 HHE      0.143000
     73 H36        -2.6430   14.1250   -6.0720 ha        1 HHE      0.153000
     74 H37        -1.4500   16.1270   -5.1700 ha        1 HHE      0.158000
     75 H38        -0.2910   16.0010   -2.9670 ha        1 HHE      0.165000
     76 H39        -3.8580    4.1450   -0.4910 hc        1 HHE      0.083200
     77 H40        -2.2490    4.2300   -1.3360 hc        1 HHE      0.083200
     78 H41        -1.2580    3.2740    0.9270 hc        1 HHE      0.098700
     79 H42        -2.6930    2.0580    2.3780 hc        1 HHE      0.079700
     80 H43        -3.5060    3.6480    2.1320 hc        1 HHE      0.079700
     81 H44        -3.0130    6.2010    2.1140 ho        1 HHE      0.445000
     82 H45        -5.1330    1.7790    2.0660 hc        1 HHE      0.055033
     83 H46        -4.2740    1.0200    0.6670 hc        1 HHE      0.055033
     84 H47        -5.0820    2.6280    0.4720 hc        1 HHE      0.055033
     85 H122       -1.7220    0.5920    1.1740 hn        1 HHE      0.465800
     86 H163       -3.8860    7.8990   -1.6870 hn        1 HHE      0.469800
@<TRIPOS>BOND
     1    1    2 1   
     2    1    3 1   
     3    1   12 1   
     4    1   40 1   
     5    2    4 1   
     6    2    9 1   
     7    2   41 1   
     8    3    5 1   
     9    3    7 1   
    10    3   42 1   
    11    4    6 1   
    12    4   43 1   
    13    4   44 1   
    14    5    6 1   
    15    5   45 1   
    16    5   46 1   
    17    6   10 1   
    18    6   11 1   
    19    7    8 1   
    20    7   47 1   
    21    7   48 1   
    22    8    9 1   
    23    8   10 1   
    24    8   49 1   
    25    9   50 1   
    26    9   51 1   
    27   10   52 1   
    28   10   53 1   
    29   11   54 1   
    30   12   35 1   
    31   12   55 1   
    32   12   85 1   
    33   13   14 1   
    34   13   33 1   
    35   13   38 1   
    36   13   56 1   
    37   14   15 1   
    38   14   16 1   
    39   14   57 1   
    40   15   17 1   
    41   15   58 1   
    42   15   59 1   
    43   16   60 1   
    44   16   61 1   
    45   16   86 1   
    46   17   18 1   
    47   17   22 1   
    48   18   19 1   
    49   18   62 1   
    50   18   63 1   
    51   19   20 1   
    52   19   31 2   
    53   20   21 1   
    54   20   25 1   
    55   21   22 1   
    56   21   64 1   
    57   21   65 1   
    58   22   23 1   
    59   22   24 1   
    60   23   66 1   
    61   23   67 1   
    62   23   68 1   
    63   24   69 1   
    64   24   70 1   
    65   24   71 1   
    66   25   26 ar  
    67   25   30 ar  
    68   26   27 ar  
    69   26   72 1   
    70   27   28 ar  
    71   27   73 1   
    72   28   29 ar  
    73   28   74 1   
    74   29   30 ar  
    75   29   75 1   
    76   30   32 1   
    77   33   34 1   
    78   33   76 1   
    79   33   77 1   
    80   34   35 1   
    81   34   37 1   
    82   34   78 1   
    83   35   36 2   
    84   37   39 1   
    85   37   79 1   
    86   37   80 1   
    87   38   81 1   
    88   39   82 1   
    89   39   83 1   
    90   39   84 1   
@<TRIPOS>SUBSTRUCTURE
     1 HHE         1 TEMP              0 ****  ****    0 ROOT
