@<TRIPOS>MOLECULE
HHE
   84    88     1     0     0
SMALL
bcc


@<TRIPOS>ATOM
      1 C1         -6.1790    0.6760   -0.0680 c3        1 HHE      0.101700
      2 C2         -6.8020    1.2570   -1.3630 c3        1 HHE     -0.073700
      3 C3         -7.3090   -0.0230    0.7340 c3        1 HHE     -0.073700
      4 C4         -7.8280    2.3120   -0.9670 c3        1 HHE     -0.080400
      5 C5         -8.3360    1.0310    1.1270 c3        1 HHE     -0.080400
      6 C6         -8.9390    1.6540   -0.1400 c3        1 HHE      0.148800
      7 C7         -7.9820   -1.1050   -0.1010 c3        1 HHE     -0.072900
      8 C8         -8.5840   -0.4910   -1.3600 c3        1 HHE     -0.060700
      9 C9         -7.4820    0.1680   -2.1820 c3        1 HHE     -0.072900
     10 C10        -9.6200    0.5560   -0.9700 c3        1 HHE     -0.099400
     11 O11        -9.8620    2.6840    0.1900 oh        1 HHE     -0.591800
     12 N12        -5.0460   -0.1760   -0.3320 n         1 HHE     -0.563900
     13 C13        -0.3060   -1.4360    0.1700 c3        1 HHE      0.147100
     14 C14         0.9850   -0.7400    0.6850 c3        1 HHE      0.136500
     15 C15         2.1200   -1.1310   -0.3050 c3        1 HHE      0.122800
     16 N16         1.2460   -1.0420    2.0760 n3        1 HHE     -0.896800
     17 N17         3.4390   -0.7020    0.1360 n3        1 HHE     -0.730600
     18 C18         3.5820    0.7420    0.0680 c3        1 HHE      0.095800
     19 C19         4.9630    1.2960    0.4150 c         1 HHE      0.703500
     20 N20         6.0710    0.4760    0.2170 n         1 HHE     -0.383000
     21 C21         5.9010   -0.9570    0.1320 c3        1 HHE      0.102000
     22 C22         4.5550   -1.4150   -0.5160 c3        1 HHE      0.187200
     23 C23         4.4870   -2.9330   -0.2720 c3        1 HHE     -0.107600
     24 C24         4.6430   -1.1940   -2.0330 c3        1 HHE     -0.107600
     25 C25         7.3800    0.9480    0.5100 ca        1 HHE      0.050600
     26 C26         7.6890    1.4780    1.7810 ca        1 HHE     -0.112000
     27 C27         8.9710    1.9340    2.0680 ca        1 HHE     -0.121000
     28 C28         9.9750    1.8710    1.1030 ca        1 HHE     -0.122000
     29 C29         9.6900    1.3660   -0.1620 ca        1 HHE     -0.123000
     30 C30         8.4020    0.9160   -0.4670 ca        1 HHE      0.016400
     31 O31         5.0670    2.4780    0.7870 o         1 HHE     -0.623500
     32 CL          8.1040    0.3460   -2.0430 cl        1 HHE     -0.092400
     33 C33        -1.5360   -0.8540    0.8580 c3        1 HHE     -0.102400
     34 C34        -2.8260   -1.1850    0.1220 c3        1 HHE     -0.126700
     35 C35        -3.8890   -0.1260    0.4250 c         1 HHE      0.657100
     36 O36        -3.7100    0.7720    1.2710 o         1 HHE     -0.607100
     37 C37        -3.3440   -2.5780    0.4520 c3        1 HHE     -0.082400
     38 O38        -0.2150   -2.8440    0.3090 oh        1 HHE     -0.607800
     39 C39        -3.9230   -2.7040    1.8370 c3        1 HHE     -0.099100
     40 H1         -5.8040    1.5440    0.5560 h1        1 HHE      0.093700
     41 H2         -5.9990    1.7420   -1.9800 hc        1 HHE      0.062200
     42 H3         -6.8760   -0.4810    1.6630 hc        1 HHE      0.062200
     43 H4         -7.3470    3.1240   -0.3640 hc        1 HHE      0.055950
     44 H5         -8.2740    2.7800   -1.8810 hc        1 HHE      0.055950
     45 H6         -9.1480    0.5600    1.7390 hc        1 HHE      0.055950
     46 H7         -7.8580    1.8320    1.7450 hc        1 HHE      0.055950
     47 H8         -7.2440   -1.8990   -0.3800 hc        1 HHE      0.040950
     48 H9         -8.7900   -1.5940    0.5030 hc        1 HHE      0.040950
     49 H10        -9.0780   -1.2940   -1.9690 hc        1 HHE      0.051700
     50 H11        -7.9250    0.6210   -3.1080 hc        1 HHE      0.040950
     51 H12        -6.7380   -0.6020   -2.5090 hc        1 HHE      0.040950
     52 H13       -10.4400    0.0830   -0.3710 hc        1 HHE      0.047700
     53 H14       -10.0780    1.0120   -1.8840 hc        1 HHE      0.047700
     54 H15       -10.5540    2.2760    0.7240 ho        1 HHE      0.399000
     55 H16        -5.2060   -0.9700   -0.9050 hn        1 HHE      0.303500
     56 H17        -0.3670   -1.2800   -0.9460 h1        1 HHE      0.067700
     57 H18         0.8110    0.3740    0.6070 h1        1 HHE      0.063700
     58 H19         2.1110   -2.2540   -0.3950 h1        1 HHE      0.050200
     59 H20         1.8550   -0.7030   -1.3150 h1        1 HHE      0.050200
     60 H21         1.5750   -1.9840    2.1690 hn        1 HHE      0.354800
     61 H22         1.9440   -0.4220    2.4390 hn        1 HHE      0.354800
     62 H25         3.3340    1.1570   -0.9560 h1        1 HHE      0.070200
     63 H26         2.8580    1.1900    0.8090 h1        1 HHE      0.070200
     64 H27         6.7420   -1.3820   -0.4870 h1        1 HHE      0.054700
     65 H28         5.9650   -1.4030    1.1670 h1        1 HHE      0.054700
     66 H29         4.2360   -3.1630    0.7900 hc        1 HHE      0.046033
     67 H30         3.7250   -3.4060   -0.9360 hc        1 HHE      0.046033
     68 H31         5.4810   -3.3840   -0.5110 hc        1 HHE      0.046033
     69 H32         5.4920   -1.7900   -2.4470 hc        1 HHE      0.046033
     70 H33         3.7000   -1.5270   -2.5300 hc        1 HHE      0.046033
     71 H34         4.8170   -0.1180   -2.2720 hc        1 HHE      0.046033
     72 H35         6.8960    1.5590    2.5420 ha        1 HHE      0.153000
     73 H36         9.1890    2.3480    3.0640 ha        1 HHE      0.140000
     74 H37        10.9890    2.2280    1.3350 ha        1 HHE      0.139000
     75 H38        10.4770    1.3290   -0.9310 ha        1 HHE      0.148000
     76 H39        -1.5920   -1.2250    1.9140 hc        1 HHE      0.077700
     77 H40        -1.4230    0.2630    0.9130 hc        1 HHE      0.077700
     78 H41        -2.6180   -1.1480   -0.9870 hc        1 HHE      0.064700
     79 H42        -4.1250   -2.8680   -0.3020 hc        1 HHE      0.049200
     80 H43        -2.4910   -3.3020    0.3330 hc        1 HHE      0.049200
     81 H44        -0.3320   -3.0550    1.2440 ho        1 HHE      0.408000
     82 H45        -4.7570   -1.9750    1.9890 hc        1 HHE      0.039700
     83 H46        -4.3230   -3.7360    1.9900 hc        1 HHE      0.039700
     84 H47        -3.1470   -2.5100    2.6160 hc        1 HHE      0.039700
@<TRIPOS>BOND
     1    1    2 1   
     2    1    3 1   
     3    1   12 1   
     4    1   40 1   
     5    2    4 1   
     6    2    9 1   
     7    2   41 1   
     8    3    5 1   
     9    3    7 1   
    10    3   42 1   
    11    4    6 1   
    12    4   43 1   
    13    4   44 1   
    14    5    6 1   
    15    5   45 1   
    16    5   46 1   
    17    6   10 1   
    18    6   11 1   
    19    7    8 1   
    20    7   47 1   
    21    7   48 1   
    22    8    9 1   
    23    8   10 1   
    24    8   49 1   
    25    9   50 1   
    26    9   51 1   
    27   10   52 1   
    28   10   53 1   
    29   11   54 1   
    30   12   35 1   
    31   12   55 1   
    32   13   14 1   
    33   13   33 1   
    34   13   38 1   
    35   13   56 1   
    36   14   15 1   
    37   14   16 1   
    38   14   57 1   
    39   15   17 1   
    40   15   58 1   
    41   15   59 1   
    42   16   60 1   
    43   16   61 1   
    44   17   18 1   
    45   17   22 1   
    46   18   19 1   
    47   18   62 1   
    48   18   63 1   
    49   19   20 1   
    50   19   31 2   
    51   20   21 1   
    52   20   25 1   
    53   21   22 1   
    54   21   64 1   
    55   21   65 1   
    56   22   23 1   
    57   22   24 1   
    58   23   66 1   
    59   23   67 1   
    60   23   68 1   
    61   24   69 1   
    62   24   70 1   
    63   24   71 1   
    64   25   26 ar  
    65   25   30 ar  
    66   26   27 ar  
    67   26   72 1   
    68   27   28 ar  
    69   27   73 1   
    70   28   29 ar  
    71   28   74 1   
    72   29   30 ar  
    73   29   75 1   
    74   30   32 1   
    75   33   34 1   
    76   33   76 1   
    77   33   77 1   
    78   34   35 1   
    79   34   37 1   
    80   34   78 1   
    81   35   36 2   
    82   37   39 1   
    83   37   79 1   
    84   37   80 1   
    85   38   81 1   
    86   39   82 1   
    87   39   83 1   
    88   39   84 1   
@<TRIPOS>SUBSTRUCTURE
     1 HHE         1 TEMP              0 ****  ****    0 ROOT
