@<TRIPOS>MOLECULE
HHE
   86    90     1     0     0
SMALL
bcc


@<TRIPOS>ATOM
      1 C1         -0.2160    0.1620   -0.2460 c3        1 HHE      0.123500
      2 C2          0.8460    1.0190    0.4720 c3        1 HHE     -0.070200
      3 C3          0.0550   -1.3330    0.0420 c3        1 HHE     -0.070200
      4 C4          2.2000    0.6640   -0.1360 c3        1 HHE     -0.109900
      5 C5          1.4150   -1.6710   -0.5610 c3        1 HHE     -0.109900
      6 C6          2.5030   -0.8220    0.1120 c3        1 HHE      0.155800
      7 C7          0.0780   -1.5990    1.5420 c3        1 HHE     -0.089900
      8 C8          1.1550   -0.7500    2.2070 c3        1 HHE     -0.067700
      9 C9          0.8700    0.7290    1.9680 c3        1 HHE     -0.089900
     10 C10         2.5160   -1.1030    1.6220 c3        1 HHE     -0.071400
     11 O11         3.7910   -1.1580   -0.3650 oh        1 HHE     -0.559800
     12 N12        -1.6250    0.5410    0.1520 ny        1 HHE     -0.672800
     13 C13        -2.4570    5.5490    0.3660 c3        1 HHE      0.127100
     14 C14        -2.5000    6.7240   -0.6490 c3        1 HHE      0.076500
     15 C15        -1.7860    7.9630   -0.0230 c3        1 HHE      0.156800
     16 N16        -3.9030    7.0610   -1.0470 nz        1 HHE     -0.822600
     17 N17        -1.9390    9.1300   -0.8650 n3        1 HHE     -0.774600
     18 C18        -0.8720    9.2350   -1.8490 c3        1 HHE      0.081800
     19 C19        -0.9900   10.4260   -2.8080 c         1 HHE      0.704500
     20 N20        -1.5780   11.5810   -2.3200 n         1 HHE     -0.382000
     21 C21        -2.4830   11.5290   -1.1990 c3        1 HHE      0.110000
     22 C22        -2.1910   10.4030   -0.1520 c3        1 HHE      0.178200
     23 C23        -3.4500   10.3200    0.7280 c3        1 HHE     -0.113100
     24 C24        -1.0250   10.8520    0.7370 c3        1 HHE     -0.113100
     25 C25        -1.5450   12.7940   -3.0680 ca        1 HHE      0.016600
     26 C26        -2.1790   12.8840   -4.3230 ca        1 HHE     -0.107000
     27 C27        -2.1410   14.0720   -5.0480 ca        1 HHE     -0.115000
     28 C28        -1.4760   15.1870   -4.5410 ca        1 HHE     -0.098000
     29 C29        -0.8340   15.1150   -3.3060 ca        1 HHE     -0.111000
     30 C30        -0.8590   13.9260   -2.5720 ca        1 HHE      0.022400
     31 O31        -0.4930   10.3190   -3.9390 o         1 HHE     -0.585500
     32 Cl         -0.0410   13.8760   -1.0800 cl        1 HHE     -0.089400
     33 C33        -2.7560    4.2180   -0.3280 c3        1 HHE     -0.101400
     34 C34        -2.2780    3.0120    0.4810 c3        1 HHE     -0.118700
     35 C35        -2.0710    1.8400   -0.4610 c         1 HHE      0.544100
     36 O36        -2.2220    1.8410   -1.6740 o         1 HHE     -0.415100
     37 C37        -3.2390    2.6590    1.6110 c3        1 HHE     -0.105400
     38 O38        -3.4500    5.7610    1.3550 oh        1 HHE     -0.608800
     39 C39        -4.5010    1.9700    1.1640 c3        1 HHE     -0.110100
     40 H1         -0.1530    0.3390   -1.3630 hx        1 HHE      0.114700
     41 H2          0.6370    2.1090    0.2950 hc        1 HHE      0.057700
     42 H3         -0.7300   -1.9700   -0.4510 hc        1 HHE      0.057700
     43 H4          2.2060    0.8790   -1.2350 hc        1 HHE      0.077450
     44 H5          3.0010    1.2880    0.3400 hc        1 HHE      0.077450
     45 H6          1.6370   -2.7580   -0.3960 hc        1 HHE      0.077450
     46 H7          1.4100   -1.4880   -1.6660 hc        1 HHE      0.077450
     47 H8         -0.9220   -1.3910    2.0020 hc        1 HHE      0.056200
     48 H9          0.3010   -2.6860    1.7160 hc        1 HHE      0.056200
     49 H10         1.1630   -0.9540    3.3120 hc        1 HHE      0.091700
     50 H11        -0.0960    1.0240    2.4530 hc        1 HHE      0.056200
     51 H12         1.6800    1.3440    2.4450 hc        1 HHE      0.056200
     52 H13         2.7510   -2.1840    1.7960 hc        1 HHE      0.084700
     53 H14         3.3250   -0.4970    2.1060 hc        1 HHE      0.084700
     54 H15         3.7820   -1.0600   -1.3270 ho        1 HHE      0.414000
     55 H16        -2.2530   -0.2090   -0.1720 hn        1 HHE      0.465800
     56 H17        -1.4230    5.5330    0.8130 h1        1 HHE      0.087700
     57 H18        -1.9530    6.4240   -1.5920 hx        1 HHE      0.117700
     58 H19        -0.7060    7.6580    0.1130 h1        1 HHE      0.075200
     59 H20        -2.2230    8.1420    1.0000 h1        1 HHE      0.075200
     60 H21        -4.3350    6.2690   -1.5270 hn        1 HHE      0.470133
     61 H22        -3.8980    7.8860   -1.6650 hn        1 HHE      0.470133
     62 H25        -0.8820    8.3000   -2.4790 h1        1 HHE      0.070700
     63 H26         0.1480    9.3230   -1.3690 h1        1 HHE      0.070700
     64 H27        -2.4360   12.5150   -0.6520 h1        1 HHE      0.065700
     65 H28        -3.5370   11.3880   -1.5810 h1        1 HHE      0.065700
     66 H29        -3.7840   11.3580    0.9780 hc        1 HHE      0.053533
     67 H30        -4.2870    9.8020    0.2020 hc        1 HHE      0.053533
     68 H31        -3.2360    9.7940    1.6890 hc        1 HHE      0.053533
     69 H32        -1.3270   11.7600    1.3130 hc        1 HHE      0.053533
     70 H33        -0.1300   11.1140    0.1210 hc        1 HHE      0.053533
     71 H34        -0.7450   10.0500    1.4620 hc        1 HHE      0.053533
     72 H35        -2.6850   12.0030   -4.7480 ha        1 HHE      0.143000
     73 H36        -2.6360   14.1260   -6.0300 ha        1 HHE      0.153000
     74 H37        -1.4480   16.1260   -5.1170 ha        1 HHE      0.158000
     75 H38        -0.2980   15.9930   -2.9100 ha        1 HHE      0.165000
     76 H39        -2.2480    4.2170   -1.3300 hc        1 HHE      0.083700
     77 H40        -3.8620    4.1250   -0.4950 hc        1 HHE      0.083700
     78 H41        -1.2670    3.2490    0.9300 hc        1 HHE      0.099700
     79 H42        -3.5160    3.6200    2.1320 hc        1 HHE      0.079700
     80 H43        -2.7060    2.0270    2.3720 hc        1 HHE      0.079700
     81 H44        -3.0320    6.1680    2.1270 ho        1 HHE      0.445000
     82 H45        -5.1460    1.7520    2.0530 hc        1 HHE      0.055033
     83 H46        -5.0910    2.6120    0.4650 hc        1 HHE      0.055033
     84 H47        -4.2860    1.0020    0.6500 hc        1 HHE      0.055033
     85 H122       -1.6810    0.5930    1.1760 hn        1 HHE      0.465800
     86 H163       -4.4460    7.2800   -0.2020 hn        1 HHE      0.470133
@<TRIPOS>BOND
     1    1    2 1   
     2    1    3 1   
     3    1   12 1   
     4    1   40 1   
     5    2    4 1   
     6    2    9 1   
     7    2   41 1   
     8    3    5 1   
     9    3    7 1   
    10    3   42 1   
    11    4    6 1   
    12    4   43 1   
    13    4   44 1   
    14    5    6 1   
    15    5   45 1   
    16    5   46 1   
    17    6   10 1   
    18    6   11 1   
    19    7    8 1   
    20    7   47 1   
    21    7   48 1   
    22    8    9 1   
    23    8   10 1   
    24    8   49 1   
    25    9   50 1   
    26    9   51 1   
    27   10   52 1   
    28   10   53 1   
    29   11   54 1   
    30   12   35 1   
    31   12   55 1   
    32   12   85 1   
    33   13   14 1   
    34   13   33 1   
    35   13   38 1   
    36   13   56 1   
    37   14   15 1   
    38   14   16 1   
    39   14   57 1   
    40   15   17 1   
    41   15   58 1   
    42   15   59 1   
    43   16   60 1   
    44   16   61 1   
    45   16   86 1   
    46   17   18 1   
    47   17   22 1   
    48   18   19 1   
    49   18   62 1   
    50   18   63 1   
    51   19   20 1   
    52   19   31 2   
    53   20   21 1   
    54   20   25 1   
    55   21   22 1   
    56   21   64 1   
    57   21   65 1   
    58   22   23 1   
    59   22   24 1   
    60   23   66 1   
    61   23   67 1   
    62   23   68 1   
    63   24   69 1   
    64   24   70 1   
    65   24   71 1   
    66   25   26 ar  
    67   25   30 ar  
    68   26   27 ar  
    69   26   72 1   
    70   27   28 ar  
    71   27   73 1   
    72   28   29 ar  
    73   28   74 1   
    74   29   30 ar  
    75   29   75 1   
    76   30   32 1   
    77   33   34 1   
    78   33   76 1   
    79   33   77 1   
    80   34   35 1   
    81   34   37 1   
    82   34   78 1   
    83   35   36 2   
    84   37   39 1   
    85   37   79 1   
    86   37   80 1   
    87   38   81 1   
    88   39   82 1   
    89   39   83 1   
    90   39   84 1   
@<TRIPOS>SUBSTRUCTURE
     1 HHE         1 TEMP              0 ****  ****    0 ROOT
