@<TRIPOS>MOLECULE
HHE
   86    90     1     0     0
SMALL
bcc


@<TRIPOS>ATOM
      1 C1         -0.2150    0.1640   -0.2540 c3        1 HHE      0.123500
      2 C2          0.8450    1.0200    0.4690 c3        1 HHE     -0.070200
      3 C3          0.0560   -1.3310    0.0320 c3        1 HHE     -0.070200
      4 C4          2.2010    0.6670   -0.1370 c3        1 HHE     -0.109900
      5 C5          1.4170   -1.6670   -0.5690 c3        1 HHE     -0.109900
      6 C6          2.5040   -0.8200    0.1090 c3        1 HHE      0.155800
      7 C7          0.0750   -1.6010    1.5320 c3        1 HHE     -0.089900
      8 C8          1.1500   -0.7520    2.2010 c3        1 HHE     -0.067700
      9 C9          0.8660    0.7270    1.9640 c3        1 HHE     -0.089900
     10 C10         2.5130   -1.1040    1.6180 c3        1 HHE     -0.071400
     11 O11         3.7920   -1.1540   -0.3660 oh        1 HHE     -0.559800
     12 N12        -1.6260    0.5420    0.1410 n4        1 HHE     -0.672800
     13 C13        -2.4610    5.5480    0.3610 c3        1 HHE      0.127100
     14 C14        -2.5000    6.7260   -0.6520 c3        1 HHE      0.076500
     15 C15        -1.7890    7.9630   -0.0210 c3        1 HHE      0.156800
     16 N16        -3.9020    7.0630   -1.0560 n4        1 HHE     -0.822600
     17 N17        -1.9390    9.1320   -0.8610 n3        1 HHE     -0.774600
     18 C18        -0.8690    9.2390   -1.8410 c3        1 HHE      0.081800
     19 C19        -0.9830   10.4330   -2.7970 c         1 HHE      0.704500
     20 N20        -1.5730   11.5860   -2.3090 n         1 HHE     -0.381000
     21 C21        -2.4830   11.5320   -1.1920 c3        1 HHE      0.110000
     22 C22        -2.1950   10.4030   -0.1460 c3        1 HHE      0.178200
     23 C23        -3.4560   10.3190    0.7290 c3        1 HHE     -0.113100
     24 C24        -1.0320   10.8510    0.7480 c3        1 HHE     -0.113100
     25 C25        -1.5370   12.8010   -3.0540 ca        1 HHE      0.016600
     26 C26        -2.1660   12.8940   -4.3120 ca        1 HHE     -0.107000
     27 C27        -2.1250   14.0840   -5.0340 ca        1 HHE     -0.115000
     28 C28        -1.4620   15.1980   -4.5210 ca        1 HHE     -0.098000
     29 C29        -0.8260   15.1230   -3.2840 ca        1 HHE     -0.111000
     30 C30        -0.8530   13.9320   -2.5520 ca        1 HHE      0.022400
     31 O31        -0.4820   10.3280   -3.9270 o         1 HHE     -0.585500
     32 CL         -0.0420   13.8780   -1.0570 cl        1 HHE     -0.089400
     33 C33        -2.7560    4.2190   -0.3360 c3        1 HHE     -0.101400
     34 C34        -2.2810    3.0120    0.4720 c3        1 HHE     -0.118700
     35 C35        -2.0700    1.8420   -0.4710 c         1 HHE      0.544100
     36 O36        -2.2180    1.8450   -1.6850 o         1 HHE     -0.415100
     37 C37        -3.2460    2.6570    1.5980 c3        1 HHE     -0.105400
     38 O38        -3.4590    5.7580    1.3460 oh        1 HHE     -0.608800
     39 C39        -4.5060    1.9670    1.1450 c3        1 HHE     -0.110100
     40 H1         -0.1500    0.3430   -1.3710 hx        1 HHE      0.114700
     41 H2          0.6360    2.1100    0.2940 hc        1 HHE      0.057700
     42 H3         -0.7270   -1.9680   -0.4640 hc        1 HHE      0.057700
     43 H4          3.0000    1.2900    0.3430 hc        1 HHE      0.077450
     44 H5          2.2090    0.8840   -1.2350 hc        1 HHE      0.077450
     45 H6          1.4150   -1.4820   -1.6740 hc        1 HHE      0.077450
     46 H7          1.6390   -2.7550   -0.4050 hc        1 HHE      0.077450
     47 H8         -0.9260   -1.3940    1.9890 hc        1 HHE      0.056200
     48 H9          0.2990   -2.6880    1.7030 hc        1 HHE      0.056200
     49 H10         1.1550   -0.9590    3.3060 hc        1 HHE      0.091700
     50 H11        -0.1020    1.0200    2.4470 hc        1 HHE      0.056200
     51 H12         1.6730    1.3410    2.4450 hc        1 HHE      0.056200
     52 H13         3.3200   -0.4990    2.1060 hc        1 HHE      0.084700
     53 H14         2.7480   -2.1850    1.7910 hc        1 HHE      0.084700
     54 H15         3.7860   -1.0540   -1.3270 ho        1 HHE      0.414000
     55 H16        -1.6840    0.5930    1.1650 hn        1 HHE      0.465800
     56 H17        -1.4290    5.5320    0.8130 h1        1 HHE      0.087700
     57 H18        -1.9490    6.4270   -1.5930 hx        1 HHE      0.117700
     58 H19        -2.2310    8.1400    1.0000 h1        1 HHE      0.075200
     59 H20        -0.7100    7.6580    0.1190 h1        1 HHE      0.075200
     60 H21        -3.8940    7.8890   -1.6720 hn        1 HHE      0.470133
     61 H22        -4.3310    6.2720   -1.5380 hn        1 HHE      0.470133
     62 H25        -0.8760    8.3060   -2.4730 h1        1 HHE      0.070700
     63 H26         0.1490    9.3270   -1.3570 h1        1 HHE      0.070700
     64 H27        -3.5350   11.3910   -1.5790 h1        1 HHE      0.065700
     65 H28        -2.4380   12.5170   -0.6430 h1        1 HHE      0.065700
     66 H29        -4.2910    9.8010    0.1990 hc        1 HHE      0.053533
     67 H30        -3.2470    9.7900    1.6900 hc        1 HHE      0.053533
     68 H31        -3.7920   11.3560    0.9800 hc        1 HHE      0.053533
     69 H32        -0.7550   10.0480    1.4730 hc        1 HHE      0.053533
     70 H33        -0.1350   11.1140    0.1360 hc        1 HHE      0.053533
     71 H34        -1.3360   11.7580    1.3250 hc        1 HHE      0.053533
     72 H35        -2.6700   12.0140   -4.7410 ha        1 HHE      0.143000
     73 H36        -2.6160   14.1390   -6.0180 ha        1 HHE      0.153000
     74 H37        -1.4320   16.1380   -5.0950 ha        1 HHE      0.158000
     75 H38        -0.2920   16.0000   -2.8830 ha        1 HHE      0.165000
     76 H39        -2.2450    4.2200   -1.3370 hc        1 HHE      0.083700
     77 H40        -3.8620    4.1250   -0.5080 hc        1 HHE      0.083700
     78 H41        -1.2720    3.2480    0.9250 hc        1 HHE      0.099700
     79 H42        -3.5260    3.6160    2.1200 hc        1 HHE      0.079700
     80 H43        -2.7160    2.0240    2.3600 hc        1 HHE      0.079700
     81 H44        -3.0450    6.1640    2.1210 ho        1 HHE      0.445000
     82 H45        -5.1540    1.7480    2.0320 hc        1 HHE      0.055033
     83 H46        -5.0940    2.6110    0.4460 hc        1 HHE      0.055033
     84 H47        -4.2890    1.0010    0.6300 hc        1 HHE      0.055033
     85 H122       -2.2520   -0.2080   -0.1850 hn        1 HHE      0.465800
     86 H163       -4.4480    7.2810   -0.2120 hn        1 HHE      0.470133
@<TRIPOS>BOND
     1    1    2 1   
     2    1    3 1   
     3    1   12 1   
     4    1   40 1   
     5    2    4 1   
     6    2    9 1   
     7    2   41 1   
     8    3    5 1   
     9    3    7 1   
    10    3   42 1   
    11    4    6 1   
    12    4   43 1   
    13    4   44 1   
    14    5    6 1   
    15    5   45 1   
    16    5   46 1   
    17    6   10 1   
    18    6   11 1   
    19    7    8 1   
    20    7   47 1   
    21    7   48 1   
    22    8    9 1   
    23    8   10 1   
    24    8   49 1   
    25    9   50 1   
    26    9   51 1   
    27   10   52 1   
    28   10   53 1   
    29   11   54 1   
    30   12   35 1   
    31   12   55 1   
    32   12   85 1   
    33   13   14 1   
    34   13   33 1   
    35   13   38 1   
    36   13   56 1   
    37   14   15 1   
    38   14   16 1   
    39   14   57 1   
    40   15   17 1   
    41   15   58 1   
    42   15   59 1   
    43   16   60 1   
    44   16   61 1   
    45   16   86 1   
    46   17   18 1   
    47   17   22 1   
    48   18   19 1   
    49   18   62 1   
    50   18   63 1   
    51   19   20 1   
    52   19   31 2   
    53   20   21 1   
    54   20   25 1   
    55   21   22 1   
    56   21   64 1   
    57   21   65 1   
    58   22   23 1   
    59   22   24 1   
    60   23   66 1   
    61   23   67 1   
    62   23   68 1   
    63   24   69 1   
    64   24   70 1   
    65   24   71 1   
    66   25   26 ar  
    67   25   30 ar  
    68   26   27 ar  
    69   26   72 1   
    70   27   28 ar  
    71   27   73 1   
    72   28   29 ar  
    73   28   74 1   
    74   29   30 ar  
    75   29   75 1   
    76   30   32 1   
    77   33   34 1   
    78   33   76 1   
    79   33   77 1   
    80   34   35 1   
    81   34   37 1   
    82   34   78 1   
    83   35   36 2   
    84   37   39 1   
    85   37   79 1   
    86   37   80 1   
    87   38   81 1   
    88   39   82 1   
    89   39   83 1   
    90   39   84 1   
@<TRIPOS>SUBSTRUCTURE
     1 HHE         1 TEMP              0 ****  ****    0 ROOT
