@<TRIPOS>MOLECULE
HHF
   29    31     1     0     0
SMALL
bcc


@<TRIPOS>ATOM
      1 CAG         0.1040    0.3050    0.0310 ca        1 HHF     -0.089500
      2 CAE         1.4940    0.2250    0.1060 ca        1 HHF     -0.140000
      3 CAD         2.1150   -0.1290    1.3030 ca        1 HHF     -0.111000
      4 CAF         1.3430   -0.4060    2.4320 ca        1 HHF     -0.140000
      5 CAH        -0.0460   -0.3280    2.3660 ca        1 HHF     -0.089500
      6 CAN        -0.6760    0.0320    1.1640 ca        1 HHF     -0.058800
      7 CAP        -2.1320    0.1200    1.1010 cc        1 HHF      0.143900
      8 OAL        -2.7190   -0.7390    2.0290 os        1 HHF     -0.211200
      9 CAR        -4.0960   -0.7720    2.1070 ca        1 HHF      0.190100
     10 CAK        -4.6110   -1.6630    3.0640 ca        1 HHF     -0.200000
     11 CAM        -6.0000   -1.7470    3.1950 ca        1 HHF      0.184100
     12 OAB        -6.4680   -2.6270    4.1380 oh        1 HHF     -0.486100
     13 CAI        -6.8660   -0.9670    2.3980 ca        1 HHF     -0.251000
     14 CAJ        -6.3300   -0.0980    1.4640 ca        1 HHF     -0.001000
     15 CAS        -4.9380    0.0150    1.3030 ca        1 HHF     -0.256600
     16 CAQ        -4.3580    0.9250    0.3240 c         1 HHF      0.577900
     17 OAA        -5.0100    1.6710   -0.4250 o         1 HHF     -0.562100
     18 CAO        -2.8850    0.9090    0.2820 cd        1 HHF     -0.069100
     19 OAC        -2.2580    1.7320   -0.6280 oh        1 HHF     -0.489100
     20 H1         -0.3810    0.5860   -0.9180 ha        1 HHF      0.151000
     21 H2          2.0990    0.4430   -0.7860 ha        1 HHF      0.135500
     22 H3          3.2120   -0.1900    1.3580 ha        1 HHF      0.134000
     23 H4          1.8300   -0.6860    3.3770 ha        1 HHF      0.135500
     24 H5         -0.6550   -0.5500    3.2560 ha        1 HHF      0.151000
     25 H6         -3.9430   -2.2740    3.6850 ha        1 HHF      0.174000
     26 H7         -7.4370   -2.5930    4.1280 ho        1 HHF      0.428000
     27 H8         -7.9540   -1.0540    2.5230 ha        1 HHF      0.144000
     28 H9         -6.9840    0.5230    0.8280 ha        1 HHF      0.163000
     29 H10        -2.9490    2.2820   -1.0390 ho        1 HHF      0.444000
@<TRIPOS>BOND
     1    1    2 ar  
     2    1    6 ar  
     3    1   20 1   
     4    2    3 ar  
     5    2   21 1   
     6    3    4 ar  
     7    3   22 1   
     8    4    5 ar  
     9    4   23 1   
    10    5    6 ar  
    11    5   24 1   
    12    6    7 1   
    13    7    8 1   
    14    7   18 2   
    15    8    9 1   
    16    9   10 ar  
    17    9   15 ar  
    18   10   11 ar  
    19   10   25 1   
    20   11   12 1   
    21   11   13 ar  
    22   12   26 1   
    23   13   14 ar  
    24   13   27 1   
    25   14   15 ar  
    26   14   28 1   
    27   15   16 1   
    28   16   17 2   
    29   16   18 1   
    30   18   19 1   
    31   19   29 1   
@<TRIPOS>SUBSTRUCTURE
     1 HHF         1 TEMP              0 ****  ****    0 ROOT
