@<TRIPOS>MOLECULE
HHF
   29    31     1     0     0
SMALL
bcc


@<TRIPOS>ATOM
      1 CAG         0.1020    0.3140    0.0310 ca        1 HHF     -0.089500
      2 CAE         1.4920    0.2350    0.1050 ca        1 HHF     -0.140000
      3 CAD         2.1150   -0.1220    1.3000 ca        1 HHF     -0.111000
      4 CAF         1.3430   -0.4050    2.4290 ca        1 HHF     -0.140000
      5 CAH        -0.0450   -0.3290    2.3640 ca        1 HHF     -0.089500
      6 CAN        -0.6760    0.0360    1.1640 ca        1 HHF     -0.058800
      7 CAP        -2.1330    0.1230    1.1020 cc        1 HHF      0.143900
      8 OAL        -2.7180   -0.7410    2.0270 os        1 HHF     -0.211200
      9 CAR        -4.0940   -0.7760    2.1060 ca        1 HHF      0.190100
     10 CAK        -4.6080   -1.6710    3.0590 ca        1 HHF     -0.200000
     11 CAM        -5.9970   -1.7580    3.1910 ca        1 HHF      0.184100
     12 OAB        -6.4640   -2.6410    4.1310 oh        1 HHF     -0.486100
     13 CAI        -6.8640   -0.9760    2.3980 ca        1 HHF     -0.251000
     14 CAJ        -6.3310   -0.1020    1.4670 ca        1 HHF     -0.001000
     15 CAS        -4.9390    0.0130    1.3050 ca        1 HHF     -0.256600
     16 CAQ        -4.3610    0.9270    0.3300 c         1 HHF      0.577900
     17 OAA        -5.0140    1.6760   -0.4160 o         1 HHF     -0.562100
     18 CAO        -2.8870    0.9130    0.2860 cd        1 HHF     -0.069100
     19 OAC        -2.2610    1.7410   -0.6210 oh        1 HHF     -0.489100
     20 H1         -0.3830    0.5990   -0.9160 ha        1 HHF      0.151000
     21 H2          2.0970    0.4580   -0.7860 ha        1 HHF      0.135500
     22 H3          3.2120   -0.1820    1.3540 ha        1 HHF      0.134000
     23 H4          1.8320   -0.6880    3.3730 ha        1 HHF      0.135500
     24 H5         -0.6540   -0.5550    3.2530 ha        1 HHF      0.151000
     25 H6         -3.9390   -2.2840    3.6780 ha        1 HHF      0.174000
     26 H7         -7.4330   -2.6090    4.1230 ho        1 HHF      0.428000
     27 H8         -7.9520   -1.0650    2.5230 ha        1 HHF      0.144000
     28 H9         -6.9860    0.5210    0.8340 ha        1 HHF      0.163000
     29 H10        -2.9530    2.2910   -1.0290 ho        1 HHF      0.444000
@<TRIPOS>BOND
     1    1    2 ar  
     2    1    6 ar  
     3    1   20 1   
     4    2    3 ar  
     5    2   21 1   
     6    3    4 ar  
     7    3   22 1   
     8    4    5 ar  
     9    4   23 1   
    10    5    6 ar  
    11    5   24 1   
    12    6    7 1   
    13    7    8 1   
    14    7   18 2   
    15    8    9 1   
    16    9   10 ar  
    17    9   15 ar  
    18   10   11 ar  
    19   10   25 1   
    20   11   12 1   
    21   11   13 ar  
    22   12   26 1   
    23   13   14 ar  
    24   13   27 1   
    25   14   15 ar  
    26   14   28 1   
    27   15   16 1   
    28   16   17 2   
    29   16   18 1   
    30   18   19 1   
    31   19   29 1   
@<TRIPOS>SUBSTRUCTURE
     1 HHF         1 TEMP              0 ****  ****    0 ROOT
