@<TRIPOS>MOLECULE
HHF
   29    31     1     0     0
SMALL
bcc


@<TRIPOS>ATOM
      1 CAG        -3.3030    0.4540    0.6480 ca        1 HHF     -0.089500
      2 CAE        -4.6040   -0.0460    0.6610 ca        1 HHF     -0.140000
      3 CAD        -4.8890   -1.2830    0.0850 ca        1 HHF     -0.111000
      4 CAF        -3.8670   -2.0260   -0.5080 ca        1 HHF     -0.140000
      5 CAH        -2.5650   -1.5340   -0.5260 ca        1 HHF     -0.089500
      6 CAN        -2.2740   -0.2860    0.0490 ca        1 HHF     -0.058800
      7 CAP        -0.9080    0.2300    0.0210 cc        1 HHF      0.143900
      8 OAL         0.0130   -0.8150   -0.0140 os        1 HHF     -0.211200
      9 CAR         1.3560   -0.5010   -0.0530 ca        1 HHF      0.190100
     10 CAK         2.2210   -1.6080   -0.0840 ca        1 HHF     -0.200000
     11 CAM         3.5960   -1.3590   -0.1240 ca        1 HHF      0.184100
     12 OAB         4.4110   -2.4620   -0.1540 oh        1 HHF     -0.486100
     13 CAI         4.1090   -0.0440   -0.1330 ca        1 HHF     -0.251000
     14 CAJ         3.2340    1.0270   -0.1020 ca        1 HHF     -0.001000
     15 CAS         1.8440    0.8180   -0.0610 ca        1 HHF     -0.256600
     16 CAQ         0.9080    1.9340   -0.0290 c         1 HHF      0.577900
     17 OAA         1.2330    3.1320   -0.0450 o         1 HHF     -0.562100
     18 CAO        -0.5090    1.5340    0.0220 cd        1 HHF     -0.069100
     19 OAC        -1.4590    2.5310    0.0690 oh        1 HHF     -0.489100
     20 H1         -3.0850    1.4330    1.1040 ha        1 HHF      0.151000
     21 H2         -5.4070    0.5420    1.1300 ha        1 HHF      0.135500
     22 H3         -5.9180   -1.6730    0.0970 ha        1 HHF      0.134000
     23 H4         -4.0890   -3.0020   -0.9630 ha        1 HHF      0.135500
     24 H5         -1.7580   -2.1210   -0.9910 ha        1 HHF      0.151000
     25 H6          1.8280   -2.6330   -0.0750 ha        1 HHF      0.174000
     26 H7          5.3320   -2.1580   -0.1770 ho        1 HHF      0.428000
     27 H8          5.1950    0.1210   -0.1650 ha        1 HHF      0.144000
     28 H9          3.6080    2.0650   -0.1080 ha        1 HHF      0.163000
     29 H10        -0.9900    3.3770   -0.0430 ho        1 HHF      0.444000
@<TRIPOS>BOND
     1    1    2 ar  
     2    1    6 ar  
     3    1   20 1   
     4    2    3 ar  
     5    2   21 1   
     6    3    4 ar  
     7    3   22 1   
     8    4    5 ar  
     9    4   23 1   
    10    5    6 ar  
    11    5   24 1   
    12    6    7 1   
    13    7    8 1   
    14    7   18 2   
    15    8    9 1   
    16    9   10 ar  
    17    9   15 ar  
    18   10   11 ar  
    19   10   25 1   
    20   11   12 1   
    21   11   13 ar  
    22   12   26 1   
    23   13   14 ar  
    24   13   27 1   
    25   14   15 ar  
    26   14   28 1   
    27   15   16 1   
    28   16   17 2   
    29   16   18 1   
    30   18   19 1   
    31   19   29 1   
@<TRIPOS>SUBSTRUCTURE
     1 HHF         1 TEMP              0 ****  ****    0 ROOT
