@<TRIPOS>MOLECULE
HHG
   34    33     1     0     0
SMALL
bcc


@<TRIPOS>ATOM
      1 O2P        -4.3600    6.7560    1.4810 o         1 HHG     -0.927833
      2 P          -3.0400    6.0730    1.7490 p5        1 HHG      1.308900
      3 O4P        -2.9470    5.7130    3.2130 o         1 HHG     -0.927833
      4 O1P        -1.9080    7.0050    1.3870 o         1 HHG     -0.927833
      5 O3P        -2.9390    4.7590    0.8760 os        1 HHG     -0.559200
      6 C1         -1.7380    4.0250    0.9040 c3        1 HHG      0.218400
      7 C2         -1.9610    2.6700    0.2730 c3        1 HHG      0.084100
      8 O2         -2.5600    2.8330   -0.9910 oh        1 HHG     -0.663800
      9 C3         -0.6340    1.9640    0.1140 c3        1 HHG      0.141400
     10 O3         -0.8390    0.5710    0.1230 os        1 HHG     -0.410900
     11 C4          0.3280   -0.1780   -0.0990 c         1 HHG      0.626100
     12 O1          1.3790    0.3880   -0.3280 o         1 HHG     -0.593000
     13 C5          0.2800   -1.6890   -0.0410 c3        1 HHG     -0.135400
     14 C6          1.4800   -2.2600   -0.7640 c3        1 HHG     -0.076400
     15 C7          1.6240   -3.7260   -0.4230 c3        1 HHG     -0.078400
     16 C8          2.7530   -4.3240   -1.2330 c3        1 HHG     -0.080400
     17 C9          2.8880   -5.7940   -0.9020 c3        1 HHG     -0.090100
     18 H11        -1.4470    3.9090    1.8320 h1        1 HHG     -0.005800
     19 H12        -1.0480    4.5090    0.4040 h1        1 HHG     -0.005800
     20 H2         -2.5470    2.1360    0.8450 h1        1 HHG      0.086700
     21 HO2        -3.4120    2.5840   -0.9490 ho        1 HHG      0.447000
     22 H31        -0.2230    2.2280   -0.7350 h1        1 HHG      0.044700
     23 H32        -0.0420    2.2110    0.8540 h1        1 HHG      0.044700
     24 H51         0.2940   -1.9800    0.8930 hc        1 HHG      0.072200
     25 H52        -0.5400   -2.0060   -0.4700 hc        1 HHG      0.072200
     26 H61         1.3570   -2.1600   -1.7290 hc        1 HHG      0.052200
     27 H62         2.2870   -1.7800   -0.4870 hc        1 HHG      0.052200
     28 H71         1.8210   -3.8210    0.5300 hc        1 HHG      0.037700
     29 H72         0.7900   -4.1930   -0.6320 hc        1 HHG      0.037700
     30 H81         3.5890   -3.8640   -1.0170 hc        1 HHG      0.037700
     31 H82         2.5610   -4.2210   -2.1860 hc        1 HHG      0.037700
     32 H91         3.1130   -5.8970    0.0460 hc        1 HHG      0.026700
     33 H92         2.0400   -6.2500   -1.0880 hc        1 HHG      0.026700
     34 H93         3.5980   -6.1890   -1.4510 hc        1 HHG      0.026700
@<TRIPOS>BOND
     1    1    2 1   
     2    2    3 1   
     3    2    4 1   
     4    2    5 1   
     5    5    6 1   
     6    6    7 1   
     7    6   18 1   
     8    6   19 1   
     9    7    8 1   
    10    7    9 1   
    11    7   20 1   
    12    8   21 1   
    13    9   10 1   
    14    9   22 1   
    15    9   23 1   
    16   10   11 1   
    17   11   12 2   
    18   11   13 1   
    19   13   14 1   
    20   13   24 1   
    21   13   25 1   
    22   14   15 1   
    23   14   26 1   
    24   14   27 1   
    25   15   16 1   
    26   15   28 1   
    27   15   29 1   
    28   16   17 1   
    29   16   30 1   
    30   16   31 1   
    31   17   32 1   
    32   17   33 1   
    33   17   34 1   
@<TRIPOS>SUBSTRUCTURE
     1 HHG         1 TEMP              0 ****  ****    0 ROOT
