@<TRIPOS>MOLECULE
HHG
   34    33     1     0     0
SMALL
bcc


@<TRIPOS>ATOM
      1 O2P         0.1660    0.1840   -0.2400 o         1 HHG     -0.928833
      2 P           1.6200   -0.1510   -0.4040 p5        1 HHG      1.312900
      3 O4P         2.3810   -0.5250    0.8400 o         1 HHG     -0.928833
      4 O1P         2.0160   -0.9000   -1.6480 o         1 HHG     -0.928833
      5 O3P         2.3120    1.4300   -0.7390 os        1 HHG     -0.567200
      6 C1          3.6670    1.2960   -0.9190 c3        1 HHG      0.171400
      7 C2          4.2530    2.6710   -1.3200 c3        1 HHG      0.120100
      8 O2          3.5660    3.7500   -0.7090 oh        1 HHG     -0.660800
      9 C3          5.7210    2.7520   -0.8980 c3        1 HHG      0.130400
     10 O3          6.3700    3.6200   -1.8610 os        1 HHG     -0.424900
     11 C4          7.6080    4.0720   -1.5730 c         1 HHG      0.626100
     12 O1          8.1850    3.7210   -0.5360 o         1 HHG     -0.580000
     13 C5          8.1330    5.0140   -2.6200 c3        1 HHG     -0.134400
     14 C6          9.6290    4.8670   -2.7880 c3        1 HHG     -0.078400
     15 C7         10.1750    5.9160   -3.7330 c3        1 HHG     -0.078400
     16 C8         11.6700    5.7600   -3.9200 c3        1 HHG     -0.081400
     17 C9         12.2230    6.8040   -4.8560 c3        1 HHG     -0.090100
     18 H11         3.8830    0.5490   -1.7320 h1        1 HHG      0.024700
     19 H12         4.1440    0.9400    0.0380 h1        1 HHG      0.024700
     20 H2          4.1750    2.8170   -2.4340 h1        1 HHG      0.029700
     21 HO2         2.7300    3.3860   -0.3640 ho        1 HHG      0.456000
     22 H31         6.2210    1.7520   -0.9580 h1        1 HHG      0.055200
     23 H32         5.8350    3.1870    0.1260 h1        1 HHG      0.055200
     24 H51         7.8760    6.0560   -2.2910 hc        1 HHG      0.069200
     25 H52         7.6050    4.8230   -3.5910 hc        1 HHG      0.069200
     26 H61        10.1260    4.9550   -1.7850 hc        1 HHG      0.054200
     27 H62         9.8620    3.8430   -3.1820 hc        1 HHG      0.054200
     28 H71         9.6610    5.8320   -4.7270 hc        1 HHG      0.036200
     29 H72         9.9520    6.9390   -3.3310 hc        1 HHG      0.036200
     30 H81        12.1800    5.8370   -2.9240 hc        1 HHG      0.039200
     31 H82        11.8900    4.7370   -4.3250 hc        1 HHG      0.039200
     32 H91        13.3240    6.6710   -4.9810 hc        1 HHG      0.026367
     33 H92        11.7410    6.7270   -5.8610 hc        1 HHG      0.026367
     34 H93        12.0350    7.8300   -4.4560 hc        1 HHG      0.026367
@<TRIPOS>BOND
     1    1    2 1   
     2    2    3 1   
     3    2    4 1   
     4    2    5 1   
     5    5    6 1   
     6    6    7 1   
     7    6   18 1   
     8    6   19 1   
     9    7    8 1   
    10    7    9 1   
    11    7   20 1   
    12    8   21 1   
    13    9   10 1   
    14    9   22 1   
    15    9   23 1   
    16   10   11 1   
    17   11   12 2   
    18   11   13 1   
    19   13   14 1   
    20   13   24 1   
    21   13   25 1   
    22   14   15 1   
    23   14   26 1   
    24   14   27 1   
    25   15   16 1   
    26   15   28 1   
    27   15   29 1   
    28   16   17 1   
    29   16   30 1   
    30   16   31 1   
    31   17   32 1   
    32   17   33 1   
    33   17   34 1   
@<TRIPOS>SUBSTRUCTURE
     1 HHG         1 TEMP              0 ****  ****    0 ROOT
