@<TRIPOS>MOLECULE
HHG
   34    33     1     0     0
SMALL
bcc


@<TRIPOS>ATOM
      1 O2P        -5.6400   -0.9060    1.0690 o         1 HHG     -0.921167
      2 P          -4.6630   -0.2220    0.1620 p5        1 HHG      1.319900
      3 O4P        -4.1720   -1.0080   -1.0340 o         1 HHG     -0.921167
      4 O1P        -4.8580    1.2460   -0.0900 o         1 HHG     -0.921167
      5 O3P        -3.1830   -0.2270    1.0840 os        1 HHG     -0.559200
      6 C1         -2.1710    0.4830    0.5010 c3        1 HHG      0.209400
      7 C2         -1.0160   -0.4590    0.0680 c3        1 HHG      0.120100
      8 O2         -1.4130   -1.4480   -0.8480 oh        1 HHG     -0.688800
      9 C3          0.0910    0.3790   -0.5900 c3        1 HHG      0.122400
     10 O3          1.3450   -0.2130   -0.1660 os        1 HHG     -0.418900
     11 C4          2.4830    0.2640   -0.7080 c         1 HHG      0.624100
     12 O1          2.4610    1.2180   -1.4970 o         1 HHG     -0.587000
     13 C5          3.7000   -0.4950   -0.2540 c3        1 HHG     -0.136400
     14 C6          4.9020    0.4150   -0.1390 c3        1 HHG     -0.077400
     15 C7          6.1550   -0.3750    0.1730 c3        1 HHG     -0.078400
     16 C8          7.3580    0.5340    0.3080 c3        1 HHG     -0.080400
     17 C9          8.6110   -0.2460    0.6130 c3        1 HHG     -0.090100
     18 H11        -1.7270    1.2110    1.2450 h1        1 HHG     -0.005300
     19 H12        -2.5370    1.0550   -0.3990 h1        1 HHG     -0.005300
     20 H2         -0.5930   -0.9800    0.9720 h1        1 HHG      0.021700
     21 HO2        -2.4090   -1.4010   -0.9290 ho        1 HHG      0.507000
     22 H31         0.0850    1.4420   -0.2410 h1        1 HHG      0.046700
     23 H32         0.0330    0.3360   -1.7060 h1        1 HHG      0.046700
     24 H51         3.8900   -1.3030   -1.0090 hc        1 HHG      0.068700
     25 H52         3.4830   -0.9900    0.7290 hc        1 HHG      0.068700
     26 H61         4.7220    1.1730    0.6680 hc        1 HHG      0.053200
     27 H62         5.0320    0.9820   -1.0990 hc        1 HHG      0.053200
     28 H71         6.3400   -1.1240   -0.6420 hc        1 HHG      0.036700
     29 H72         6.0100   -0.9520    1.1240 hc        1 HHG      0.036700
     30 H81         7.1710    1.2800    1.1250 hc        1 HHG      0.038700
     31 H82         7.4960    1.1140   -0.6420 hc        1 HHG      0.038700
     32 H91         9.4850    0.4420    0.7100 hc        1 HHG      0.026033
     33 H92         8.5000   -0.8130    1.5690 hc        1 HHG      0.026033
     34 H93         8.8270   -0.9780   -0.2030 hc        1 HHG      0.026033
@<TRIPOS>BOND
     1    1    2 1   
     2    2    3 1   
     3    2    4 1   
     4    2    5 1   
     5    5    6 1   
     6    6    7 1   
     7    6   18 1   
     8    6   19 1   
     9    7    8 1   
    10    7    9 1   
    11    7   20 1   
    12    8   21 1   
    13    9   10 1   
    14    9   22 1   
    15    9   23 1   
    16   10   11 1   
    17   11   12 2   
    18   11   13 1   
    19   13   14 1   
    20   13   24 1   
    21   13   25 1   
    22   14   15 1   
    23   14   26 1   
    24   14   27 1   
    25   15   16 1   
    26   15   28 1   
    27   15   29 1   
    28   16   17 1   
    29   16   30 1   
    30   16   31 1   
    31   17   32 1   
    32   17   33 1   
    33   17   34 1   
@<TRIPOS>SUBSTRUCTURE
     1 HHG         1 TEMP              0 ****  ****    0 ROOT
