@<TRIPOS>MOLECULE
HHG
   34    33     1     0     0
SMALL
bcc


@<TRIPOS>ATOM
      1 O2P         0.1760    0.1490   -0.2800 o         1 HHG     -0.928833
      2 P           1.6360   -0.1720   -0.4130 p5        1 HHG      1.312900
      3 O4P         2.3800   -0.5140    0.8500 o         1 HHG     -0.928833
      4 O1P         2.0610   -0.9390   -1.6360 o         1 HHG     -0.928833
      5 O3P         2.3150    1.4110   -0.7650 os        1 HHG     -0.567200
      6 C1          3.6740    1.2890   -0.9210 c3        1 HHG      0.171400
      7 C2          4.2500    2.6630   -1.3390 c3        1 HHG      0.120100
      8 O2          3.5420    3.7450   -0.7590 oh        1 HHG     -0.660800
      9 C3          5.7110    2.7690   -0.8950 c3        1 HHG      0.130400
     10 O3          6.3650    3.6260   -1.8640 os        1 HHG     -0.424900
     11 C4          7.5950    4.0950   -1.5670 c         1 HHG      0.626100
     12 O1          8.1600    3.7690   -0.5160 o         1 HHG     -0.580000
     13 C5          8.1260    5.0230   -2.6240 c3        1 HHG     -0.134400
     14 C6          9.6240    4.8790   -2.7750 c3        1 HHG     -0.078400
     15 C7         10.1760    5.9150   -3.7310 c3        1 HHG     -0.078400
     16 C8         11.6730    5.7620   -3.9010 c3        1 HHG     -0.081400
     17 C9         12.2310    6.7930   -4.8470 c3        1 HHG     -0.090100
     18 H11         3.9120    0.5300   -1.7160 h1        1 HHG      0.024200
     19 H12         4.1390    0.9570    0.0510 h1        1 HHG      0.024200
     20 H2          4.1890    2.7880   -2.4560 h1        1 HHG      0.029700
     21 HO2         2.7040    3.3780   -0.4210 ho        1 HHG      0.456000
     22 H31         5.8050    3.2240    0.1210 h1        1 HHG      0.055700
     23 H32         6.2230    1.7740   -0.9280 h1        1 HHG      0.055700
     24 H51         7.8620    6.0690   -2.3130 hc        1 HHG      0.069200
     25 H52         7.6090    4.8150   -3.5960 hc        1 HHG      0.069200
     26 H61         9.8650    3.8500   -3.1510 hc        1 HHG      0.054200
     27 H62        10.1110    4.9840   -1.7690 hc        1 HHG      0.054200
     28 H71         9.6720    5.8140   -4.7280 hc        1 HHG      0.036200
     29 H72         9.9450    6.9430   -3.3460 hc        1 HHG      0.036200
     30 H81        11.9000    4.7330   -4.2870 hc        1 HHG      0.039200
     31 H82        12.1730    5.8560   -2.9010 hc        1 HHG      0.039200
     32 H91        11.7600    6.6990   -5.8550 hc        1 HHG      0.026367
     33 H92        12.0360    7.8240   -4.4660 hc        1 HHG      0.026367
     34 H93        13.3350    6.6620   -4.9590 hc        1 HHG      0.026367
@<TRIPOS>BOND
     1    1    2 1   
     2    2    3 1   
     3    2    4 1   
     4    2    5 1   
     5    5    6 1   
     6    6    7 1   
     7    6   18 1   
     8    6   19 1   
     9    7    8 1   
    10    7    9 1   
    11    7   20 1   
    12    8   21 1   
    13    9   10 1   
    14    9   22 1   
    15    9   23 1   
    16   10   11 1   
    17   11   12 2   
    18   11   13 1   
    19   13   14 1   
    20   13   24 1   
    21   13   25 1   
    22   14   15 1   
    23   14   26 1   
    24   14   27 1   
    25   15   16 1   
    26   15   28 1   
    27   15   29 1   
    28   16   17 1   
    29   16   30 1   
    30   16   31 1   
    31   17   32 1   
    32   17   33 1   
    33   17   34 1   
@<TRIPOS>SUBSTRUCTURE
     1 HHG         1 TEMP              0 ****  ****    0 ROOT
