@<TRIPOS>MOLECULE
HHH
   19    19     1     0     0
SMALL
bcc


@<TRIPOS>ATOM
      1 O12         0.0140   -0.8410    0.9560 o         1 HHH     -0.828300
      2 C10         1.1170   -0.4850    0.4620 c         1 HHH      0.903600
      3 O11         1.4090   -0.5010   -0.7670 o         1 HHH     -0.828300
      4 C7          2.2440   -0.0160    1.4310 c3        1 HHH      0.047400
      5 O8          3.5030   -0.0030    0.7780 oh        1 HHH     -0.640800
      6 C1          1.9440    1.3190    2.0430 ca        1 HHH     -0.082300
      7 C2          0.6800    1.5440    2.6090 ca        1 HHH     -0.094000
      8 C3          0.3850    2.7580    3.2200 ca        1 HHH     -0.196500
      9 C6          2.9050    2.3350    2.0890 ca        1 HHH     -0.094000
     10 C5          2.6270    3.5580    2.6940 ca        1 HHH     -0.196500
     11 C4          1.3630    3.7620    3.2630 ca        1 HHH      0.082100
     12 O1          1.1370    4.9890    3.8630 oh        1 HHH     -0.522100
     13 H7          2.3400   -0.7730    2.2610 h1        1 HHH      0.053700
     14 HO8         3.3220    0.0250   -0.1760 ho        1 HHH      0.427000
     15 H2         -0.0810    0.7450    2.5320 ha        1 HHH      0.163000
     16 H3         -0.6070    2.9340    3.6570 ha        1 HHH      0.120000
     17 H6          3.8910    2.1550    1.6330 ha        1 HHH      0.163000
     18 H5          3.3770    4.3580    2.7310 ha        1 HHH      0.120000
     19 HO1         0.2150    5.0000    4.1500 ho        1 HHH      0.403000
@<TRIPOS>BOND
     1    1    2 1   
     2    2    3 1   
     3    2    4 1   
     4    4    5 1   
     5    4    6 1   
     6    4   13 1   
     7    5   14 1   
     8    6    7 ar  
     9    6    9 ar  
    10    7    8 ar  
    11    7   15 1   
    12    8   11 ar  
    13    8   16 1   
    14    9   10 ar  
    15    9   17 1   
    16   10   11 ar  
    17   10   18 1   
    18   11   12 1   
    19   12   19 1   
@<TRIPOS>SUBSTRUCTURE
     1 HHH         1 TEMP              0 ****  ****    0 ROOT
