@<TRIPOS>MOLECULE
HHH
   19    19     1     0     0
SMALL
bcc


@<TRIPOS>ATOM
      1 O12         2.2730   -1.7910    0.8380 o         1 HHH     -0.827800
      2 C10         2.3580   -0.6930    0.2270 c         1 HHH      0.904600
      3 O11         3.1480   -0.4420   -0.7260 o         1 HHH     -0.827800
      4 C7          1.4470    0.4840    0.6930 c3        1 HHH      0.046400
      5 O8          1.9080    1.7200    0.1720 oh        1 HHH     -0.641800
      6 C1          0.0080    0.2570    0.3410 ca        1 HHH     -0.080300
      7 C2         -0.5920   -0.9700    0.6660 ca        1 HHH     -0.094500
      8 C3         -1.9360   -1.2000    0.3930 ca        1 HHH     -0.197000
      9 C6         -0.7570    1.2490   -0.2790 ca        1 HHH     -0.094500
     10 C5         -2.1050    1.0360   -0.5630 ca        1 HHH     -0.197000
     11 C4         -2.6900   -0.1880   -0.2200 ca        1 HHH      0.082100
     12 O1         -4.0250   -0.4630   -0.4610 oh        1 HHH     -0.520100
     13 H7          1.5280    0.5770    1.8130 h1        1 HHH      0.053700
     14 HO8         2.4730    1.5080   -0.5910 ho        1 HHH      0.427000
     15 H2          0.0390   -1.7590    1.1190 ha        1 HHH      0.162500
     16 H3         -2.4110   -2.1580    0.6420 ha        1 HHH      0.120000
     17 H6         -0.2800    2.2050   -0.5430 ha        1 HHH      0.162500
     18 H5         -2.7010    1.8180   -1.0520 ha        1 HHH      0.120000
     19 HO1        -4.3940    0.2980   -0.9290 ho        1 HHH      0.400000
@<TRIPOS>BOND
     1    1    2 1   
     2    2    3 1   
     3    2    4 1   
     4    4    5 1   
     5    4    6 1   
     6    4   13 1   
     7    5   14 1   
     8    6    7 ar  
     9    6    9 ar  
    10    7    8 ar  
    11    7   15 1   
    12    8   11 ar  
    13    8   16 1   
    14    9   10 ar  
    15    9   17 1   
    16   10   11 ar  
    17   10   18 1   
    18   11   12 1   
    19   12   19 1   
@<TRIPOS>SUBSTRUCTURE
     1 HHH         1 TEMP              0 ****  ****    0 ROOT
