@<TRIPOS>MOLECULE
HHI
   17    12     1     0     0
SMALL
bcc


@<TRIPOS>ATOM
      1 C           1.7420    0.5030   -2.3210 c1        1 HHI      0.324000
      2 N           0.7750    1.7060   -0.4250 n1        1 HHI     -0.319000
      3 O           1.0560    0.5840   -3.3730 o         1 HHI     -0.551000
      4 CA          1.0630    0.5530   -0.9700 c2        1 HHI     -0.071000
      5 CB          0.7160   -0.7320   -0.2490 c3        1 HHI     -0.079000
      6 CG         -0.5140   -0.5150    0.6040 c2        1 HHI     -0.061000
      7 ND1        -0.5360   -0.4030    1.9350 n2        1 HHI     -0.172000
      8 CD2        -1.8040   -0.4510    0.1530 c1        1 HHI     -0.225000
      9 CE1        -1.8280   -0.2680    2.3220 c1        1 HHI     -0.155000
     10 NE2        -2.6040   -0.2990    1.2120 n2        1 HHI     -0.161000
     11 OXT         2.9910    0.3620   -2.3930 os        1 HHI     -0.554000
     12 HN          0.9840    2.4810   -0.8600 DU        1 HHI      0.193500
     13 HB          1.4660   -0.9980    0.3210 hc        1 HHI      0.126000
     14 HBA         0.5390   -1.4360   -0.9040 hc        1 HHI      0.126000
     15 HD2        -2.0900   -0.5060   -0.7780 DU        1 HHI      0.193500
     16 HE1        -2.1440   -0.1660    3.2400 DU        1 HHI      0.193500
     17 HND1        0.1900   -0.4140    2.4860 DU        1 HHI      0.193500
@<TRIPOS>BOND
     1    1    3 1   
     2    1    4 1   
     3    2    4 1   
     4    4    5 1   
     5    5    6 1   
     6    5   13 1   
     7    5   14 1   
     8    6    7 1   
     9    6    8 1   
    10    7    9 1   
    11    8   10 1   
    12    9   10 1   
@<TRIPOS>SUBSTRUCTURE
     1 HHI         1 TEMP              0 ****  ****    0 ROOT
