@<TRIPOS>MOLECULE
HHI
   17    17     1     0     0
SMALL
bcc


@<TRIPOS>ATOM
      1 C          -1.7530    0.3490   -1.0190 c         1 HHI      0.842300
      2 N          -1.3050   -1.8300    0.0650 n2        1 HHI     -0.772100
      3 O          -1.1120    0.5640   -2.0900 o         1 HHI     -0.816800
      4 CA         -1.0800   -0.5710    0.0270 ce        1 HHI      0.362300
      5 CB         -0.1700    0.2020    0.9620 c3        1 HHI     -0.105400
      6 CG          1.1980    0.3250    0.4200 cc        1 HHI     -0.188900
      7 ND1         1.4890    0.5030   -0.9310 na        1 HHI     -0.277900
      8 CD2         2.4470    0.3130    1.0900 cd        1 HHI      0.245200
      9 CE1         2.8740    0.5910   -1.0350 cc        1 HHI      0.348400
     10 NE2         3.4790    0.4800    0.1760 nd        1 HHI     -0.702000
     11 OXT        -2.8570    0.8600   -0.7150 o         1 HHI     -0.816800
     12 HN         -0.8150   -2.3230    0.7870 hn        1 HHI      0.338400
     13 HB         -0.6110    1.2270    1.1080 hc        1 HHI      0.056700
     14 HBA        -0.1100   -0.2880    1.9710 hc        1 HHI      0.056700
     15 HD2         2.6330    0.1950    2.1540 h4        1 HHI      0.020100
     16 HE1         3.3850    0.7330   -1.9910 h5        1 HHI      0.044100
     17 HND1        0.7950    0.5430   -1.6590 hn        1 HHI      0.365700
@<TRIPOS>BOND
     1    1    3 1   
     2    1    4 1   
     3    1   11 1   
     4    2    4 2   
     5    2   12 1   
     6    4    5 1   
     7    5    6 1   
     8    5   13 1   
     9    5   14 1   
    10    6    7 1   
    11    6    8 2   
    12    7    9 1   
    13    7   17 1   
    14    8   10 1   
    15    8   15 1   
    16    9   10 2   
    17    9   16 1   
@<TRIPOS>SUBSTRUCTURE
     1 HHI         1 TEMP              0 ****  ****    0 ROOT
