@<TRIPOS>MOLECULE
HHK
   29    28     1     0     0
SMALL
bcc


@<TRIPOS>ATOM
      1 N           0.0350   -1.4460   -2.7560 n3        1 HHK     -0.891800
      2 CA          1.2550   -1.6610   -3.5260 c3        1 HHK      0.018500
      3 CB          1.7580   -3.1040   -3.4740 c3        1 HHK     -0.063400
      4 CG          2.1880   -3.5200   -2.0840 c3        1 HHK     -0.075400
      5 CD          2.7550   -4.9240   -2.0810 c3        1 HHK     -0.080400
      6 CE          3.1560   -5.3540   -0.6860 c3        1 HHK     -0.078400
      7 CZ          3.6950   -6.7690   -0.6780 c3        1 HHK     -0.084400
      8 CT          4.0440   -7.1960    0.7460 c3        1 HHK      0.153800
      9 NH          4.5740   -8.5370    0.8430 n3        1 HHK     -0.915800
     10 C           1.1530   -1.2350   -5.0290 c         1 HHK      0.887600
     11 O           0.0600   -0.7470   -5.4360 o         1 HHK     -0.845300
     12 OXT         2.1790   -1.3850   -5.7480 o         1 HHK     -0.845300
     13 H          -0.6380   -2.1410   -3.0270 hn        1 HHK      0.329800
     14 H2         -0.3460   -0.5600   -3.0480 hn        1 HHK      0.329800
     15 HA          2.0430   -0.9980   -3.0620 h1        1 HHK      0.040700
     16 HB2         0.9640   -3.8020   -3.8470 hc        1 HHK      0.045700
     17 HB3         2.6270   -3.1760   -4.1830 hc        1 HHK      0.045700
     18 HG2         1.3140   -3.4670   -1.3830 hc        1 HHK      0.036200
     19 HG3         2.9610   -2.8030   -1.7010 hc        1 HHK      0.036200
     20 HD2         3.6460   -4.9710   -2.7610 hc        1 HHK      0.035200
     21 HD3         1.9910   -5.6380   -2.4890 hc        1 HHK      0.035200
     22 HE2         3.9350   -4.6530   -0.2860 hc        1 HHK      0.036700
     23 HE3         2.2680   -5.2840   -0.0040 hc        1 HHK      0.036700
     24 HZ2         4.6050   -6.8300   -1.3310 hc        1 HHK      0.043200
     25 HZ3         2.9270   -7.4640   -1.1100 hc        1 HHK      0.043200
     26 HT2         3.1230   -7.0550    1.3870 h1        1 HHK      0.023700
     27 HT1         4.8340   -6.5000    1.1500 h1        1 HHK      0.023700
     28 HH1         4.0740   -9.1650    0.2430 hn        1 HHK      0.340800
     29 HH2         4.5060   -8.8680    1.7840 hn        1 HHK      0.340800
@<TRIPOS>BOND
     1    1    2 1   
     2    1   13 1   
     3    1   14 1   
     4    2    3 1   
     5    2   10 1   
     6    2   15 1   
     7    3    4 1   
     8    3   16 1   
     9    3   17 1   
    10    4    5 1   
    11    4   18 1   
    12    4   19 1   
    13    5    6 1   
    14    5   20 1   
    15    5   21 1   
    16    6    7 1   
    17    6   22 1   
    18    6   23 1   
    19    7    8 1   
    20    7   24 1   
    21    7   25 1   
    22    8    9 1   
    23    8   26 1   
    24    8   27 1   
    25    9   28 1   
    26    9   29 1   
    27   10   11 1   
    28   10   12 1   
@<TRIPOS>SUBSTRUCTURE
     1 HHK         1 TEMP              0 ****  ****    0 ROOT
