@<TRIPOS>MOLECULE
HHO
   34    33     1     0     0
SMALL
bcc


@<TRIPOS>ATOM
      1 N           0.0990    0.0300   -0.1010 n4        1 HHO     -0.812000
      2 C           1.6140    0.0060    0.0150 c3        1 HHO      0.329600
      3 O           1.9890    0.4750    1.2710 oh        1 HHO     -0.546800
      4 C1         -0.4340    1.4270   -0.0810 c3        1 HHO      0.099800
      5 C2         -1.9560    1.4740   -0.0570 c3        1 HHO     -0.109400
      6 C3         -2.4090    2.9220   -0.0470 c3        1 HHO     -0.078400
      7 C4         -3.9210    3.0090   -0.0190 c3        1 HHO     -0.079400
      8 C5         -4.3760    4.4530   -0.0110 c3        1 HHO     -0.079400
      9 C6         -5.8860    4.5510    0.0180 c3        1 HHO     -0.078400
     10 C7         -6.3310    5.9960    0.0250 c3        1 HHO     -0.085400
     11 C8         -7.8470    6.0930    0.0540 c3        1 HHO      0.134400
     12 O8         -8.1680    7.4740    0.0570 oh        1 HHO     -0.598800
     13 HN         -0.3180   -0.4880    0.6800 hn        1 HHO      0.450300
     14 H1          2.0280    0.7440   -0.7370 hx        1 HHO      0.120200
     15 H2          1.9560   -1.0470   -0.1960 hx        1 HHO      0.120200
     16 HO          2.1250   -0.2720    1.8750 ho        1 HHO      0.449000
     17 H11        -0.0110    1.9350    0.8350 hx        1 HHO      0.113700
     18 H12        -0.0440    1.9570   -0.9970 hx        1 HHO      0.113700
     19 H21        -2.3810    0.9570   -0.9580 hc        1 HHO      0.065700
     20 H22        -2.3520    0.9550    0.8560 hc        1 HHO      0.065700
     21 H31        -1.9860    3.4460    0.8500 hc        1 HHO      0.057700
     22 H32        -2.0200    3.4480   -0.9590 hc        1 HHO      0.057700
     23 H41        -4.3140    2.4860    0.8930 hc        1 HHO      0.047700
     24 H42        -4.3480    2.4850   -0.9140 hc        1 HHO      0.047700
     25 H51        -3.9830    4.9780   -0.9220 hc        1 HHO      0.048200
     26 H52        -3.9490    4.9790    0.8840 hc        1 HHO      0.048200
     27 H61        -6.2810    4.0290    0.9300 hc        1 HHO      0.042700
     28 H62        -6.3160    4.0270   -0.8760 hc        1 HHO      0.042700
     29 H71        -5.9110    6.5290    0.9180 hc        1 HHO      0.058700
     30 H72        -5.9470    6.5260   -0.8860 hc        1 HHO      0.058700
     31 H81        -8.2570    5.6010    0.9780 h1        1 HHO      0.021700
     32 H82        -8.2930    5.5950   -0.8490 h1        1 HHO      0.021700
     33 HO8        -9.1300    7.5350    0.0770 ho        1 HHO      0.406000
     34 HN3        -0.1760   -0.4280   -0.9760 hn        1 HHO      0.450300
@<TRIPOS>BOND
     1    1    2 1   
     2    1    4 1   
     3    1   13 1   
     4    1   34 1   
     5    2    3 1   
     6    2   14 1   
     7    2   15 1   
     8    3   16 1   
     9    4    5 1   
    10    4   17 1   
    11    4   18 1   
    12    5    6 1   
    13    5   19 1   
    14    5   20 1   
    15    6    7 1   
    16    6   21 1   
    17    6   22 1   
    18    7    8 1   
    19    7   23 1   
    20    7   24 1   
    21    8    9 1   
    22    8   25 1   
    23    8   26 1   
    24    9   10 1   
    25    9   27 1   
    26    9   28 1   
    27   10   11 1   
    28   10   29 1   
    29   10   30 1   
    30   11   12 1   
    31   11   31 1   
    32   11   32 1   
    33   12   33 1   
@<TRIPOS>SUBSTRUCTURE
     1 HHO         1 TEMP              0 ****  ****    0 ROOT
