@<TRIPOS>MOLECULE
HHO
   33    32     1     0     0
SMALL
bcc


@<TRIPOS>ATOM
      1 N           0.7170   -0.1570   -4.4280 n3        1 HHO     -0.856200
      2 C          -0.0030   -0.3710   -5.6610 c3        1 HHO      0.356600
      3 O          -0.9680    0.6270   -5.9870 oh        1 HHO     -0.629800
      4 C1         -0.0570   -0.3800   -3.2240 c3        1 HHO      0.163800
      5 C2          0.6780    0.0310   -1.9500 c3        1 HHO     -0.083400
      6 C3         -0.1700   -0.2820   -0.7360 c3        1 HHO     -0.079400
      7 C4          0.5390    0.1170    0.5410 c3        1 HHO     -0.079400
      8 C5         -0.3070   -0.1960    1.7570 c3        1 HHO     -0.078400
      9 C6          0.4020    0.2020    3.0340 c3        1 HHO     -0.078400
     10 C7         -0.4470   -0.1110    4.2470 c3        1 HHO     -0.084400
     11 C8          0.2750    0.2920    5.5210 c3        1 HHO      0.132400
     12 O8         -0.5830   -0.0310    6.6050 oh        1 HHO     -0.601800
     13 HN          1.1530    0.7450   -4.4140 hn        1 HHO      0.372800
     14 H1          0.7330   -0.3170   -6.5150 h2        1 HHO      0.062200
     15 H2         -0.4950   -1.3850   -5.6320 h2        1 HHO      0.062200
     16 HO         -1.7200    0.5290   -5.3930 ho        1 HHO      0.396000
     17 H11        -0.2890   -1.4820   -3.1730 h1        1 HHO      0.025700
     18 H12        -1.0470    0.1670   -3.2530 h1        1 HHO      0.025700
     19 H21         0.9080    1.1290   -1.9760 hc        1 HHO      0.048200
     20 H22         1.6560   -0.5140   -1.8800 hc        1 HHO      0.048200
     21 H31        -0.4000   -1.3800   -0.7100 hc        1 HHO      0.041200
     22 H32        -1.1490    0.2600   -0.8070 hc        1 HHO      0.041200
     23 H41         0.7700    1.2140    0.5160 hc        1 HHO      0.041200
     24 H42         1.5180   -0.4260    0.6130 hc        1 HHO      0.041200
     25 H51        -0.5390   -1.2930    1.7820 hc        1 HHO      0.042200
     26 H52        -1.2860    0.3480    1.6850 hc        1 HHO      0.042200
     27 H61         0.6350    1.2990    3.0090 hc        1 HHO      0.039700
     28 H62         1.3800   -0.3430    3.1070 hc        1 HHO      0.039700
     29 H71        -0.6810   -1.2060    4.2850 hc        1 HHO      0.055700
     30 H72        -1.4240    0.4350    4.1880 hc        1 HHO      0.055700
     31 H81         0.4930    1.3940    5.5210 h1        1 HHO      0.019700
     32 H82         1.2440   -0.2680    5.6210 h1        1 HHO      0.019700
     33 HO8        -0.1190    0.2260    7.4090 ho        1 HHO      0.399000
@<TRIPOS>BOND
     1    1    2 1   
     2    1    4 1   
     3    1   13 1   
     4    2    3 1   
     5    2   14 1   
     6    2   15 1   
     7    3   16 1   
     8    4    5 1   
     9    4   17 1   
    10    4   18 1   
    11    5    6 1   
    12    5   19 1   
    13    5   20 1   
    14    6    7 1   
    15    6   21 1   
    16    6   22 1   
    17    7    8 1   
    18    7   23 1   
    19    7   24 1   
    20    8    9 1   
    21    8   25 1   
    22    8   26 1   
    23    9   10 1   
    24    9   27 1   
    25    9   28 1   
    26   10   11 1   
    27   10   29 1   
    28   10   30 1   
    29   11   12 1   
    30   11   31 1   
    31   11   32 1   
    32   12   33 1   
@<TRIPOS>SUBSTRUCTURE
     1 HHO         1 TEMP              0 ****  ****    0 ROOT
