@<TRIPOS>MOLECULE
HHO
   34    33     1     0     0
SMALL
bcc


@<TRIPOS>ATOM
      1 N           0.1090    0.0420   -0.1210 ny        1 HHO     -0.812000
      2 C           1.6230    0.0200    0.0110 c3        1 HHO      0.329600
      3 O           1.9830    0.4660    1.2800 oh        1 HHO     -0.546800
      4 C1         -0.4280    1.4370   -0.0810 c3        1 HHO      0.099800
      5 C2         -1.9510    1.4800   -0.0720 c3        1 HHO     -0.109400
      6 C3         -2.4080    2.9260   -0.0420 c3        1 HHO     -0.078400
      7 C4         -3.9200    3.0080   -0.0270 c3        1 HHO     -0.079400
      8 C5         -4.3790    4.4510    0.0010 c3        1 HHO     -0.079400
      9 C6         -5.8900    4.5440    0.0170 c3        1 HHO     -0.078400
     10 C7         -6.3390    5.9880    0.0420 c3        1 HHO     -0.085400
     11 C8         -7.8560    6.0790    0.0600 c3        1 HHO      0.134400
     12 O8         -8.1800    7.4600    0.0800 oh        1 HHO     -0.598800
     13 HN         -0.3140   -0.4920    0.6450 hn        1 HHO      0.450300
     14 H1          2.0430    0.7730   -0.7220 hx        1 HHO      0.120200
     15 H2          1.9700   -1.0280   -0.2160 hx        1 HHO      0.120200
     16 HO          2.1140   -0.2920    1.8710 ho        1 HHO      0.449000
     17 H11        -0.0160    1.9290    0.8490 hx        1 HHO      0.113700
     18 H12        -0.0300    1.9850   -0.9820 hx        1 HHO      0.113700
     19 H21        -2.3640    0.9780   -0.9870 hc        1 HHO      0.065700
     20 H22        -2.3540    0.9430    0.8270 hc        1 HHO      0.065700
     21 H31        -1.9950    3.4350    0.8690 hc        1 HHO      0.057700
     22 H32        -2.0110    3.4690   -0.9400 hc        1 HHO      0.057700
     23 H41        -4.3200    2.4690    0.8720 hc        1 HHO      0.047700
     24 H42        -4.3360    2.4980   -0.9350 hc        1 HHO      0.047700
     25 H51        -3.9800    4.9910   -0.8980 hc        1 HHO      0.048200
     26 H52        -3.9620    4.9630    0.9080 hc        1 HHO      0.048200
     27 H61        -6.2920    4.0070    0.9170 hc        1 HHO      0.042700
     28 H62        -6.3090    4.0330   -0.8900 hc        1 HHO      0.042700
     29 H71        -5.9290    6.5070    0.9470 hc        1 HHO      0.058700
     30 H72        -5.9480    6.5320   -0.8570 hc        1 HHO      0.058700
     31 H81        -8.2720    5.5720    0.9720 h1        1 HHO      0.021700
     32 H82        -8.2920    5.5950   -0.8550 h1        1 HHO      0.021700
     33 HO8        -9.1430    7.5180    0.0920 ho        1 HHO      0.406000
     34 HN3        -0.1550   -0.4000   -1.0070 hn        1 HHO      0.450300
@<TRIPOS>BOND
     1    1    2 1   
     2    1    4 1   
     3    1   13 1   
     4    1   34 1   
     5    2    3 1   
     6    2   14 1   
     7    2   15 1   
     8    3   16 1   
     9    4    5 1   
    10    4   17 1   
    11    4   18 1   
    12    5    6 1   
    13    5   19 1   
    14    5   20 1   
    15    6    7 1   
    16    6   21 1   
    17    6   22 1   
    18    7    8 1   
    19    7   23 1   
    20    7   24 1   
    21    8    9 1   
    22    8   25 1   
    23    8   26 1   
    24    9   10 1   
    25    9   27 1   
    26    9   28 1   
    27   10   11 1   
    28   10   29 1   
    29   10   30 1   
    30   11   12 1   
    31   11   31 1   
    32   11   32 1   
    33   12   33 1   
@<TRIPOS>SUBSTRUCTURE
     1 HHO         1 TEMP              0 ****  ****    0 ROOT
