@<TRIPOS>MOLECULE
HHO
   34    33     1     0     0
SMALL
bcc


@<TRIPOS>ATOM
      1 N           0.1070    0.0400   -0.1190 n4        1 HHO     -0.812000
      2 C           1.6220    0.0180    0.0020 c3        1 HHO      0.329600
      3 O           1.9910    0.4750    1.2660 oh        1 HHO     -0.546800
      4 C1         -0.4300    1.4350   -0.0860 c3        1 HHO      0.099800
      5 C2         -1.9520    1.4780   -0.0680 c3        1 HHO     -0.109400
      6 C3         -2.4080    2.9250   -0.0440 c3        1 HHO     -0.078400
      7 C4         -3.9210    3.0080   -0.0210 c3        1 HHO     -0.079400
      8 C5         -4.3790    4.4510   -0.0000 c3        1 HHO     -0.079400
      9 C6         -5.8900    4.5440    0.0230 c3        1 HHO     -0.078400
     10 C7         -6.3380    5.9880    0.0410 c3        1 HHO     -0.085400
     11 C8         -7.8550    6.0810    0.0640 c3        1 HHO      0.134400
     12 O8         -8.1790    7.4610    0.0770 oh        1 HHO     -0.598800
     13 HN         -0.3110   -0.4870    0.6550 hn        1 HHO      0.450300
     14 H1          2.0370    0.7660   -0.7400 hx        1 HHO      0.120200
     15 H2          1.9670   -1.0320   -0.2190 hx        1 HHO      0.120200
     16 HO          2.1270   -0.2790    1.8620 ho        1 HHO      0.449000
     17 H11        -0.0370    1.9760   -0.9940 hx        1 HHO      0.113700
     18 H12        -0.0110    1.9350    0.8370 hx        1 HHO      0.113700
     19 H21        -2.3720    0.9700   -0.9760 hc        1 HHO      0.065700
     20 H22        -2.3500    0.9480    0.8380 hc        1 HHO      0.065700
     21 H31        -2.0170    3.4610   -0.9490 hc        1 HHO      0.057700
     22 H32        -1.9900    3.4400    0.8610 hc        1 HHO      0.057700
     23 H41        -4.3420    2.4920   -0.9230 hc        1 HHO      0.047700
     24 H42        -4.3160    2.4740    0.8840 hc        1 HHO      0.047700
     25 H51        -3.9570    4.9680    0.9020 hc        1 HHO      0.048200
     26 H52        -3.9840    4.9850   -0.9040 hc        1 HHO      0.048200
     27 H61        -6.3140    4.0270   -0.8780 hc        1 HHO      0.042700
     28 H62        -6.2870    4.0130    0.9280 hc        1 HHO      0.042700
     29 H71        -5.9240    6.5130    0.9410 hc        1 HHO      0.058700
     30 H72        -5.9510    6.5270   -0.8630 hc        1 HHO      0.058700
     31 H81        -8.2680    5.5800    0.9810 h1        1 HHO      0.021700
     32 H82        -8.2950    5.5900   -0.8450 h1        1 HHO      0.021700
     33 HO8        -9.1410    7.5200    0.0940 ho        1 HHO      0.406000
     34 HN3        -0.1630   -0.4090   -1.0000 hn        1 HHO      0.450300
@<TRIPOS>BOND
     1    1    2 1   
     2    1    4 1   
     3    1   13 1   
     4    1   34 1   
     5    2    3 1   
     6    2   14 1   
     7    2   15 1   
     8    3   16 1   
     9    4    5 1   
    10    4   17 1   
    11    4   18 1   
    12    5    6 1   
    13    5   19 1   
    14    5   20 1   
    15    6    7 1   
    16    6   21 1   
    17    6   22 1   
    18    7    8 1   
    19    7   23 1   
    20    7   24 1   
    21    8    9 1   
    22    8   25 1   
    23    8   26 1   
    24    9   10 1   
    25    9   27 1   
    26    9   28 1   
    27   10   11 1   
    28   10   29 1   
    29   10   30 1   
    30   11   12 1   
    31   11   31 1   
    32   11   32 1   
    33   12   33 1   
@<TRIPOS>SUBSTRUCTURE
     1 HHO         1 TEMP              0 ****  ****    0 ROOT
