@<TRIPOS>MOLECULE
HHP
   23    24     1     0     0
SMALL
bcc


@<TRIPOS>ATOM
      1 C7          0.0010    0.2240   -0.0800 c3        1 HHP      0.158500
      2 N8          1.3160   -0.3330    0.1160 nu        1 HHP     -0.751000
      3 C9          1.9840   -0.1800    1.3100 cc        1 HHP      0.454600
      4 N1          3.2800   -0.6810    1.4020 nc        1 HHP     -0.742300
      5 C2          3.9060   -0.5780    2.5990 cd        1 HHP      0.723800
      6 N2          5.1650   -1.1850    2.7440 nv        1 HHP     -0.906800
      7 C10         1.3290    0.4730    2.3970 cd        1 HHP     -0.190600
      8 C4          2.0290    0.5980    3.6710 c         1 HHP      0.751700
      9 N3          3.3450    0.0550    3.7110 ns        1 HHP     -0.511400
     10 O4          1.6250    1.1210    4.7200 o         1 HHP     -0.605500
     11 N5          0.0420    0.9990    2.2950 nf        1 HHP     -0.459300
     12 C6         -0.5740    0.8900    1.1550 c2        1 HHP      0.284300
     13 C6A        -1.9710    1.4290    0.9600 c3        1 HHP      0.114100
     14 O6A        -2.0980    2.7900    1.3070 oh        1 HHP     -0.594800
     15 H71         0.0390    0.9830   -0.9170 h1        1 HHP      0.047700
     16 H72        -0.6930   -0.6090   -0.4020 h1        1 HHP      0.047700
     17 HN8         1.7720   -0.7370   -0.6680 hn        1 HHP      0.454800
     18 HN21        5.7840   -0.7870    3.4110 hn        1 HHP      0.431300
     19 HN22        5.5890   -1.5160    1.9060 hn        1 HHP      0.431300
     20 HN3         3.8250    0.0840    4.5840 hn        1 HHP      0.334500
     21 H6A1       -2.6940    0.8060    1.5550 h1        1 HHP      0.052700
     22 H6A2       -2.2490    1.3900   -0.1290 h1        1 HHP      0.052700
     23 HO6        -1.8370    2.8870    2.2320 ho        1 HHP      0.421000
@<TRIPOS>BOND
     1    1    2 1   
     2    1   12 1   
     3    1   15 1   
     4    1   16 1   
     5    2    3 1   
     6    2   17 1   
     7    3    4 1   
     8    3    7 2   
     9    4    5 2   
    10    5    6 1   
    11    5    9 1   
    12    6   18 1   
    13    6   19 1   
    14    7    8 1   
    15    7   11 1   
    16    8    9 1   
    17    8   10 2   
    18    9   20 1   
    19   11   12 2   
    20   12   13 1   
    21   13   14 1   
    22   13   21 1   
    23   13   22 1   
    24   14   23 1   
@<TRIPOS>SUBSTRUCTURE
     1 HHP         1 TEMP              0 ****  ****    0 ROOT
