@<TRIPOS>MOLECULE
HHP
   24    25     1     0     0
SMALL
bcc


@<TRIPOS>ATOM
      1 C7         -0.0010    0.2260   -0.1120 c3        1 HHP      0.132500
      2 N8          1.3280   -0.3170    0.0800 nh        1 HHP     -0.733000
      3 C9          1.9730   -0.1650    1.2830 cc        1 HHP      0.395600
      4 N1          3.2970   -0.6420    1.4010 nc        1 HHP     -0.621300
      5 C2          3.8690   -0.5230    2.5920 cd        1 HHP      0.560800
      6 N2          5.2810   -1.0430    2.6750 n4        1 HHP     -0.808600
      7 C10         1.3070    0.4390    2.3800 cd        1 HHP     -0.077600
      8 C4          1.9680    0.5430    3.6820 c         1 HHP      0.743700
      9 N3          3.3130    0.0200    3.7330 n         1 HHP     -0.497400
     10 O4          1.5490    1.0080    4.7390 o         1 HHP     -0.510500
     11 N5          0.0130    0.9650    2.2770 nf        1 HHP     -0.493300
     12 C6         -0.5880    0.8770    1.1280 c2        1 HHP      0.371300
     13 C6A        -1.9810    1.4380    0.9200 c3        1 HHP      0.101100
     14 O6A        -2.0880    2.7770    1.3300 oh        1 HHP     -0.571800
     15 H71        -0.6790   -0.6190   -0.4360 h1        1 HHP      0.079200
     16 H72         0.0290    0.9920   -0.9440 h1        1 HHP      0.079200
     17 HN8         1.8130   -0.6540   -0.7210 hn        1 HHP      0.469800
     18 HN21        5.9130   -0.2780    2.9390 hn        1 HHP      0.484133
     19 HN22        5.3280   -1.7940    3.3740 hn        1 HHP      0.484133
     20 HN3         3.7990    0.0750    4.6040 hn        1 HHP      0.352500
     21 H6A1       -2.7180    0.7820    1.4590 h1        1 HHP      0.074700
     22 H6A2       -2.2210    1.4570   -0.1800 h1        1 HHP      0.074700
     23 HO6        -2.0320    2.8040    2.2950 ho        1 HHP      0.425000
     24 H23         5.5680   -1.4180    1.7580 hn        1 HHP      0.484133
@<TRIPOS>BOND
     1    1    2 1   
     2    1   12 1   
     3    1   15 1   
     4    1   16 1   
     5    2    3 1   
     6    2   17 1   
     7    3    4 1   
     8    3    7 2   
     9    4    5 2   
    10    5    6 1   
    11    5    9 1   
    12    6   18 1   
    13    6   19 1   
    14    6   24 1   
    15    7    8 1   
    16    7   11 1   
    17    8    9 1   
    18    8   10 2   
    19    9   20 1   
    20   11   12 2   
    21   12   13 1   
    22   13   14 1   
    23   13   21 1   
    24   13   22 1   
    25   14   23 1   
@<TRIPOS>SUBSTRUCTURE
     1 HHP         1 TEMP              0 ****  ****    0 ROOT
