@<TRIPOS>MOLECULE
HHP
   23    24     1     0     0
SMALL
bcc


@<TRIPOS>ATOM
      1 C7          1.8820   -0.0530   -1.7380 c3        1 HHP      0.158500
      2 N8          2.0560   -0.0180   -0.3070 nh        1 HHP     -0.751000
      3 C9          0.9720   -0.0220    0.5420 cc        1 HHP      0.454600
      4 N1          1.2150    0.0750    1.9110 nc        1 HHP     -0.742300
      5 C2          0.1420    0.0670    2.7370 cd        1 HHP      0.723800
      6 N2          0.3580    0.2820    4.1080 nh        1 HHP     -0.906800
      7 C10        -0.3410   -0.1480   -0.0030 cd        1 HHP     -0.189600
      8 C4         -1.4810   -0.1890    0.9050 c         1 HHP      0.751700
      9 N3         -1.1740   -0.0940    2.2920 n         1 HHP     -0.511400
     10 O4         -2.6840   -0.3030    0.6220 o         1 HHP     -0.605500
     11 N5         -0.5840   -0.2240   -1.3740 nf        1 HHP     -0.459300
     12 C6          0.4370   -0.1770   -2.1780 c2        1 HHP      0.285300
     13 C6A         0.2630   -0.2550   -3.6760 c3        1 HHP      0.114100
     14 O6A        -0.6310    0.7100   -4.1840 oh        1 HHP     -0.594800
     15 H71         2.4650   -0.9330   -2.1440 h1        1 HHP      0.048200
     16 H72         2.3200    0.8870   -2.1890 h1        1 HHP      0.048200
     17 HN8         2.9710    0.1390    0.0470 hn        1 HHP      0.454800
     18 HN21        1.3080    0.2640    4.4080 hn        1 HHP      0.431800
     19 HN22       -0.2990   -0.1140    4.7380 hn        1 HHP      0.431800
     20 HN3        -1.9400   -0.0670    2.9300 hn        1 HHP      0.334500
     21 H6A1        1.2380   -0.0310   -4.1890 h1        1 HHP      0.052700
     22 H6A2       -0.0800   -1.2890   -3.9560 h1        1 HHP      0.052700
     23 HO6        -1.4850    0.5840   -3.7490 ho        1 HHP      0.421000
@<TRIPOS>BOND
     1    1    2 1   
     2    1   12 1   
     3    1   15 1   
     4    1   16 1   
     5    2    3 1   
     6    2   17 1   
     7    3    4 1   
     8    3    7 2   
     9    4    5 2   
    10    5    6 1   
    11    5    9 1   
    12    6   18 1   
    13    6   19 1   
    14    7    8 1   
    15    7   11 1   
    16    8    9 1   
    17    8   10 2   
    18    9   20 1   
    19   11   12 2   
    20   12   13 1   
    21   13   14 1   
    22   13   21 1   
    23   13   22 1   
    24   14   23 1   
@<TRIPOS>SUBSTRUCTURE
     1 HHP         1 TEMP              0 ****  ****    0 ROOT
