@<TRIPOS>MOLECULE
HHP
   23    22     1     0     0
SMALL
bcc


@<TRIPOS>ATOM
      1 C7         -1.3100   -0.4140   -1.7710 c3        1 HHP     -0.003000
      2 N8          0.1130   -0.4140   -1.7710 n3        1 HHP     -0.306000
      3 C9          0.8380   -0.4140   -0.5160 c2        1 HHP      0.232000
      4 N1          2.1990   -0.4140   -0.5150 n2        1 HHP     -0.314000
      5 C2          2.8830   -0.4140    0.6690 c1        1 HHP      0.277000
      6 N2          4.3010   -0.4030    0.6680 n2        1 HHP     -0.345000
      7 C10         0.2590    0.0980    0.6030 c1        1 HHP     -0.311000
      8 C4          0.8530   -0.4140    1.8600 c1        1 HHP      0.390000
      9 N3          2.1990   -0.4140    1.8570 n3        1 HHP     -0.351000
     10 O4          0.4190   -0.0430    2.9320 o         1 HHP     -0.330000
     11 N5         -1.0750    0.6390    0.5400 n2        1 HHP     -0.031000
     12 C6         -1.9100    0.2790   -0.5690 c2        1 HHP     -0.153000
     13 C6A        -3.3700    0.6750   -0.5750 c3        1 HHP      0.039000
     14 O6A        -3.6850    1.3280    0.6350 oh        1 HHP     -0.322000
     15 H71        -1.7000   -0.0940   -2.6060 h1        1 HHP      0.087500
     16 H72        -1.5940   -1.3480   -1.7500 h1        1 HHP      0.087500
     17 HN8         0.4170    0.2660   -2.2970 hn        1 HHP      0.250000
     18 HN21        4.7510    0.3850    0.5770 hn        1 HHP      0.227000
     19 HN22        4.7630   -1.1860    0.7430 hn        1 HHP      0.227000
     20 HN3         2.6560   -0.4140    2.6460 hn        1 HHP      0.248000
     21 H6A1       -3.5410    1.2770   -1.3240 h1        1 HHP      0.092000
     22 H6A2       -3.9240   -0.1240   -0.6670 h1        1 HHP      0.092000
     23 HO6        -4.5420    1.5620    0.6310 ho        1 HHP      0.220000
@<TRIPOS>BOND
     1    1    2 1   
     2    1   12 1   
     3    1   15 1   
     4    1   16 1   
     5    2    3 1   
     6    2   17 1   
     7    3    4 1   
     8    3    7 1   
     9    4    5 1   
    10    5    9 1   
    11    6   18 1   
    12    6   19 1   
    13    7   11 1   
    14    8    9 1   
    15    8   10 1   
    16    9   20 1   
    17   11   12 1   
    18   12   13 1   
    19   13   14 1   
    20   13   21 1   
    21   13   22 1   
    22   14   23 1   
@<TRIPOS>SUBSTRUCTURE
     1 HHP         1 TEMP              0 ****  ****    0 ROOT
