@<TRIPOS>MOLECULE
HHR
   21    22     1     0     0
SMALL
bcc


@<TRIPOS>ATOM
      1 C7          1.2500   -0.0380   -1.8980 ca        1 HHR      0.361900
      2 N8          1.7950   -0.0390   -0.6870 nb        1 HHR     -0.627000
      3 C9          0.9190   -0.0210    0.3880 ca        1 HHR      0.567000
      4 N1          1.4530   -0.0170    1.6760 nc        1 HHR     -0.737700
      5 C2          0.5960   -0.0280    2.7130 cd        1 HHR      0.689800
      6 N2          1.1150   -0.1580    4.0180 nh        1 HHR     -0.893800
      7 C10        -0.5040    0.0010    0.1450 ca        1 HHR      0.169500
      8 C4         -1.4220    0.0190    1.3100 c         1 HHR      0.622000
      9 N3         -0.8050    0.0260    2.5770 n         1 HHR     -0.512400
     10 O4         -2.6600    0.0370    1.2750 o         1 HHR     -0.579500
     11 N5         -1.0370    0.0020   -1.1070 nb        1 HHR     -0.563000
     12 C6         -0.1690   -0.0190   -2.1290 ca        1 HHR      0.252300
     13 C6A        -0.7050   -0.0350   -3.5360 c3        1 HHR      0.089100
     14 O6A         0.3890    0.1460   -4.4240 oh        1 HHR     -0.608800
     15 H71         1.9490   -0.0500   -2.7570 h4        1 HHR      0.061100
     16 HN21        2.1090   -0.0980    4.0830 hn        1 HHR      0.426800
     17 HN22        0.6230    0.3280    4.7330 hn        1 HHR      0.426800
     18 HN3        -1.3980   -0.0210    3.3770 hn        1 HHR      0.338500
     19 H6A1       -1.1980   -1.0250   -3.7410 h1        1 HHR      0.052200
     20 H6A2       -1.4560    0.7900   -3.6780 h1        1 HHR      0.052200
     21 HO6         0.0100    0.2000   -5.3090 ho        1 HHR      0.413000
@<TRIPOS>BOND
     1    1    2 ar  
     2    1   12 ar  
     3    1   15 1   
     4    2    3 ar  
     5    3    4 1   
     6    3    7 ar  
     7    4    5 2   
     8    5    6 1   
     9    5    9 1   
    10    6   16 1   
    11    6   17 1   
    12    7    8 1   
    13    7   11 ar  
    14    8    9 1   
    15    8   10 2   
    16    9   18 1   
    17   11   12 ar  
    18   12   13 1   
    19   13   14 1   
    20   13   19 1   
    21   13   20 1   
    22   14   21 1   
@<TRIPOS>SUBSTRUCTURE
     1 HHR         1 TEMP              0 ****  ****    0 ROOT
