@<TRIPOS>MOLECULE
HHR
   22    23     1     0     0
SMALL
bcc


@<TRIPOS>ATOM
      1 C7         -0.0220    0.0020   -0.0320 ca        1 HHR      0.361900
      2 N8          1.3060    0.0030   -0.0790 nb        1 HHR     -0.576000
      3 C9          1.9590    0.0010    1.1390 ca        1 HHR      0.489000
      4 N1          3.3690    0.0030    1.1370 nc        1 HHR     -0.602700
      5 C2          3.9690    0.0000    2.3130 cd        1 HHR      0.532800
      6 N2          5.4720    0.0020    2.2630 n4        1 HHR     -0.803600
      7 C10         1.2170   -0.0030    2.3690 ca        1 HHR      0.251500
      8 C4          1.9440   -0.0060    3.6660 c         1 HHR      0.621000
      9 N3          3.3690   -0.0040    3.5700 n         1 HHR     -0.511400
     10 O4          1.4670   -0.0090    4.7980 o         1 HHR     -0.489500
     11 N5         -0.1440   -0.0050    2.3930 nb        1 HHR     -0.572000
     12 C6         -0.7700   -0.0020    1.2030 ca        1 HHR      0.338300
     13 C6A        -2.2770   -0.0040    1.1690 c3        1 HHR      0.077100
     14 O6A        -2.6690   -0.0010   -0.1930 oh        1 HHR     -0.610800
     15 H71        -0.5580    0.0040   -1.0070 h4        1 HHR      0.094100
     16 HN21        5.8300    0.8430    2.7310 hn        1 HHR      0.485133
     17 HN22        5.8320   -0.8410    2.7260 hn        1 HHR      0.485133
     18 HN3         3.8930   -0.0060    4.4200 hn        1 HHR      0.354500
     19 H6A1       -2.6680   -0.9250    1.6860 h1        1 HHR      0.076700
     20 H6A2       -2.6700    0.9130    1.6900 h1        1 HHR      0.076700
     21 HO6        -3.6350   -0.0020   -0.2030 ho        1 HHR      0.437000
     22 H23         5.7840    0.0050    1.2770 hn        1 HHR      0.485133
@<TRIPOS>BOND
     1    1    2 ar  
     2    1   12 ar  
     3    1   15 1   
     4    2    3 ar  
     5    3    4 1   
     6    3    7 ar  
     7    4    5 2   
     8    5    6 1   
     9    5    9 1   
    10    6   16 1   
    11    6   17 1   
    12    6   22 1   
    13    7    8 1   
    14    7   11 ar  
    15    8    9 1   
    16    8   10 2   
    17    9   18 1   
    18   11   12 ar  
    19   12   13 1   
    20   13   14 1   
    21   13   19 1   
    22   13   20 1   
    23   14   21 1   
@<TRIPOS>SUBSTRUCTURE
     1 HHR         1 TEMP              0 ****  ****    0 ROOT
