@<TRIPOS>MOLECULE
HHR
   21    22     1     0     0
SMALL
bcc


@<TRIPOS>ATOM
      1 C7          0.0070   -0.1290   -0.0240 ca        1 HHR      0.361900
      2 N8          1.3350   -0.1410   -0.0660 nb        1 HHR     -0.627000
      3 C9          1.9950   -0.0610    1.1510 ca        1 HHR      0.567000
      4 N1          3.3890   -0.0660    1.1480 nc        1 HHR     -0.737700
      5 C2          4.0220   -0.0160    2.3340 cd        1 HHR      0.689800
      6 N2          5.4250   -0.1540    2.3590 nv        1 HHR     -0.893800
      7 C10         1.2290    0.0330    2.3710 ca        1 HHR      0.169500
      8 C4          1.9560    0.1170    3.6610 c         1 HHR      0.622000
      9 N3          3.3620    0.1100    3.5730 ns        1 HHR     -0.512400
     10 O4          1.4530    0.2010    4.7900 o         1 HHR     -0.579500
     11 N5         -0.1310    0.0430    2.3870 nb        1 HHR     -0.563000
     12 C6         -0.7470   -0.0380    1.1980 ca        1 HHR      0.252300
     13 C6A        -2.2520   -0.0450    1.1580 c3        1 HHR      0.089100
     14 O6A        -2.6560    0.0530   -0.2010 oh        1 HHR     -0.608800
     15 H71        -0.5210   -0.1910   -0.9960 h4        1 HHR      0.061100
     16 HN21        5.9020    0.3670    3.0590 hn        1 HHR      0.426800
     17 HN22        5.8640   -0.1460    1.4630 hn        1 HHR      0.426800
     18 HN3         3.8770    0.1060    4.4280 hn        1 HHR      0.338500
     19 H6A1       -2.6630    0.8220    1.7440 h1        1 HHR      0.052200
     20 H6A2       -2.6360   -1.0070    1.5980 h1        1 HHR      0.052200
     21 HO6        -3.6180    0.1100   -0.1910 ho        1 HHR      0.413000
@<TRIPOS>BOND
     1    1    2 ar  
     2    1   12 ar  
     3    1   15 1   
     4    2    3 ar  
     5    3    4 1   
     6    3    7 ar  
     7    4    5 2   
     8    5    6 1   
     9    5    9 1   
    10    6   16 1   
    11    6   17 1   
    12    7    8 1   
    13    7   11 ar  
    14    8    9 1   
    15    8   10 2   
    16    9   18 1   
    17   11   12 ar  
    18   12   13 1   
    19   13   14 1   
    20   13   19 1   
    21   13   20 1   
    22   14   21 1   
@<TRIPOS>SUBSTRUCTURE
     1 HHR         1 TEMP              0 ****  ****    0 ROOT
