@<TRIPOS>MOLECULE
HHR
   21    18     1     0     0
SMALL
bcc


@<TRIPOS>ATOM
      1 C7         -1.1980    0.0390   -1.8860 c1        1 HHR     -0.054000
      2 N8          0.1540    0.0080   -1.8670 n1        1 HHR     -0.097000
      3 C9          0.8090    0.0390   -0.6970 c1        1 HHR      0.088000
      4 N1          2.1770    0.0250   -0.6810 n2        1 HHR     -0.232000
      5 C2          2.8430    0.0720    0.5000 c1        1 HHR      0.248000
      6 N2          4.2800    0.0510    0.2860 n2        1 HHR     -0.334000
      7 C10         0.1100    0.1010    0.4800 c1        1 HHR     -0.180000
      8 C4          0.7890    0.1490    1.6810 c1        1 HHR      0.369000
      9 N3          2.1380    0.1350    1.6930 n3        1 HHR     -0.352000
     10 O4          0.1880    0.2140    2.7040 o         1 HHR     -0.302000
     11 N5         -1.2320    0.1310    0.4610 n2        1 HHR     -0.036000
     12 C6         -1.8920    0.1000   -0.7190 c1        1 HHR     -0.139000
     13 C6A        -3.4370    0.0860   -0.5200 c3        1 HHR      0.041000
     14 O6A        -3.8640   -1.2370   -0.2170 oh        1 HHR     -0.316000
     15 H71        -1.6580    0.0170   -2.7060 ha        1 HHR      0.177000
     16 HN21        4.6270    0.1370   -0.5860 hn        1 HHR      0.224500
     17 HN22        4.8780   -0.0110    1.0360 hn        1 HHR      0.224500
     18 HN3         2.6050    0.1680    2.5180 hn        1 HHR      0.253000
     19 H6A1       -3.6810    0.6920    0.2340 h1        1 HHR      0.098500
     20 H6A2       -3.8800    0.3950   -1.3480 h1        1 HHR      0.098500
     21 HO6        -4.7560   -1.3110   -0.3670 ho        1 HHR      0.219000
@<TRIPOS>BOND
     1    1    2 1   
     2    1   15 1   
     3    3    4 1   
     4    3    7 1   
     5    4    5 1   
     6    5    9 1   
     7    6   16 1   
     8    6   17 1   
     9    7   11 1   
    10    8    9 1   
    11    8   10 1   
    12    9   18 1   
    13   11   12 1   
    14   12   13 1   
    15   13   14 1   
    16   13   19 1   
    17   13   20 1   
    18   14   21 1   
@<TRIPOS>SUBSTRUCTURE
     1 HHR         1 TEMP              0 ****  ****    0 ROOT
