@<TRIPOS>MOLECULE
HHS
   19    20     1     0     0
SMALL
bcc


@<TRIPOS>ATOM
      1 N1         -2.1240   -1.3300    0.1360 nc        1 HHS     -0.712700
      2 C2         -3.0370   -0.3740   -0.0240 cd        1 HHS      0.613800
      3 N2         -4.4300   -0.7240   -0.0820 nh        1 HHS     -0.870800
      4 N3         -2.7330    0.9920   -0.1840 n         1 HHS     -0.509400
      5 C4         -1.3990    1.4430   -0.2510 c         1 HHS      0.617000
      6 O4         -1.2310    2.6590   -0.4280 o         1 HHS     -0.603500
      7 N5          0.9600    0.7800   -0.1260 nb        1 HHS     -0.572000
      8 C6A         1.8630   -0.1920    0.0130 ca        1 HHS      0.269500
      9 O6A         3.9150    0.3140    1.1190 o         1 HHS     -0.792300
     10 O6B         3.9620   -0.0180   -1.1070 o         1 HHS     -0.792300
     11 C6          3.3900    0.0810    0.0040 c         1 HHS      0.833100
     12 C7          1.4500   -1.5640    0.1840 ca        1 HHS      0.329900
     13 N8          0.1820   -1.9590    0.2220 nb        1 HHS     -0.647000
     14 C9         -0.7690   -0.9610    0.0850 ca        1 HHS      0.494000
     15 C10        -0.3550    0.4030   -0.0920 ca        1 HHS      0.199500
     16 HN2        -4.5650   -1.7150   -0.0330 hn        1 HHS      0.388300
     17 HN2A       -4.9530   -0.2570    0.6310 hn        1 HHS      0.388300
     18 HN3        -3.4580    1.6510   -0.3590 hn        1 HHS      0.325500
     19 H7          2.2210   -2.3490    0.2910 h4        1 HHS      0.039100
@<TRIPOS>BOND
     1    1    2 2   
     2    1   14 1   
     3    2    3 1   
     4    2    4 1   
     5    3   16 1   
     6    3   17 1   
     7    4    5 1   
     8    4   18 1   
     9    5    6 2   
    10    5   15 1   
    11    7    8 ar  
    12    7   15 ar  
    13    8   11 1   
    14    8   12 ar  
    15    9   11 1   
    16   10   11 1   
    17   12   13 ar  
    18   12   19 1   
    19   13   14 ar  
    20   14   15 ar  
@<TRIPOS>SUBSTRUCTURE
     1 HHS         1 TEMP              0 ****  ****    0 ROOT
