@<TRIPOS>MOLECULE
HHS
   20    21     1     0     0
SMALL
bcc


@<TRIPOS>ATOM
      1 N1          0.0020   -0.1440   -0.0580 nc        1 HHS     -0.583700
      2 C2          1.3130   -0.0200    0.0020 cd        1 HHS      0.465800
      3 N2          2.0210   -0.0740   -1.3240 n4        1 HHS     -0.796600
      4 N3          2.1020    0.1530    1.1410 n         1 HHS     -0.520400
      5 C4          1.4690    0.2100    2.4200 c         1 HHS      0.621000
      6 O4          2.2230    0.3640    3.3810 o         1 HHS     -0.518500
      7 N5         -0.6700    0.1220    3.6030 nb        1 HHS     -0.578000
      8 C6A        -2.0020   -0.0020    3.5580 ca        1 HHS      0.323500
      9 O6A        -3.1030   -1.0860    5.3640 o         1 HHS     -0.745300
     10 O6B        -3.3070    1.1680    5.1630 o         1 HHS     -0.745300
     11 C6         -2.8940    0.0330    4.8590 c         1 HHS      0.841100
     12 C7         -2.6900   -0.1780    2.2950 ca        1 HHS      0.330900
     13 N8         -2.0760   -0.2270    1.1200 nb        1 HHS     -0.606000
     14 C9         -0.6960   -0.0980    1.1600 ca        1 HHS      0.421000
     15 C10        -0.0110    0.0760    2.4120 ca        1 HHS      0.276500
     16 HN2         2.5250    0.8040   -1.4770 hn        1 HHS      0.470800
     17 HN2A        2.6760   -0.8620   -1.3280 hn        1 HHS      0.470800
     18 HN3         3.0920    0.2390    1.0990 hn        1 HHS      0.334500
     19 H7         -3.7930   -0.2780    2.2920 h4        1 HHS      0.068100
     20 H23         1.3270   -0.2040   -2.0740 hn        1 HHS      0.470800
@<TRIPOS>BOND
     1    1    2 2   
     2    1   14 1   
     3    2    3 1   
     4    2    4 1   
     5    3   16 1   
     6    3   17 1   
     7    3   20 1   
     8    4    5 1   
     9    4   18 1   
    10    5    6 2   
    11    5   15 1   
    12    7    8 ar  
    13    7   15 ar  
    14    8   11 1   
    15    8   12 ar  
    16    9   11 1   
    17   10   11 1   
    18   12   13 ar  
    19   12   19 1   
    20   13   14 ar  
    21   14   15 ar  
@<TRIPOS>SUBSTRUCTURE
     1 HHS         1 TEMP              0 ****  ****    0 ROOT
