@<TRIPOS>MOLECULE
HHS
   19    16     1     0     0
SMALL
bcc


@<TRIPOS>ATOM
      1 N1          0.1740    0.0700   -1.9620 n1        1 HHS     -0.531800
      2 C2          1.6200    0.0490   -1.9470 c1        1 HHS      0.548600
      3 N2          2.3420    0.0840   -3.1690 n3        1 HHS     -0.774400
      4 N3          2.3220    0.0020   -0.7030 n2        1 HHS     -0.593400
      5 C4          1.6090   -0.0250    0.5040 ce        1 HHS      0.648500
      6 O4          2.2060   -0.0270    1.5630 o         1 HHS     -0.593300
      7 N5         -0.5960   -0.0390    1.6590 n1        1 HHS     -0.046000
      8 C6A        -1.9390   -0.0310    1.6420 cg        1 HHS     -0.052200
      9 O6A        -2.4450   -1.1930    3.6850 o         1 HHS     -0.792300
     10 O6B        -2.6890    0.9740    3.6930 o         1 HHS     -0.792300
     11 C6         -2.3820   -0.0860    3.0880 c         1 HHS      0.891800
     12 C7         -2.6200    0.0150    0.4310 c1        1 HHS     -0.012500
     13 N8         -1.9340    0.0510   -0.7230 n1        1 HHS     -0.446800
     14 C9         -0.5710    0.0420   -0.7080 cg        1 HHS      0.304500
     15 C10         0.1000   -0.0030    0.4890 ce        1 HHS     -0.138900
     16 HN2         1.9010   -0.0130   -3.9630 hn        1 HHS      0.388300
     17 HN2A        3.2530    0.1650   -3.1590 hn        1 HHS      0.388300
     18 HN3         3.2340   -0.0110   -0.6950 hn        1 HHS      0.483400
     19 H7         -3.5840   -0.0250    0.2750 ha        1 HHS      0.118500
@<TRIPOS>BOND
     1    1    2 3   
     2    2    3 1   
     3    3   16 1   
     4    3   17 1   
     5    4    5 2   
     6    4   18 1   
     7    5    6 1   
     8    5   15 1   
     9    7   15 2   
    10    8   11 1   
    11    8   12 3   
    12    9   11 1   
    13   10   11 1   
    14   12   19 1   
    15   13   14 3   
    16   14   15 1   
@<TRIPOS>SUBSTRUCTURE
     1 HHS         1 TEMP              0 ****  ****    0 ROOT
