@<TRIPOS>MOLECULE
HHS
   20    21     1     0     0
SMALL
bcc


@<TRIPOS>ATOM
      1 N1          0.0090   -0.2270   -0.0480 nc        1 HHS     -0.583700
      2 C2          1.3120   -0.0310    0.0010 cd        1 HHS      0.465800
      3 N2          2.0210   -0.1160   -1.3220 nz        1 HHS     -0.796600
      4 N3          2.0910    0.2430    1.1270 ns        1 HHS     -0.520400
      5 C4          1.4550    0.3330    2.4040 c         1 HHS      0.621000
      6 O4          2.2000    0.5760    3.3520 o         1 HHS     -0.518500
      7 N5         -0.6760    0.1930    3.5960 nb        1 HHS     -0.578000
      8 C6A        -1.9990   -0.0040    3.5610 ca        1 HHS      0.323500
      9 O6A        -3.0390   -1.0500    5.4250 o         1 HHS     -0.745300
     10 O6B        -3.3650    1.1770    5.1060 o         1 HHS     -0.745300
     11 C6         -2.8910    0.0510    4.8610 c         1 HHS      0.841100
     12 C7         -2.6770   -0.2810    2.3110 ca        1 HHS      0.330900
     13 N8         -2.0610   -0.3590    1.1390 nb        1 HHS     -0.606000
     14 C9         -0.6900   -0.1550    1.1680 ca        1 HHS      0.421000
     15 C10        -0.0150    0.1190    2.4070 ca        1 HHS      0.276500
     16 HN2         2.4780    0.7780   -1.5220 hn        1 HHS      0.470800
     17 HN2A        2.7170   -0.8670   -1.2870 hn        1 HHS      0.470800
     18 HN3         3.0750    0.3790    1.0780 hn        1 HHS      0.334500
     19 H7         -3.7730   -0.4390    2.3170 h4        1 HHS      0.068100
     20 H23         1.3350   -0.3220   -2.0630 hn        1 HHS      0.470800
@<TRIPOS>BOND
     1    1    2 2   
     2    1   14 1   
     3    2    3 1   
     4    2    4 1   
     5    3   16 1   
     6    3   17 1   
     7    3   20 1   
     8    4    5 1   
     9    4   18 1   
    10    5    6 2   
    11    5   15 1   
    12    7    8 ar  
    13    7   15 ar  
    14    8   11 1   
    15    8   12 ar  
    16    9   11 1   
    17   10   11 1   
    18   12   13 ar  
    19   12   19 1   
    20   13   14 ar  
    21   14   15 ar  
@<TRIPOS>SUBSTRUCTURE
     1 HHS         1 TEMP              0 ****  ****    0 ROOT
