@<TRIPOS>MOLECULE
HHV
   29    30     1     0     0
SMALL
bcc


@<TRIPOS>ATOM
      1 C01        -0.0260   -0.0590    0.0130 cc        1 HHV     -0.351900
      2 C02         1.3380   -0.5120   -0.0440 cd        1 HHV      0.029300
      3 N03         1.7030   -0.7900    1.2720 na        1 HHV      0.074400
      4 N04         0.7100   -0.5570    2.1240 nd        1 HHV     -0.375800
      5 C05        -0.3620   -0.1120    1.4170 cc        1 HHV      0.379200
      6 N06         2.1750   -0.6590   -1.2140 n4        1 HHV     -0.654400
      7 C07         3.5280    0.0490   -1.0960 c3        1 HHV      0.209100
      8 C08         4.2200    0.0030   -2.3970 ca        1 HHV     -0.357600
      9 C09         3.9620    0.9900   -3.3780 ca        1 HHV      0.447200
     10 N10         4.5990    1.0400   -4.5580 nb        1 HHV     -0.632000
     11 C11         5.5420    0.1080   -4.8050 ca        1 HHV      0.481200
     12 C12         5.8790   -0.9120   -3.8860 ca        1 HHV     -0.226300
     13 C13         5.2060   -0.9640   -2.6700 ca        1 HHV     -0.044000
     14 C14        -0.8060    0.3380   -1.1240 c         1 HHV      0.605700
     15 O15        -0.4320    0.3670   -2.2940 o         1 HHV     -0.441100
     16 N16        -2.2260    0.7620   -0.8780 n4        1 HHV     -0.739400
     17 H05        -1.3020    0.1450    1.9200 h4        1 HHV      0.094100
     18 HN06        1.6710   -0.2650   -2.0310 hn        1 HHV      0.484800
     19 H07         3.3160    1.1100   -0.7750 hx        1 HHV      0.113200
     20 H07A        4.1150   -0.4820   -0.2940 hx        1 HHV      0.113200
     21 H09         3.2210    1.7930   -3.2040 h4        1 HHV      0.027100
     22 H11         6.0560    0.1890   -5.7860 h4        1 HHV      0.073100
     23 H12         6.6670   -1.6420   -4.1340 ha        1 HHV      0.189000
     24 H13         5.4600   -1.7370   -1.9270 ha        1 HHV      0.152000
     25 HN16       -2.2520    1.5740   -0.2470 hn        1 HHV      0.492467
     26 HN1A       -2.6700    1.0230   -1.7760 hn        1 HHV      0.492467
     27 HN03        2.5890   -1.1300    1.6160 hn        1 HHV      0.387700
     28 H062        2.3380   -1.6620   -1.4010 hn        1 HHV      0.484800
     29 H163       -2.7610   -0.0080   -0.4560 hn        1 HHV      0.492467
@<TRIPOS>BOND
     1    1    2 2   
     2    1    5 1   
     3    1   14 1   
     4    2    3 1   
     5    2    6 1   
     6    3    4 1   
     7    3   27 1   
     8    4    5 2   
     9    5   17 1   
    10    6    7 1   
    11    6   18 1   
    12    6   28 1   
    13    7    8 1   
    14    7   19 1   
    15    7   20 1   
    16    8    9 ar  
    17    8   13 ar  
    18    9   10 ar  
    19    9   21 1   
    20   10   11 ar  
    21   11   12 ar  
    22   11   22 1   
    23   12   13 ar  
    24   12   23 1   
    25   13   24 1   
    26   14   15 2   
    27   14   16 1   
    28   16   25 1   
    29   16   26 1   
    30   16   29 1   
@<TRIPOS>SUBSTRUCTURE
     1 HHV         1 TEMP              0 ****  ****    0 ROOT
