@<TRIPOS>MOLECULE
HHV
   28    29     1     0     0
SMALL
bcc


@<TRIPOS>ATOM
      1 C01        -0.0520    0.0320   -0.0330 cc        1 HHV     -0.491900
      2 C02         1.4070   -0.0460   -0.0350 cd        1 HHV      0.312300
      3 N03         1.7680   -0.1030    1.3210 na        1 HHV     -0.066600
      4 N04         0.6950   -0.0620    2.1390 nd        1 HHV     -0.430800
      5 C05        -0.4060    0.0150    1.3830 cc        1 HHV      0.359200
      6 N06         2.2240   -0.0620   -1.1040 nh        1 HHV     -0.721600
      7 C07         3.6700   -0.1360   -0.9960 c3        1 HHV      0.261100
      8 C08         4.3330   -0.0980   -2.3320 ca        1 HHV     -0.270600
      9 C09         4.3860    1.1040   -3.0680 ca        1 HHV      0.419200
     10 N10         4.9920    1.2130   -4.2640 nb        1 HHV     -0.649000
     11 C11         5.5790    0.1090   -4.7660 ca        1 HHV      0.428200
     12 C12         5.5830   -1.1350   -4.1060 ca        1 HHV     -0.239300
     13 C13         4.9450   -1.2370   -2.8710 ca        1 HHV     -0.062000
     14 C14        -0.8340    0.1030   -1.1910 c         1 HHV      0.609700
     15 O15        -0.5170    0.1120   -2.3820 o         1 HHV     -0.508100
     16 N16        -2.3410    0.1860   -0.9620 n4        1 HHV     -0.750400
     17 H05        -1.4040    0.0580    1.8230 h4        1 HHV      0.051100
     18 HN06        1.8080   -0.0240   -2.0150 hn        1 HHV      0.489800
     19 H07         3.9450   -1.0900   -0.4560 h1        1 HHV      0.068200
     20 H07A        4.0310    0.7370   -0.3740 h1        1 HHV      0.068200
     21 H09         3.9260    2.0300   -2.6770 h4        1 HHV      0.026100
     22 H11         6.0740    0.2340   -5.7490 h4        1 HHV      0.044100
     23 H12         6.0820   -2.0030   -4.5600 ha        1 HHV      0.163000
     24 H13         4.9310   -2.1940   -2.3270 ha        1 HHV      0.146000
     25 HN16       -2.8200    0.2340   -1.8690 hn        1 HHV      0.462467
     26 HN1A       -2.5620    1.0220   -0.4160 hn        1 HHV      0.462467
     27 HN03        2.6880   -0.1460    1.7020 hn        1 HHV      0.355700
     28 H163       -2.6590   -0.6400   -0.4520 hn        1 HHV      0.462467
@<TRIPOS>BOND
     1    1    2 2   
     2    1    5 1   
     3    1   14 1   
     4    2    3 1   
     5    2    6 1   
     6    3    4 1   
     7    3   27 1   
     8    4    5 2   
     9    5   17 1   
    10    6    7 1   
    11    6   18 1   
    12    7    8 1   
    13    7   19 1   
    14    7   20 1   
    15    8    9 ar  
    16    8   13 ar  
    17    9   10 ar  
    18    9   21 1   
    19   10   11 ar  
    20   11   12 ar  
    21   11   22 1   
    22   12   13 ar  
    23   12   23 1   
    24   13   24 1   
    25   14   15 2   
    26   14   16 1   
    27   16   25 1   
    28   16   26 1   
    29   16   28 1   
@<TRIPOS>SUBSTRUCTURE
     1 HHV         1 TEMP              0 ****  ****    0 ROOT
