@<TRIPOS>MOLECULE
HHV
   28    29     1     0     0
SMALL
bcc


@<TRIPOS>ATOM
      1 C01        -0.0530    0.0360   -0.0350 cc        1 HHV     -0.491900
      2 C02         1.4050   -0.0450   -0.0360 cd        1 HHV      0.312300
      3 N03         1.7650   -0.1020    1.3210 na        1 HHV     -0.066600
      4 N04         0.6920   -0.0610    2.1380 nd        1 HHV     -0.430800
      5 C05        -0.4080    0.0190    1.3810 cc        1 HHV      0.359200
      6 N06         2.2240   -0.0610   -1.1050 nu        1 HHV     -0.721600
      7 C07         3.6690   -0.1380   -0.9950 c3        1 HHV      0.261100
      8 C08         4.3330   -0.1020   -2.3300 ca        1 HHV     -0.269600
      9 C09         4.3820    1.0980   -3.0710 ca        1 HHV      0.419200
     10 N10         4.9890    1.2050   -4.2660 nb        1 HHV     -0.649000
     11 C11         5.5820    0.1020   -4.7640 ca        1 HHV      0.428200
     12 C12         5.5900   -1.1400   -4.0990 ca        1 HHV     -0.239300
     13 C13         4.9510   -1.2400   -2.8640 ca        1 HHV     -0.062000
     14 C14        -0.8340    0.1090   -1.1940 c         1 HHV      0.609700
     15 O15        -0.5160    0.1180   -2.3840 o         1 HHV     -0.508100
     16 N16        -2.3410    0.1950   -0.9660 nz        1 HHV     -0.750400
     17 H05        -1.4070    0.0630    1.8200 h4        1 HHV      0.051100
     18 HN06        1.8080   -0.0220   -2.0160 hn        1 HHV      0.489800
     19 H07         3.9420   -1.0920   -0.4540 h1        1 HHV      0.068200
     20 H07A        4.0310    0.7350   -0.3740 h1        1 HHV      0.068200
     21 H09         3.9180    2.0230   -2.6840 h4        1 HHV      0.026100
     22 H11         6.0770    0.2250   -5.7460 h4        1 HHV      0.044100
     23 H12         6.0930   -2.0080   -4.5490 ha        1 HHV      0.163000
     24 H13         4.9390   -2.1960   -2.3170 ha        1 HHV      0.146000
     25 HN16       -2.6610   -0.6310   -0.4570 hn        1 HHV      0.462467
     26 HN1A       -2.5610    1.0300   -0.4200 hn        1 HHV      0.462467
     27 HN03        2.6850   -0.1480    1.7030 hn        1 HHV      0.355700
     28 H163       -2.8190    0.2440   -1.8730 hn        1 HHV      0.462467
@<TRIPOS>BOND
     1    1    2 2   
     2    1    5 1   
     3    1   14 1   
     4    2    3 1   
     5    2    6 1   
     6    3    4 1   
     7    3   27 1   
     8    4    5 2   
     9    5   17 1   
    10    6    7 1   
    11    6   18 1   
    12    7    8 1   
    13    7   19 1   
    14    7   20 1   
    15    8    9 ar  
    16    8   13 ar  
    17    9   10 ar  
    18    9   21 1   
    19   10   11 ar  
    20   11   12 ar  
    21   11   22 1   
    22   12   13 ar  
    23   12   23 1   
    24   13   24 1   
    25   14   15 2   
    26   14   16 1   
    27   16   25 1   
    28   16   26 1   
    29   16   28 1   
@<TRIPOS>SUBSTRUCTURE
     1 HHV         1 TEMP              0 ****  ****    0 ROOT
