@<TRIPOS>MOLECULE
HHV
   27    28     1     0     0
SMALL
bcc


@<TRIPOS>ATOM
      1 C01        -2.5950   -0.1110    0.0710 cc        1 HHV     -0.401900
      2 C02        -1.4320    0.7240    0.0860 cd        1 HHV      0.208300
      3 N03        -1.9040    2.0320   -0.1490 na        1 HHV     -0.056600
      4 N04        -3.2440    2.0720   -0.2450 nd        1 HHV     -0.521800
      5 C05        -3.6950    0.8040   -0.1340 cc        1 HHV      0.356200
      6 N06        -0.1290    0.3550    0.3500 nh        1 HHV     -0.725600
      7 C07         0.9520    1.1900   -0.1290 c3        1 HHV      0.245100
      8 C08         2.2880    0.5230   -0.0530 ca        1 HHV     -0.226600
      9 C09         3.1690    0.5870   -1.1530 ca        1 HHV      0.408200
     10 N10         4.4020    0.0470   -1.1500 nb        1 HHV     -0.662000
     11 C11         4.7970   -0.5910   -0.0310 ca        1 HHV      0.402200
     12 C12         3.9920   -0.7120    1.1170 ca        1 HHV     -0.244300
     13 C13         2.7180   -0.1420    1.1010 ca        1 HHV     -0.071000
     14 C14        -2.5830   -1.5560    0.2120 c         1 HHV      0.723700
     15 O15        -1.5150   -2.2090    0.3250 o         1 HHV     -0.663100
     16 N16        -3.7840   -2.2270    0.2120 n         1 HHV     -0.670000
     17 H05        -4.7570    0.5630   -0.2030 h4        1 HHV      0.040100
     18 HN06        0.0150   -0.6400    0.2960 hn        1 HHV      0.468800
     19 H07         0.7660    1.5250   -1.1940 h1        1 HHV      0.047200
     20 H07A        0.9780    2.1190    0.5160 h1        1 HHV      0.047200
     21 H09         2.8730    1.0970   -2.0880 h4        1 HHV      0.024100
     22 H11         5.8120   -1.0270   -0.0600 h4        1 HHV      0.026100
     23 H12         4.3610   -1.2460    2.0020 ha        1 HHV      0.149000
     24 H13         2.0620   -0.2170    1.9820 ha        1 HHV      0.153000
     25 HN16       -4.6390   -1.7430    0.1430 hn        1 HHV      0.312000
     26 HN1A       -3.7890   -3.2100    0.3130 hn        1 HHV      0.312000
     27 HN03       -1.3830    2.8730   -0.0710 hn        1 HHV      0.322700
@<TRIPOS>BOND
     1    1    2 2   
     2    1    5 1   
     3    1   14 1   
     4    2    3 1   
     5    2    6 1   
     6    3    4 1   
     7    3   27 1   
     8    4    5 2   
     9    5   17 1   
    10    6    7 1   
    11    6   18 1   
    12    7    8 1   
    13    7   19 1   
    14    7   20 1   
    15    8    9 ar  
    16    8   13 ar  
    17    9   10 ar  
    18    9   21 1   
    19   10   11 ar  
    20   11   12 ar  
    21   11   22 1   
    22   12   13 ar  
    23   12   23 1   
    24   13   24 1   
    25   14   15 2   
    26   14   16 1   
    27   16   25 1   
    28   16   26 1   
@<TRIPOS>SUBSTRUCTURE
     1 HHV         1 TEMP              0 ****  ****    0 ROOT
