@<TRIPOS>MOLECULE
HHV
   27    22     1     0     0
SMALL
bcc


@<TRIPOS>ATOM
      1 C01        -2.4760   -0.4800    0.9610 c1        1 HHV     -0.301000
      2 C02        -1.1370   -0.2160    0.9780 c1        1 HHV      0.004000
      3 N03        -0.8070    0.1830    2.2240 n2        1 HHV     -0.131000
      4 N04        -1.9440    0.1690    2.9900 n2        1 HHV     -0.131000
      5 C05        -2.9680   -0.2390    2.2110 c1        1 HHV      0.004000
      6 N06        -0.2530   -0.3090   -0.1320 n2        1 HHV     -0.256000
      7 C07         1.0840   -0.7600    0.0590 c3        1 HHV     -0.012000
      8 C08         2.0380    0.1740   -0.6560 c2        1 HHV     -0.178000
      9 C09         1.7550    0.6000   -1.9440 c2        1 HHV     -0.059000
     10 N10         2.6460    1.3830   -2.6150 n1        1 HHV     -0.131000
     11 C11         3.8160    1.7480   -2.0200 c1        1 HHV     -0.125000
     12 C12         4.1020    1.3230   -0.7310 c1        1 HHV     -0.125000
     13 C13         3.2100    0.5390   -0.0590 c1        1 HHV     -0.088000
     14 C14        -3.2640   -1.0050   -0.2180 c1        1 HHV      0.397000
     15 O15        -2.6960   -1.2630   -1.2620 o         1 HHV     -0.430000
     16 N16        -4.6590   -1.2350   -0.0940 n3        1 HHV     -0.425000
     17 H05        -3.8970   -0.3430    2.4920 DU        1 HHV      0.227500
     18 HN06       -0.5500   -0.1040   -0.9700 hn        1 HHV      0.243000
     19 H07         1.2920   -0.7690    1.0160 h1        1 HHV      0.103500
     20 H07A        1.1790   -1.6650   -0.3040 h1        1 HHV      0.103500
     21 H09         0.9160    0.3400   -2.3720 h4        1 HHV      0.187000
     22 H11         4.4550    2.3100   -2.5020 ha        1 HHV      0.152000
     23 H12         4.9400    1.5850   -0.3050 ha        1 HHV      0.152000
     24 H13         3.4100    0.2400    0.8490 ha        1 HHV      0.135000
     25 HN16       -5.1430   -1.5160   -0.8160 hn        1 HHV      0.227500
     26 HN1A       -5.0730   -1.1110    0.7130 hn        1 HHV      0.227500
     27 HN03        0.0260    0.4200    2.5070 DU        1 HHV      0.227500
@<TRIPOS>BOND
     1    1    2 1   
     2    1    5 1   
     3    2    3 1   
     4    3    4 1   
     5    4    5 1   
     6    6    7 1   
     7    6   18 1   
     8    7    8 1   
     9    7   19 1   
    10    7   20 1   
    11    8    9 1   
    12    8   13 1   
    13    9   10 1   
    14    9   21 1   
    15   11   12 1   
    16   11   22 1   
    17   12   23 1   
    18   13   24 1   
    19   14   15 1   
    20   14   16 1   
    21   16   25 1   
    22   16   26 1   
@<TRIPOS>SUBSTRUCTURE
     1 HHV         1 TEMP              0 ****  ****    0 ROOT
