@<TRIPOS>MOLECULE
HI1
   92    87     1     0     0
SMALL
bcc


@<TRIPOS>ATOM
      1 C23        -0.9480   -1.5710   -1.3520 c2        1 HI1     -0.116000
      2 C14        -2.1900    1.3390   -3.5000 c3        1 HI1     -0.201000
      3 C24         2.4060    3.5880    0.6460 c1        1 HI1     -0.226750
      4 C1         -1.5850    0.6700   -2.2630 c3        1 HI1      0.105000
      5 C25         3.2120    4.2600    1.2200 c1        1 HI1     -0.226750
      6 C26         1.2840   -4.5970   -2.2810 c2        1 HI1     -0.122000
      7 C27         0.5410   -3.5710   -1.9790 c1        1 HI1     -0.117000
      8 C28        -0.1900   -2.5820   -1.6850 c1        1 HI1     -0.136000
      9 C33        -1.9490    0.8830   -9.1540 c1        1 HI1     -0.165000
     10 C34        -1.2040   -0.0010   -8.3020 c3        1 HI1      0.027000
     11 C35        -0.5430   -1.0540   -9.0210 c1        1 HI1     -0.079000
     12 C36         0.0180   -1.9410   -9.6030 c1        1 HI1     -0.320000
     13 C37        -3.9780   -0.9350   -5.5930 c1        1 HI1     -0.226750
     14 C38        -5.1630   -0.9000   -5.7480 c1        1 HI1     -0.226750
     15 C32        -2.5720    1.6320   -9.8470 c1        1 HI1     -0.197000
     16 C7         -5.5480    6.8950   -1.5730 c3        1 HI1     -0.211000
     17 C4         -2.4420    3.4460   -4.7950 c3        1 HI1     -0.100000
     18 O3         -1.8740    4.2670   -0.6740 o         1 HI1     -0.231000
     19 N1         -1.9940    8.4400   -0.3360 n2        1 HI1      0.108000
     20 C22        -1.8290   -0.8490   -2.3020 c3        1 HI1     -0.150000
     21 O6         -2.1560    1.1260   -1.0530 oh        1 HI1     -0.303000
     22 O8         -3.0370    8.7320    0.0760 o         1 HI1     -0.203000
     23 C10        -0.0760    0.9660   -2.1950 c2        1 HI1      0.235000
     24 O11         0.4520    1.6870   -1.3540 o         1 HI1     -0.244000
     25 N12         0.8150    0.3140   -3.2080 n4        1 HI1      0.014000
     26 C51         1.1750    1.2150   -4.2760 c2        1 HI1     -0.376000
     27 C52         2.1640    2.2720   -4.1960 c2        1 HI1      0.022000
     28 C57         2.2290    2.8970   -5.4440 c2        1 HI1     -0.212000
     29 C53         3.0080    2.6890   -3.0660 c3        1 HI1     -0.136000
     30 C54         3.8930    3.8350   -3.4040 c2        1 HI1     -0.125000
     31 C55         3.9100    4.4090   -4.6270 c2        1 HI1     -0.181000
     32 C59         0.6160    1.1410   -5.5540 c1        1 HI1     -0.238000
     33 O60        -0.7590   -1.1280   -5.3320 oh        1 HI1     -0.527000
     34 C30        -1.7580    5.3290   -0.1910 c1        1 HI1      0.233000
     35 C56         3.0810    3.9770   -5.7280 c1        1 HI1     -0.078000
     36 C58         1.2570    2.2170   -6.3730 c3        1 HI1     -0.134000
     37 C41        -5.2170    6.9240   -3.0520 c3        1 HI1     -0.107000
     38 C42        -5.1890    8.3450   -3.6430 c3        1 HI1     -0.046000
     39 C43        -6.5590    8.9890   -3.4590 c3        1 HI1     -0.214000
     40 C44        -4.1380    9.2110   -2.9670 c3        1 HI1     -0.214000
     41 C45        -3.8800    6.2130   -3.2570 c2        1 HI1      0.297000
     42 N24        -2.5780    4.9070   -4.8780 n3        1 HI1     -0.158000
     43 O46        -2.9560    6.2650   -2.4170 o         1 HI1     -0.414000
     44 N47        -3.7610    5.4120   -4.3990 n         1 HI1     -0.311000
     45 BR          0.8330   -3.2250  -10.4470 br        1 HI1      0.225000
     46 C86        -4.8900    8.2780   -5.1360 c3        1 HI1     -0.214000
     47 H401       -3.0140    3.1830   -2.7040 hc        1 HI1      0.093500
     48 H402       -1.2350    3.2240   -2.9930 hc        1 HI1      0.093500
     49 H141       -3.2390    0.9540   -3.6170 hc        1 HI1      0.129000
     50 H142       -1.6110    1.0100   -4.4090 hc        1 HI1      0.129000
     51 H4C1       -3.3490    2.9630   -5.2540 h1        1 HI1      0.111500
     52 H4C2       -1.5540    3.2110   -5.4530 h1        1 HI1      0.111500
     53 H221       -2.8990   -1.0240   -1.9990 hc        1 HI1      0.143000
     54 H222       -1.7110   -1.2160   -3.3590 hc        1 HI1      0.143000
     55 H6         -2.0830    2.0930   -1.0280 ho        1 HI1      0.239000
     56 H24         1.6850    2.9930    0.1410 ha        1 HI1      0.225500
     57 H28        -0.9940   -1.2170   -0.3040 ha        1 HI1      0.159000
     58 H25         1.8890   -5.1220   -1.5270 ha        1 HI1      0.141000
     59 H26         3.9250    4.8580    1.7280 ha        1 HI1      0.225500
     60 H27         1.3420   -4.9950   -3.3050 ha        1 HI1      0.141000
     61 H12         1.6690   -0.0100   -2.7440 hn        1 HI1      0.256000
     62 H51         0.3170   -0.4940   -3.6350 hn        1 HI1      0.256000
     63 H321       -1.8080    5.3180   -4.3530 hn        1 HI1      0.168000
     64 H322       -3.1220    2.3000  -10.4600 ha        1 HI1      0.223000
     65 H47        -4.3780    5.6350   -5.1600 hn        1 HI1      0.238000
     66 H59        -0.3930   -0.2680   -5.7010 ho        1 HI1      0.237500
     67 H53         2.3580    2.9710   -2.1850 hc        1 HI1      0.126000
     68 H54         3.6490    1.8220   -2.7340 hc        1 HI1      0.126000
     69 H55         4.5360    4.1830   -2.5810 ha        1 HI1      0.124000
     70 H56         4.5810    5.2590   -4.8350 ha        1 HI1      0.139000
     71 H581        0.4850    2.9350   -6.7530 hc        1 HI1      0.136500
     72 H582        1.7850    1.7770   -7.2580 hc        1 HI1      0.136500
     73 H60        -0.4650   -1.8020   -5.9440 ho        1 HI1      0.237500
     74 H34        -0.4300    0.5960   -7.7190 hc        1 HI1      0.140500
     75 H38        -6.2140   -0.8700   -5.8890 ha        1 HI1      0.225500
     76 H35        -1.9010   -0.4620   -7.5340 hc        1 HI1      0.140500
     77 H37        -2.9200   -0.9730   -5.4600 ha        1 HI1      0.225500
     78 H41        -6.0270    6.3550   -3.5970 hc        1 HI1      0.103000
     79 H431       -6.7650    9.1800   -2.3780 hc        1 HI1      0.081111
     80 H432       -6.5940    9.9670   -3.9970 hc        1 HI1      0.081111
     81 H433       -7.3610    8.3280   -3.8680 hc        1 HI1      0.081111
     82 H441       -4.0630   10.1950   -3.4890 hc        1 HI1      0.081111
     83 H442       -3.1400    8.7090   -3.0010 hc        1 HI1      0.081111
     84 H443       -4.4040    9.3950   -1.8970 hc        1 HI1      0.081111
     85 H861       -5.0530    9.2810   -5.6020 hc        1 HI1      0.081111
     86 H862       -3.8270    7.9880   -5.3160 hc        1 HI1      0.081111
     87 H863       -5.5630    7.5450   -5.6420 hc        1 HI1      0.081111
     88 H7C1       -4.7860    7.4640   -0.9850 hc        1 HI1      0.090000
     89 H7C2       -5.5550    5.8390   -1.2080 hc        1 HI1      0.090000
     90 H7C3       -6.5560    7.3380   -1.3910 hc        1 HI1      0.090000
     91 H1         -1.9580    7.5570   -0.8870 hn        1 HI1      0.094000
     92 C40        -2.2080    2.8490   -3.4110 c3        1 HI1     -0.197000
@<TRIPOS>BOND
     1    1    8 1   
     2    1   20 1   
     3    1   57 1   
     4    2    4 1   
     5    2   49 1   
     6    2   50 1   
     7    2   92 1   
     8    3    5 1   
     9    3   56 1   
    10    4   20 1   
    11    4   21 1   
    12    4   23 1   
    13    5   59 1   
    14    6    7 1   
    15    6   58 1   
    16    6   60 1   
    17    7    8 1   
    18    9   10 1   
    19    9   15 1   
    20   10   11 1   
    21   10   74 1   
    22   10   76 1   
    23   11   12 1   
    24   12   45 1   
    25   13   14 1   
    26   13   77 1   
    27   14   75 1   
    28   15   64 1   
    29   16   37 1   
    30   16   88 1   
    31   16   89 1   
    32   16   90 1   
    33   17   42 1   
    34   17   51 1   
    35   17   52 1   
    36   17   92 1   
    37   18   34 1   
    38   19   22 1   
    39   19   91 1   
    40   20   53 1   
    41   20   54 1   
    42   21   55 1   
    43   23   24 1   
    44   23   25 1   
    45   25   26 1   
    46   25   61 1   
    47   25   62 1   
    48   26   27 1   
    49   26   32 1   
    50   27   28 1   
    51   27   29 1   
    52   28   35 1   
    53   28   36 1   
    54   29   30 1   
    55   29   67 1   
    56   29   68 1   
    57   30   31 1   
    58   30   69 1   
    59   31   35 1   
    60   31   70 1   
    61   32   36 1   
    62   33   66 1   
    63   33   73 1   
    64   36   71 1   
    65   36   72 1   
    66   37   38 1   
    67   37   41 1   
    68   37   78 1   
    69   38   39 1   
    70   38   40 1   
    71   38   46 1   
    72   39   79 1   
    73   39   80 1   
    74   39   81 1   
    75   40   82 1   
    76   40   83 1   
    77   40   84 1   
    78   41   43 1   
    79   41   44 1   
    80   42   44 1   
    81   42   63 1   
    82   44   65 1   
    83   46   85 1   
    84   46   86 1   
    85   46   87 1   
    86   47   92 1   
    87   48   92 1   
@<TRIPOS>SUBSTRUCTURE
     1 HI1         1 TEMP              0 ****  ****    0 ROOT
