@<TRIPOS>MOLECULE
HI1
   92    95     1     0     0
SMALL
bcc


@<TRIPOS>ATOM
      1 C23        -5.6740    0.1620   -1.6300 ca        1 HI1     -0.089300
      2 C14        -5.4420    1.7320   -5.1460 c3        1 HI1     -0.106400
      3 C24        -4.5820   -0.4130   -0.9700 ca        1 HI1     -0.116000
      4 C1         -5.7480    1.7260   -3.6390 c3        1 HI1      0.102800
      5 C25        -4.5990   -0.5650    0.4160 ca        1 HI1     -0.135000
      6 C26        -5.7070   -0.1470    1.1530 ca        1 HI1     -0.126000
      7 C27        -6.7980    0.4260    0.5000 ca        1 HI1     -0.135000
      8 C28        -6.7840    0.5800   -0.8850 ca        1 HI1     -0.116000
      9 C33        -3.6780    4.2160   -9.4550 ca        1 HI1     -0.072300
     10 C34        -2.7700    5.1100   -8.8770 ca        1 HI1     -0.115500
     11 C35        -1.4010    4.9590   -9.0920 ca        1 HI1     -0.108000
     12 C36        -0.9300    3.9140   -9.8920 ca        1 HI1     -0.026900
     13 C37        -1.8340    3.0210  -10.4760 ca        1 HI1     -0.108000
     14 C38        -3.2010    3.1710  -10.2540 ca        1 HI1     -0.115500
     15 C32        -5.1530    4.4050   -9.2670 c3        1 HI1      0.186100
     16 C7         -7.7830    5.7860   -2.4230 c3        1 HI1      0.124700
     17 C4         -5.3340    3.1040   -7.2260 c3        1 HI1      0.141800
     18 O3         -8.0580    4.9220   -4.8650 o         1 HI1     -0.630000
     19 N1         -8.2730    7.0990   -5.7340 n         1 HI1     -0.543900
     20 C22        -5.6740    0.2840   -3.1130 c3        1 HI1     -0.024100
     21 O6         -7.0790    2.1630   -3.4100 oh        1 HI1     -0.589800
     22 O8         -7.9390    6.7230   -3.4960 os        1 HI1     -0.431900
     23 C10        -4.7720    2.6710   -2.9120 c         1 HI1      0.648100
     24 O11        -5.1890    3.7350   -2.4120 o         1 HI1     -0.621100
     25 N12        -3.4490    2.2930   -2.8320 n         1 HI1     -0.536900
     26 C51        -2.4380    3.1680   -2.3060 c3        1 HI1      0.110000
     27 C52        -1.3310    2.4540   -1.5670 ca        1 HI1     -0.114300
     28 C57        -0.0690    2.9840   -1.9170 ca        1 HI1     -0.087300
     29 C53        -1.4400    1.4390   -0.6300 ca        1 HI1     -0.103000
     30 C54        -0.2710    0.9530   -0.0290 ca        1 HI1     -0.135000
     31 C55         0.9740    1.4780   -0.3670 ca        1 HI1     -0.123000
     32 C59        -1.6770    4.0500   -3.3710 c3        1 HI1      0.117100
     33 O60        -1.8390    3.5990   -4.6980 oh        1 HI1     -0.584800
     34 C30        -8.0860    6.1640   -4.7450 c         1 HI1      0.748100
     35 C56         1.0840    2.5010   -1.3180 ca        1 HI1     -0.119000
     36 C58        -0.1930    4.0530   -2.9460 c3        1 HI1     -0.074100
     37 C41        -8.4730    6.6960   -7.1040 c3        1 HI1      0.053700
     38 C42        -9.2170    7.7650   -7.9510 c3        1 HI1     -0.042000
     39 C43       -10.6500    7.8730   -7.4420 c3        1 HI1     -0.098433
     40 C44        -8.5570    9.1320   -7.8790 c3        1 HI1     -0.098433
     41 C45        -7.1080    6.2900   -7.7400 c         1 HI1      0.624100
     42 N24        -5.5360    4.4430   -7.8300 n3        1 HI1     -0.478600
     43 O46        -6.3840    7.1050   -8.3310 o         1 HI1     -0.575100
     44 N47        -6.8390    4.9090   -7.6590 n         1 HI1     -0.416300
     45 BR          0.9090    3.7080  -10.1840 br        1 HI1     -0.097100
     46 C86        -9.2490    7.2890   -9.3980 c3        1 HI1     -0.098433
     47 H401       -4.3300    3.5850   -5.3580 hc        1 HI1      0.073200
     48 H402       -6.1250    3.7740   -5.2800 hc        1 HI1      0.073200
     49 H141       -6.2860    1.1960   -5.6570 hc        1 HI1      0.053700
     50 H142       -4.5020    1.1530   -5.3390 hc        1 HI1      0.053700
     51 H4C1       -4.3320    2.7420   -7.5930 h1        1 HI1      0.050200
     52 H4C2       -6.1100    2.3600   -7.5720 h1        1 HI1      0.050200
     53 H221       -6.5690   -0.2630   -3.5200 hc        1 HI1      0.060700
     54 H222       -4.7550   -0.2010   -3.5380 hc        1 HI1      0.060700
     55 H6         -7.1160    3.1210   -3.5700 ho        1 HI1      0.440000
     56 H24        -3.7050   -0.7460   -1.5440 ha        1 HI1      0.140500
     57 H28        -7.6370    1.0450   -1.4070 ha        1 HI1      0.140500
     58 H25        -3.7360   -1.0160    0.9270 ha        1 HI1      0.130000
     59 H26        -5.7190   -0.2680    2.2460 ha        1 HI1      0.130000
     60 H27        -7.6720    0.7590    1.0780 ha        1 HI1      0.130000
     61 H12        -3.1420    1.5120   -3.3610 hn        1 HI1      0.308500
     62 H51        -2.9470    3.8830   -1.5880 h1        1 HI1      0.105700
     63 H321       -5.4270    5.4030   -9.7240 h1        1 HI1      0.061200
     64 H322       -5.7110    3.6010   -9.8280 h1        1 HI1      0.061200
     65 H47        -7.3040    4.4600   -6.8800 hn        1 HI1      0.323500
     66 H59        -2.1110    5.0860   -3.3810 h1        1 HI1      0.092700
     67 H53        -2.4240    1.0220   -0.3600 ha        1 HI1      0.150000
     68 H54        -0.3420    0.1500    0.7190 ha        1 HI1      0.133000
     69 H55         1.8820    1.0880    0.1150 ha        1 HI1      0.133000
     70 H56         2.0690    2.9110   -1.5830 ha        1 HI1      0.137000
     71 H581        0.0830    5.0490   -2.5160 hc        1 HI1      0.069200
     72 H582        0.4720    3.8610   -3.8250 hc        1 HI1      0.069200
     73 H60        -1.3950    2.7450   -4.7730 ho        1 HI1      0.397000
     74 H34        -3.1420    5.9350   -8.2480 ha        1 HI1      0.147500
     75 H38        -3.9060    2.4640  -10.7160 ha        1 HI1      0.147500
     76 H35        -0.6980    5.6680   -8.6280 ha        1 HI1      0.145500
     77 H37        -1.4740    2.1970  -11.1110 ha        1 HI1      0.145500
     78 H41        -9.1460    5.7810   -7.0920 h1        1 HI1      0.084700
     79 H431      -11.1660    6.8860   -7.5090 hc        1 HI1      0.045144
     80 H432      -11.2130    8.6110   -8.0630 hc        1 HI1      0.045144
     81 H433      -10.6740    8.2190   -6.3810 hc        1 HI1      0.045144
     82 H441       -8.7380    9.6160   -6.8900 hc        1 HI1      0.045144
     83 H442       -7.4560    9.0480   -8.0520 hc        1 HI1      0.045144
     84 H443       -8.9890    9.7960   -8.6670 hc        1 HI1      0.045144
     85 H861       -9.9140    7.9550   -9.9980 hc        1 HI1      0.045144
     86 H862       -9.6430    6.2460   -9.4590 hc        1 HI1      0.045144
     87 H863       -8.2240    7.3180   -9.8420 hc        1 HI1      0.045144
     88 H7C1       -8.6780    5.1220   -2.3660 h1        1 HI1      0.064367
     89 H7C2       -7.7000    6.4460   -1.5250 h1        1 HI1      0.064367
     90 H7C3       -6.8570    5.1790   -2.5770 h1        1 HI1      0.064367
     91 H1         -8.1270    8.0600   -5.5290 hn        1 HI1      0.343500
     92 C40        -5.3020    3.1340   -5.6990 c3        1 HI1     -0.106400
@<TRIPOS>BOND
     1    1    3 ar  
     2    1    8 ar  
     3    1   20 1   
     4    2    4 1   
     5    2   49 1   
     6    2   50 1   
     7    2   92 1   
     8    3    5 ar  
     9    3   56 1   
    10    4   20 1   
    11    4   21 1   
    12    4   23 1   
    13    5    6 ar  
    14    5   58 1   
    15    6    7 ar  
    16    6   59 1   
    17    7    8 ar  
    18    7   60 1   
    19    8   57 1   
    20    9   10 ar  
    21    9   14 ar  
    22    9   15 1   
    23   10   11 ar  
    24   10   74 1   
    25   11   12 ar  
    26   11   76 1   
    27   12   13 ar  
    28   12   45 1   
    29   13   14 ar  
    30   13   77 1   
    31   14   75 1   
    32   15   42 1   
    33   15   63 1   
    34   15   64 1   
    35   16   22 1   
    36   16   88 1   
    37   16   89 1   
    38   16   90 1   
    39   17   42 1   
    40   17   51 1   
    41   17   52 1   
    42   17   92 1   
    43   18   34 2   
    44   19   34 1   
    45   19   37 1   
    46   19   91 1   
    47   20   53 1   
    48   20   54 1   
    49   21   55 1   
    50   22   34 1   
    51   23   24 2   
    52   23   25 1   
    53   25   26 1   
    54   25   61 1   
    55   26   27 1   
    56   26   32 1   
    57   26   62 1   
    58   27   28 ar  
    59   27   29 ar  
    60   28   35 ar  
    61   28   36 1   
    62   29   30 ar  
    63   29   67 1   
    64   30   31 ar  
    65   30   68 1   
    66   31   35 ar  
    67   31   69 1   
    68   32   33 1   
    69   32   36 1   
    70   32   66 1   
    71   33   73 1   
    72   35   70 1   
    73   36   71 1   
    74   36   72 1   
    75   37   38 1   
    76   37   41 1   
    77   37   78 1   
    78   38   39 1   
    79   38   40 1   
    80   38   46 1   
    81   39   79 1   
    82   39   80 1   
    83   39   81 1   
    84   40   82 1   
    85   40   83 1   
    86   40   84 1   
    87   41   43 2   
    88   41   44 1   
    89   42   44 1   
    90   44   65 1   
    91   46   85 1   
    92   46   86 1   
    93   46   87 1   
    94   47   92 1   
    95   48   92 1   
@<TRIPOS>SUBSTRUCTURE
     1 HI1         1 TEMP              0 ****  ****    0 ROOT
