@<TRIPOS>MOLECULE
HI3
   56    60     1     0     0
SMALL
bcc


@<TRIPOS>ATOM
      1 C1         -1.9240   -4.4960   -2.1700 ca        1 HI3     -0.134000
      2 F1          0.1690   -3.8810   -3.1430 f         1 HI3     -0.134900
      3 N1         -1.0260   -0.4670    0.8550 na        1 HI3     -0.038400
      4 O1          1.9650    1.7870   -1.5490 o         1 HI3     -0.650500
      5 S1          4.1160    0.5030    1.2740 s6        1 HI3      1.493600
      6 C2         -2.8380   -4.3730   -1.1320 ca        1 HI3     -0.144000
      7 F2         -3.4760   -3.4090    0.9500 f         1 HI3     -0.140900
      8 N2          2.2290    4.0110   -1.2020 n         1 HI3     -0.429100
      9 O2          1.7820   -1.3600    0.5980 o         1 HI3     -0.599100
     10 C3         -2.7100    2.6320    0.0350 ca        1 HI3     -0.061000
     11 N3          2.4740    0.7350    1.1830 n         1 HI3     -0.652300
     12 O3          4.6550    1.7940    1.4680 o         1 HI3     -0.647300
     13 C4         -0.4510   -2.9000   -1.0550 ca        1 HI3     -0.114000
     14 O4          4.4440   -0.4500    2.2470 o         1 HI3     -0.647300
     15 C5         -3.5270   -0.0220    0.7100 ca        1 HI3     -0.180000
     16 C6         -1.7490    1.6520    0.3010 ca        1 HI3     -0.113800
     17 C7         -0.3000    1.6560    0.3220 cc        1 HI3     -0.020200
     18 C8         -4.0570    2.3160    0.1030 ca        1 HI3     -0.130300
     19 C9         -1.3690   -2.7680   -0.0140 ca        1 HI3     -0.124300
     20 C10        -2.1650    0.3130    0.6310 ca        1 HI3     -0.005200
     21 C11        -0.7260   -3.7590   -2.1330 ca        1 HI3      0.111900
     22 C12        -2.5680   -3.5100   -0.0530 ca        1 HI3      0.117900
     23 C13        -4.4540    0.9860    0.4450 ca        1 HI3      0.150900
     24 C14         0.1050    0.3510    0.6550 cd        1 HI3     -0.101300
     25 C15         0.9140    5.2110    0.3990 cd        1 HI3     -0.255000
     26 C16         0.1920    4.0220    0.6950 cd        1 HI3     -0.016000
     27 C17         1.9100    5.1720   -0.5470 cc        1 HI3      0.029600
     28 C18         0.4860    2.8390    0.0650 cc        1 HI3     -0.167200
     29 C19         1.5670    2.7960   -0.9330 c         1 HI3      0.685700
     30 C20         1.4880   -0.1660    0.8000 c         1 HI3      0.744300
     31 C21         4.4430   -1.4860   -0.7020 cx        1 HI3     -0.042900
     32 C22         5.7790   -0.8710   -0.4940 cx        1 HI3     -0.042900
     33 C23         4.5320   -0.0420   -0.2540 cx        1 HI3     -0.433900
     34 C24        -5.0990    3.3300   -0.1740 c3        1 HI3     -0.048800
     35 C25        -1.0500   -1.8750    1.1540 c3        1 HI3      0.081600
     36 H1         -2.1280   -5.1650   -3.0190 ha        1 HI3      0.155000
     37 H2         -3.7780   -4.9450   -1.1440 ha        1 HI3      0.156000
     38 H3         -2.3880    3.6510   -0.2300 ha        1 HI3      0.141000
     39 HN3         2.1370    1.6600    1.3590 hn        1 HI3      0.342500
     40 H4          0.4980   -2.3350   -1.0260 ha        1 HI3      0.183000
     41 H5         -3.8560   -1.0410    0.9630 ha        1 HI3      0.164000
     42 H15         0.6750    6.1450    0.9220 ha        1 HI3      0.158000
     43 H16        -0.6170    4.0660    1.4440 ha        1 HI3      0.152000
     44 H17         2.4980    6.0670   -0.8210 h4        1 HI3      0.159000
     45 H21A        4.0550   -2.2250    0.0280 hc        1 HI3      0.090700
     46 H22         6.3790   -1.1670    0.3890 hc        1 HI3      0.090700
     47 H22A        6.4090   -0.6160   -1.3640 hc        1 HI3      0.090700
     48 H23         4.2910    0.7030   -1.0510 h1        1 HI3      0.150700
     49 H24        -5.7340    3.0020   -1.0360 hc        1 HI3      0.049033
     50 H24A       -5.7650    3.4500    0.7170 hc        1 HI3      0.049033
     51 H24B       -4.6470    4.3210   -0.4200 hc        1 HI3      0.049033
     52 H25        -0.0390   -2.1730    1.5620 h1        1 HI3      0.091700
     53 H25A       -1.8250   -2.0320    1.9620 h1        1 HI3      0.091700
     54 H20         2.9580    4.0050   -1.8830 hn        1 HI3      0.339500
     55 F3         -5.7770    0.6950    0.5110 f         1 HI3     -0.137900
     56 H21         4.0830   -1.6870   -1.7270 hc        1 HI3      0.090700
@<TRIPOS>BOND
     1    1    6 ar  
     2    1   21 ar  
     3    1   36 1   
     4    2   21 1   
     5    3   20 1   
     6    3   24 1   
     7    3   35 1   
     8    4   29 2   
     9    5   11 1   
    10    5   12 2   
    11    5   14 2   
    12    5   33 1   
    13    6   22 ar  
    14    6   37 1   
    15    7   22 1   
    16    8   27 1   
    17    8   29 1   
    18    8   54 1   
    19    9   30 2   
    20   10   16 ar  
    21   10   18 ar  
    22   10   38 1   
    23   11   30 1   
    24   11   39 1   
    25   13   19 ar  
    26   13   21 ar  
    27   13   40 1   
    28   15   20 ar  
    29   15   23 ar  
    30   15   41 1   
    31   16   17 1   
    32   16   20 ar  
    33   17   24 2   
    34   17   28 1   
    35   18   23 ar  
    36   18   34 1   
    37   19   22 ar  
    38   19   35 1   
    39   23   55 1   
    40   24   30 1   
    41   25   26 1   
    42   25   27 2   
    43   25   42 1   
    44   26   28 2   
    45   26   43 1   
    46   27   44 1   
    47   28   29 1   
    48   31   32 1   
    49   31   33 1   
    50   31   45 1   
    51   31   56 1   
    52   32   33 1   
    53   32   46 1   
    54   32   47 1   
    55   33   48 1   
    56   34   49 1   
    57   34   50 1   
    58   34   51 1   
    59   35   52 1   
    60   35   53 1   
@<TRIPOS>SUBSTRUCTURE
     1 HI3         1 TEMP              0 ****  ****    0 ROOT
