@<TRIPOS>MOLECULE
HI3
   57    60     1     0     0
SMALL
bcc


@<TRIPOS>ATOM
      1 C1          0.6350   -0.8000   -0.7940 c3        1 HI3     -0.226000
      2 F1         -1.2680   -2.1060   -0.0450 f         1 HI3     -0.083000
      3 N1          2.1160   -1.5590    4.0840 na        1 HI3     -0.054000
      4 O1         -0.4230   -5.2130    6.0260 o         1 HI3     -0.425000
      5 S1         -1.0890   -1.2990    7.9010 s6        1 HI3      2.805000
      6 C2          1.8040   -0.0390   -0.4130 c1        1 HI3     -0.042000
      7 F2          3.1980    0.8480    1.3120 f         1 HI3     -0.086000
      8 N2          1.1150   -6.6450    5.1920 ns        1 HI3     -0.210000
      9 O2         -0.8030   -1.3630    4.7220 o         1 HI3     -0.282000
     10 C3          4.6800   -4.0920    4.8700 c3        1 HI3     -0.060000
     11 N3         -0.4860   -2.5690    6.6550 ny        1 HI3     -0.533000
     12 O3         -0.5630   -1.8330    9.0640 o         1 HI3     -0.850500
     13 C4          0.1950   -1.2640    1.6150 c2        1 HI3     -0.226000
     14 O4         -0.6220   -0.0960    7.4170 o         1 HI3     -0.850500
     15 C5          4.4900   -1.6430    3.1990 c2        1 HI3     -0.224000
     16 C6          3.4580   -3.2800    4.7900 c2        1 HI3     -0.129000
     17 C7          2.2060   -3.4420    5.4230 c2        1 HI3      0.000000
     18 C8          5.8500   -3.5330    4.1220 c2        1 HI3     -0.141000
     19 C9          1.3560   -0.5060    1.9680 c2        1 HI3     -0.042000
     20 C10         3.3750   -2.1080    3.9710 c2        1 HI3      0.092000
     21 C11        -0.1690   -1.4110    0.3040 c2        1 HI3      0.107000
     22 C12         2.1150    0.1020    0.9830 c2        1 HI3      0.007000
     23 C13         5.6630   -2.3400    3.2800 c2        1 HI3      0.194000
     24 C14         1.3730   -2.3520    4.9940 c2        1 HI3     -0.215000
     25 C15         3.4730   -7.4410    4.6570 c1        1 HI3     -0.169000
     26 C16         2.4700   -4.7500    7.4830 c2        1 HI3     -0.111000
     27 C17         2.3710   -7.0480    4.9200 c1        1 HI3     -0.101000
     28 C18         1.8620   -4.5380    6.3080 c2        1 HI3     -0.151000
     29 C19         0.7890   -5.4700    5.8340 c2        1 HI3      0.367000
     30 C20         0.0180   -2.0380    5.3540 c2        1 HI3      0.357000
     31 C21        -3.5190   -1.4580    6.4730 cx        1 HI3     -0.090500
     32 C22        -3.6820   -0.4000    7.4900 cx        1 HI3     -0.090500
     33 C23        -2.6870   -1.5380    7.7540 cx        1 HI3     -1.062000
     34 C24         7.0520   -4.1240    4.2260 c2        1 HI3     -0.138000
     35 C25         1.6820   -0.3460    3.4290 c3        1 HI3     -0.019000
     36 H1          0.9790   -1.6070   -1.5140 hc        1 HI3      0.199500
     37 H2         -0.0210   -0.1160   -1.4200 hc        1 HI3      0.199500
     38 H3          4.4590   -5.1270    4.4720 hc        1 HI3      0.112000
     39 HN3         0.2500   -3.1330    7.0960 hn        1 HI3      0.275000
     40 H4         -0.4060   -1.7070    2.4250 ha        1 HI3      0.162000
     41 H5          4.3920   -0.7510    2.5580 ha        1 HI3      0.184000
     42 H15         3.2510   -4.0750    7.8670 ha        1 HI3      0.149500
     43 H16         4.4410   -7.8060    4.4230 ha        1 HI3      0.252000
     44 H17         2.2270   -5.6080    8.1280 ha        1 HI3      0.149500
     45 H22        -4.5930   -0.3700    8.1200 hc        1 HI3      0.154500
     46 H22A       -3.2620    0.6100    7.3050 hc        1 HI3      0.154500
     47 H23        -3.0790   -2.3010    8.4800 h1        1 HI3      0.222000
     48 H24         4.9680   -4.2170    5.9530 hc        1 HI3      0.112000
     49 H24A        7.9380   -3.7550    3.6890 ha        1 HI3      0.139500
     50 H24B        7.2120   -5.0090    4.8570 ha        1 HI3      0.139500
     51 H25         2.5120    0.4160    3.5440 h1        1 HI3      0.146500
     52 H25A        0.7630    0.0490    3.9560 h1        1 HI3      0.146500
     53 H20         0.3690   -7.2470    4.8940 hn        1 HI3      0.275000
     54 F3          6.7310   -1.9280    2.5620 f         1 HI3     -0.075000
     55 H21        -2.9850   -1.2310    5.5260 hc        1 HI3      0.154500
     56 H32        -1.2370   -3.2360    6.4260 hn        1 HI3      0.275000
     57 H21A       -4.3120   -2.2180    6.3360 hc        1 HI3      0.154500
@<TRIPOS>BOND
     1    1    6 1   
     2    1   21 1   
     3    1   36 1   
     4    1   37 1   
     5    2   21 1   
     6    3   20 1   
     7    3   24 1   
     8    3   35 1   
     9    4   29 1   
    10    5   11 1   
    11    5   12 1   
    12    5   14 1   
    13    5   33 1   
    14    6   22 1   
    15    7   22 1   
    16    8   27 1   
    17    8   29 1   
    18    8   53 1   
    19    9   30 1   
    20   10   16 1   
    21   10   18 1   
    22   10   38 1   
    23   10   48 1   
    24   11   30 1   
    25   11   39 1   
    26   11   56 1   
    27   13   19 1   
    28   13   21 1   
    29   13   40 1   
    30   15   20 1   
    31   15   23 1   
    32   15   41 1   
    33   16   17 1   
    34   16   20 1   
    35   17   24 1   
    36   17   28 1   
    37   18   23 1   
    38   18   34 1   
    39   19   22 1   
    40   19   35 1   
    41   23   54 1   
    42   24   30 1   
    43   25   27 1   
    44   25   43 1   
    45   26   28 1   
    46   26   42 1   
    47   26   44 1   
    48   28   29 1   
    49   31   32 1   
    50   31   33 1   
    51   31   55 1   
    52   31   57 1   
    53   32   33 1   
    54   32   45 1   
    55   32   46 1   
    56   33   47 1   
    57   34   49 1   
    58   34   50 1   
    59   35   51 1   
    60   35   52 1   
@<TRIPOS>SUBSTRUCTURE
     1 HI3         1 TEMP              0 ****  ****    0 ROOT
