@<TRIPOS>MOLECULE
HI3
   57    59     1     0     0
SMALL
bcc


@<TRIPOS>ATOM
      1 C1          0.8190    0.1260   -0.7870 c3        1 HI3     -0.227000
      2 F1         -1.1020   -1.2150   -0.1580 f         1 HI3     -0.081000
      3 N1          2.2870   -1.2150    3.9840 na        1 HI3     -0.092000
      4 O1         -0.7910   -5.1650    5.4000 o         1 HI3     -0.320000
      5 S1         -1.0670   -2.1870    8.2450 s4        1 HI3      2.115800
      6 C2          2.0220    0.7990   -0.3470 c1        1 HI3     -0.039000
      7 F2          3.4990    1.3940    1.4340 f         1 HI3     -0.084000
      8 N2         -0.0460   -5.5110    9.2450 n1        1 HI3     -0.074000
      9 O2         -0.9820   -1.8800    4.4660 o         1 HI3     -0.265000
     10 C3          4.4360   -4.2080    4.1630 c3        1 HI3     -0.052000
     11 N3         -0.0240   -0.9920    6.3520 n         1 HI3     -0.482000
     12 O3          0.1630   -2.5360    8.6790 o         1 HI3     -0.422900
     13 C4          0.4040   -0.5990    1.5620 c2        1 HI3     -0.233000
     14 O4         -1.6580   -1.0270    8.6210 o         1 HI3     -0.422900
     15 C5          4.6480   -1.4590    3.0600 c2        1 HI3     -0.203000
     16 C6          3.3490   -3.2250    4.2610 c2        1 HI3     -0.133000
     17 C7          2.0460   -3.3370    4.8390 c2        1 HI3     -0.026000
     18 C8          5.7110   -3.6610    3.5960 c2        1 HI3     -0.133000
     19 C9          1.5940    0.0790    1.9740 c2        1 HI3     -0.053000
     20 C10         3.4610   -1.9190    3.7230 c2        1 HI3      0.048000
     21 C11         0.0160   -0.5870    0.2490 c2        1 HI3      0.111000
     22 C12         2.3690    0.7530    1.0470 c2        1 HI3      0.013000
     23 C13         5.7140   -2.3120    3.0050 c2        1 HI3      0.168000
     24 C14         1.4060   -2.0890    4.6460 c2        1 HI3     -0.191000
     25 C15         1.5760   -6.2270    7.3300 c3        1 HI3     -0.064000
     26 C16         2.0760   -5.0250    6.6050 c2        1 HI3     -0.088000
     27 C17         0.6860   -5.8400    8.4040 c1        1 HI3     -0.111000
     28 C18         1.5010   -4.5010    5.5090 c2        1 HI3     -0.151000
     29 C19         0.3120   -5.1020    4.8520 c2        1 HI3      0.239000
     30 C20         0.0650   -1.6620    5.0840 c2        1 HI3      0.348000
     31 C21        -2.9620   -2.9840    6.3510 cx        1 HI3     -0.047500
     32 C22        -3.4490   -3.4720    7.6480 cx        1 HI3     -0.047500
     33 C23        -1.9300   -3.2330    7.4790 cx        1 HI3     -1.179000
     34 C24         6.8270   -4.4060    3.6240 c2        1 HI3     -0.149000
     35 C25         1.9470    0.0730    3.4380 c3        1 HI3     -0.002000
     36 H1          1.1230   -0.6010   -1.6050 hc        1 HI3      0.200500
     37 H2          0.1740    0.8980   -1.3130 hc        1 HI3      0.200500
     38 H3          4.0990   -5.0650    3.5120 hc        1 HI3      0.105000
     39 HN3         0.8820   -0.7290    6.7020 hn        1 HI3      0.223500
     40 H4         -0.1890   -1.1360    2.3210 ha        1 HI3      0.161000
     41 H5          4.6810   -0.4570    2.6070 ha        1 HI3      0.175000
     42 H15         2.9890   -4.5670    7.0270 ha        1 HI3      0.159000
     43 H16         2.4470   -6.8030    7.7570 hc        1 HI3      0.140000
     44 H17         1.0190   -6.9180    6.6330 hc        1 HI3      0.140000
     45 H22        -3.7680   -4.5280    7.7640 hc        1 HI3      0.160750
     46 H22A       -3.9910   -2.7850    8.3290 hc        1 HI3      0.160750
     47 H23        -1.3930   -4.2150    7.2690 h1        1 HI3      0.275000
     48 H24         4.6450   -4.6360    5.1840 hc        1 HI3      0.105000
     49 H24A        6.8460   -5.4110    4.0670 ha        1 HI3      0.137500
     50 H24B        7.7810   -4.0540    3.2050 ha        1 HI3      0.137500
     51 H25         2.8350    0.7560    3.6080 h1        1 HI3      0.124000
     52 H25A        1.0660    0.4810    4.0140 h1        1 HI3      0.124000
     53 H20         0.4820   -5.4800    3.8190 h4        1 HI3      0.138000
     54 F3          6.8510   -1.9190    2.3880 f         1 HI3     -0.083000
     55 H21        -3.1290   -1.9330    6.0430 hc        1 HI3      0.160750
     56 H32        -0.6360   -0.1930    6.3130 hn        1 HI3      0.223500
     57 H21A       -2.8880   -3.6700    5.4790 hc        1 HI3      0.160750
@<TRIPOS>BOND
     1    1    6 1   
     2    1   21 1   
     3    1   36 1   
     4    1   37 1   
     5    2   21 1   
     6    3   20 1   
     7    3   24 1   
     8    3   35 1   
     9    4   29 1   
    10    5   12 1   
    11    5   14 1   
    12    5   33 1   
    13    6   22 1   
    14    7   22 1   
    15    8   27 1   
    16    9   30 1   
    17   10   16 1   
    18   10   18 1   
    19   10   38 1   
    20   10   48 1   
    21   11   30 1   
    22   11   39 1   
    23   11   56 1   
    24   13   19 1   
    25   13   21 1   
    26   13   40 1   
    27   15   20 1   
    28   15   23 1   
    29   15   41 1   
    30   16   17 1   
    31   16   20 1   
    32   17   24 1   
    33   17   28 1   
    34   18   23 1   
    35   18   34 1   
    36   19   22 1   
    37   19   35 1   
    38   23   54 1   
    39   24   30 1   
    40   25   26 1   
    41   25   27 1   
    42   25   43 1   
    43   25   44 1   
    44   26   28 1   
    45   26   42 1   
    46   28   29 1   
    47   29   53 1   
    48   31   32 1   
    49   31   33 1   
    50   31   55 1   
    51   31   57 1   
    52   32   33 1   
    53   32   45 1   
    54   32   46 1   
    55   33   47 1   
    56   34   49 1   
    57   34   50 1   
    58   35   51 1   
    59   35   52 1   
@<TRIPOS>SUBSTRUCTURE
     1 HI3         1 TEMP              0 ****  ****    0 ROOT
