@<TRIPOS>MOLECULE
HI4
   49    51     1     0     0
SMALL
bcc


@<TRIPOS>ATOM
      1 C1         -0.0150    0.6600   -0.1090 c3        1 HI4      0.019600
      2 N1         -1.0840   -1.1330   -1.5420 na        1 HI4     -0.071400
      3 O1          0.9750   -0.6760   -3.7410 o         1 HI4     -0.805300
      4 C2          1.2110   -0.0680    0.0550 c1        1 HI4      0.046900
      5 N2         -0.9280   -6.4480   -4.4220 n         1 HI4     -0.451100
      6 O2         -2.6830   -5.0990   -4.0150 o         1 HI4     -0.669500
      7 C3          2.2500   -0.6430    0.1950 c1        1 HI4     -0.239300
      8 N3          3.4720   -1.3430    0.3210 no        1 HI4      0.438300
      9 O3          2.0500   -2.1850   -2.4860 o         1 HI4     -0.805300
     10 C4         -0.6130   -1.2900    2.9290 c2        1 HI4     -0.170100
     11 O4          4.4880   -0.8170   -0.0530 o         1 HI4     -0.194500
     12 C5         -0.7610   -0.3530    2.0470 c1        1 HI4     -0.075800
     13 O5          3.4760   -2.4210    0.8570 o         1 HI4     -0.194500
     14 C6         -0.9020    0.5600    1.1100 c2        1 HI4      0.081200
     15 C7         -0.5410   -4.4730   -3.0130 cc        1 HI4     -0.083200
     16 C8         -3.3560   -3.9370   -1.3820 ca        1 HI4     -0.072000
     17 C9         -4.4240   -3.4530   -0.6280 ca        1 HI4     -0.126300
     18 C10        -2.2720   -3.1060   -1.6550 ca        1 HI4     -0.046800
     19 C11        -2.2800   -1.7520   -1.1470 ca        1 HI4     -0.059200
     20 C12        -0.3300   -2.0510   -2.3000 cd        1 HI4     -0.033300
     21 C13        -1.0220   -3.2720   -2.3770 cc        1 HI4     -0.126200
     22 C14        -4.4170   -2.1310   -0.1440 ca        1 HI4     -0.134000
     23 C15        -3.3590   -1.2700   -0.3940 ca        1 HI4     -0.150000
     24 C16         1.0080   -1.6170   -2.9040 c         1 HI4      0.923800
     25 C17        -0.7750    0.2510   -1.4020 c3        1 HI4      0.047300
     26 C18        -1.4660   -5.2950   -3.8130 c         1 HI4      0.686700
     27 C19         0.4010   -6.7850   -4.3030 cc        1 HI4     -0.040400
     28 C20         1.2590   -6.0240   -3.5550 cd        1 HI4     -0.214000
     29 C21         0.7730   -4.8500   -2.9050 cd        1 HI4     -0.059000
     30 C22        -5.5960   -4.3270   -0.3430 c3        1 HI4     -0.024100
     31 C23        -5.6360   -4.7750    1.0990 c3        1 HI4     -0.087100
     32 H2          0.2450    1.7560   -0.2470 hc        1 HI4      0.090700
     33 HN2        -1.5240   -6.9920   -5.0020 hn        1 HI4      0.313500
     34 H4         -1.1180   -2.2640    2.8330 ha        1 HI4      0.135000
     35 H5          0.0370   -1.1740    3.8100 ha        1 HI4      0.135000
     36 F1         -1.8750    1.5120    1.1690 f         1 HI4     -0.177500
     37 H8         -3.3720   -4.9600   -1.7900 ha        1 HI4      0.144000
     38 H14        -5.2750   -1.7750    0.4440 ha        1 HI4      0.111000
     39 H15        -3.3610   -0.2420   -0.0070 ha        1 HI4      0.124000
     40 H17        -0.1310    0.5580   -2.2850 h1        1 HI4      0.094700
     41 H17A       -1.7340    0.8460   -1.4050 h1        1 HI4      0.094700
     42 H19         0.7230   -7.6940   -4.8390 h4        1 HI4      0.129000
     43 H20         2.3170   -6.2950   -3.4590 ha        1 HI4      0.142000
     44 H21         1.4870   -4.2200   -2.3360 ha        1 HI4      0.205000
     45 H22        -6.5400   -3.7680   -0.5820 hc        1 HI4      0.036700
     46 H22A       -5.5690   -5.2300   -1.0110 hc        1 HI4      0.036700
     47 H23        -5.6700   -3.8910    1.7820 hc        1 HI4      0.026700
     48 H23A       -4.7270   -5.3740    1.3490 hc        1 HI4      0.026700
     49 H23B       -6.5390   -5.4040    1.2850 hc        1 HI4      0.026700
@<TRIPOS>BOND
     1    1    4 1   
     2    1   14 1   
     3    1   25 1   
     4    1   32 1   
     5    2   19 1   
     6    2   20 1   
     7    2   25 1   
     8    3   24 1   
     9    4    7 3   
    10    5   26 1   
    11    5   27 1   
    12    5   33 1   
    13    6   26 2   
    14    7    8 1   
    15    8   11 1   
    16    8   13 1   
    17    9   24 1   
    18   10   12 2   
    19   10   34 1   
    20   10   35 1   
    21   12   14 2   
    22   14   36 1   
    23   15   21 1   
    24   15   26 1   
    25   15   29 2   
    26   16   17 ar  
    27   16   18 ar  
    28   16   37 1   
    29   17   22 ar  
    30   17   30 1   
    31   18   19 ar  
    32   18   21 1   
    33   19   23 ar  
    34   20   21 2   
    35   20   24 1   
    36   22   23 ar  
    37   22   38 1   
    38   23   39 1   
    39   25   40 1   
    40   25   41 1   
    41   27   28 2   
    42   27   42 1   
    43   28   29 1   
    44   28   43 1   
    45   29   44 1   
    46   30   31 1   
    47   30   45 1   
    48   30   46 1   
    49   31   47 1   
    50   31   48 1   
    51   31   49 1   
@<TRIPOS>SUBSTRUCTURE
     1 HI4         1 TEMP              0 ****  ****    0 ROOT
