@<TRIPOS>MOLECULE
HI4
   49    41     1     0     0
SMALL
bcc


@<TRIPOS>ATOM
      1 C1          1.8180    2.2860    1.4770 c1        1 HI4     -0.137000
      2 N1          0.2550    1.2570   -0.0530 n2        1 HI4     -0.161000
      3 O1          2.4220    0.8660   -2.6520 o         1 HI4     -0.535000
      4 C2          3.1990    2.3920    1.2450 c1        1 HI4     -0.015000
      5 N2          0.2960   -3.2110   -4.1910 n         1 HI4     -0.294000
      6 O2         -0.0970   -0.9160   -4.0540 o         1 HI4     -0.393000
      7 C3          4.0900    2.4150    2.3240 c1        1 HI4     -0.153000
      8 N3          5.5430    2.4470    2.0780 no        1 HI4      0.568000
      9 O3          3.1960   -0.4840   -1.1140 o         1 HI4     -0.535000
     10 C4          3.6010    2.3310    3.6380 c1        1 HI4     -0.056000
     11 O4          5.9710    2.4920    0.9250 o         1 HI4     -0.361500
     12 C5          2.2220    2.2250    3.8670 c1        1 HI4     -0.196000
     13 O5          6.4240    2.4420    3.1420 o         1 HI4     -0.361500
     14 C6          1.3320    2.2030    2.7850 c1        1 HI4      0.132000
     15 C7          0.2940   -1.9720   -1.9360 c1        1 HI4     -0.057000
     16 C8         -2.4820   -1.0290   -0.4140 c1        1 HI4     -0.073000
     17 C9         -3.5350   -0.4650    0.3200 c1        1 HI4     -0.119000
     18 C10        -1.2390   -0.3690   -0.4780 c1        1 HI4     -0.034000
     19 C11        -1.0640    0.8210    0.1750 c1        1 HI4     -0.013000
     20 C12         0.8830    0.3240   -0.8500 c1        1 HI4      0.010000
     21 C13        -0.0280   -0.6900   -1.1230 c1        1 HI4     -0.143000
     22 C14        -3.3530    0.7350    0.9770 c1        1 HI4     -0.133000
     23 C15        -2.1250    1.3860    0.9130 c2        1 HI4     -0.150000
     24 C16         2.2450    0.2260   -1.6000 c1        1 HI4      0.367000
     25 C17         0.8350    2.5120    0.3330 c2        1 HI4      0.018000
     26 C18         0.1390   -1.9760   -3.4500 c2        1 HI4      0.326000
     27 C19         0.8050   -4.3890   -3.5290 c2        1 HI4     -0.043000
     28 C20         1.0490   -4.3710   -2.0390 c1        1 HI4     -0.214000
     29 C21         0.7360   -3.1600   -1.2590 c2        1 HI4     -0.069000
     30 C22        -4.8940   -1.1550    0.6090 c3        1 HI4     -0.108000
     31 C23        -5.9540   -0.6340   -0.3750 c3        1 HI4     -0.205000
     32 H2          3.5490    2.4530    0.3010 ha        1 HI4      0.243000
     33 HN2         0.1480   -3.2240   -5.0990 hn        1 HI4      0.227000
     34 H4          4.2100    2.3470    4.3770 ha        1 HI4      0.163000
     35 H5          1.8770    2.1660    4.7910 ha        1 HI4      0.149000
     36 F1          0.1290    2.3470    3.4060 f         1 HI4     -0.102000
     37 H8         -2.5720   -1.9410   -0.7770 ha        1 HI4      0.146000
     38 H14        -4.0970    1.1330    1.4950 DU        1 HI4      0.126500
     39 H15        -2.0290    2.3130    1.2970 ha        1 HI4      0.123000
     40 H17         0.1160    3.1340    0.6300 ha        1 HI4      0.130000
     41 H17A        1.3150    2.9070   -0.4430 ha        1 HI4      0.130000
     42 H19         1.0180   -5.2190   -4.0670 h4        1 HI4      0.129000
     43 H20         1.3850   -5.1480   -1.6010 DU        1 HI4      0.126500
     44 H21         0.8720   -3.1510   -0.2800 ha        1 HI4      0.201000
     45 H22        -5.1760   -0.9530    1.5330 hc        1 HI4      0.072000
     46 H22A       -4.7950   -2.1370    0.5000 hc        1 HI4      0.072000
     47 H23        -5.8610   -1.0990   -1.2300 hc        1 HI4      0.068333
     48 H23A       -6.8440   -0.7960   -0.0110 hc        1 HI4      0.068333
     49 H23B       -5.8280    0.3280   -0.5130 hc        1 HI4      0.068333
@<TRIPOS>BOND
     1    1    4 1   
     2    1   25 1   
     3    2   19 1   
     4    2   20 1   
     5    3   24 1   
     6    4   32 1   
     7    5   26 1   
     8    5   27 1   
     9    5   33 1   
    10    6   26 1   
    11    7    8 1   
    12    7   10 1   
    13    8   11 1   
    14    8   13 1   
    15    9   24 1   
    16   10   34 1   
    17   12   14 1   
    18   12   35 1   
    19   14   36 1   
    20   15   26 1   
    21   15   29 1   
    22   16   18 1   
    23   16   37 1   
    24   17   22 1   
    25   17   30 1   
    26   19   23 1   
    27   20   21 1   
    28   22   23 1   
    29   23   39 1   
    30   25   40 1   
    31   25   41 1   
    32   27   28 1   
    33   27   42 1   
    34   28   29 1   
    35   29   44 1   
    36   30   31 1   
    37   30   45 1   
    38   30   46 1   
    39   31   47 1   
    40   31   48 1   
    41   31   49 1   
@<TRIPOS>SUBSTRUCTURE
     1 HI4         1 TEMP              0 ****  ****    0 ROOT
