@<TRIPOS>MOLECULE
HI4
   49    51     1     0     0
SMALL
bcc


@<TRIPOS>ATOM
      1 C1          0.0720    0.7190   -0.8480 c2        1 HI4     -0.131300
      2 N1         -0.6570   -1.2800   -2.1440 na        1 HI4     -0.071400
      3 O1          1.2260   -1.0170   -4.4500 o         1 HI4     -0.803300
      4 C2          0.2940    0.0980    0.2730 c1        1 HI4      0.043200
      5 N2         -1.2250   -6.7660   -4.6040 ns        1 HI4     -0.451100
      6 O2         -2.7890   -5.2100   -4.1500 o         1 HI4     -0.669500
      7 C3          0.4500   -0.5230    1.4170 c2        1 HI4     -0.184400
      8 N3          1.8080   -0.8920    1.9180 no        1 HI4      0.295100
      9 O3          2.2200   -2.7800   -3.5010 o         1 HI4     -0.803300
     10 C4         -0.7120   -0.9330    2.2770 c3        1 HI4      0.060900
     11 O4          2.7590   -0.2420    1.5810 o         1 HI4     -0.215500
     12 C5         -0.9810    0.0080    3.3210 c1        1 HI4     -0.127100
     13 O5          1.9100   -1.8180    2.6800 o         1 HI4     -0.215500
     14 C6         -1.2190    0.7850    4.1970 c1        1 HI4     -0.035900
     15 C7         -0.5130   -4.7570   -3.3800 cc        1 HI4     -0.087200
     16 C8         -3.0560   -3.9020   -1.4970 ca        1 HI4     -0.068000
     17 C9         -3.9960   -3.2920   -0.6670 ca        1 HI4     -0.124300
     18 C10        -1.9660   -3.1680   -1.9610 ca        1 HI4     -0.046800
     19 C11        -1.8370   -1.7810   -1.5750 ca        1 HI4     -0.066200
     20 C12        -0.0480   -2.3020   -2.9000 cd        1 HI4     -0.027300
     21 C13        -0.8200   -3.4740   -2.7990 cc        1 HI4     -0.126200
     22 C14        -3.8560   -1.9400   -0.3010 ca        1 HI4     -0.135000
     23 C15        -2.7890   -1.1730   -0.7460 ca        1 HI4     -0.162000
     24 C16         1.2360   -2.0220   -3.6870 c         1 HI4      0.927800
     25 C17        -0.2850    0.0990   -2.1660 c3        1 HI4      0.062500
     26 C18        -1.5850   -5.5240   -4.0380 c         1 HI4      0.686700
     27 C19         0.0670   -7.2370   -4.5660 cc        1 HI4     -0.037400
     28 C20         1.0610   -6.5300   -3.9460 cd        1 HI4     -0.217000
     29 C21         0.7580   -5.2690   -3.3480 cd        1 HI4     -0.049000
     30 C22        -5.1710   -4.0630   -0.1750 c3        1 HI4     -0.025100
     31 C23        -5.0610   -4.3940    1.2950 c3        1 HI4     -0.087100
     32 H2          0.1320    1.8240   -0.8820 ha        1 HI4      0.155000
     33 HN2        -1.9240   -7.2780   -5.0920 hn        1 HI4      0.313500
     34 H4         -1.6210   -1.0340    1.6100 hc        1 HI4      0.105200
     35 H5         -0.5110   -1.9500    2.7280 hc        1 HI4      0.105200
     36 F1         -1.4810    1.6250    5.1490 f         1 HI4     -0.005100
     37 H8         -3.1790   -4.9490   -1.8150 ha        1 HI4      0.143000
     38 H14        -4.6180   -1.4830    0.3480 ha        1 HI4      0.111000
     39 H15        -2.6970   -0.1160   -0.4650 ha        1 HI4      0.116000
     40 H17         0.6000    0.2230   -2.8730 h1        1 HI4      0.107700
     41 H17A       -1.1490    0.7030   -2.5800 h1        1 HI4      0.107700
     42 H19         0.2450   -8.2090   -5.0580 h4        1 HI4      0.129000
     43 H20         2.0890   -6.9080   -3.9160 ha        1 HI4      0.141000
     44 H21         1.5800   -4.6840   -2.8880 ha        1 HI4      0.203000
     45 H22        -6.1050   -3.4620   -0.3500 hc        1 HI4      0.037700
     46 H22A       -5.2770   -5.0140   -0.7630 hc        1 HI4      0.037700
     47 H23        -4.9680   -3.4610    1.9010 hc        1 HI4      0.027367
     48 H23A       -4.1630   -5.0280    1.4880 hc        1 HI4      0.027367
     49 H23B       -5.9680   -4.9500    1.6350 hc        1 HI4      0.027367
@<TRIPOS>BOND
     1    1    4 2   
     2    1   25 1   
     3    1   32 1   
     4    2   19 1   
     5    2   20 1   
     6    2   25 1   
     7    3   24 1   
     8    4    7 2   
     9    5   26 1   
    10    5   27 1   
    11    5   33 1   
    12    6   26 2   
    13    7    8 1   
    14    7   10 1   
    15    8   11 1   
    16    8   13 1   
    17    9   24 1   
    18   10   12 1   
    19   10   34 1   
    20   10   35 1   
    21   12   14 3   
    22   14   36 1   
    23   15   21 1   
    24   15   26 1   
    25   15   29 2   
    26   16   17 ar  
    27   16   18 ar  
    28   16   37 1   
    29   17   22 ar  
    30   17   30 1   
    31   18   19 ar  
    32   18   21 1   
    33   19   23 ar  
    34   20   21 2   
    35   20   24 1   
    36   22   23 ar  
    37   22   38 1   
    38   23   39 1   
    39   25   40 1   
    40   25   41 1   
    41   27   28 2   
    42   27   42 1   
    43   28   29 1   
    44   28   43 1   
    45   29   44 1   
    46   30   31 1   
    47   30   45 1   
    48   30   46 1   
    49   31   47 1   
    50   31   48 1   
    51   31   49 1   
@<TRIPOS>SUBSTRUCTURE
     1 HI4         1 TEMP              0 ****  ****    0 ROOT
