@<TRIPOS>MOLECULE
HI4
   49    51     1     0     0
SMALL
bcc


@<TRIPOS>ATOM
      1 C1          0.0730    0.7170   -0.8130 c2        1 HI4     -0.131300
      2 N1         -0.6570   -1.2690   -2.1300 na        1 HI4     -0.071400
      3 O1          1.2270   -0.9830   -4.4320 o         1 HI4     -0.803300
      4 C2          0.2950    0.0840    0.3010 c1        1 HI4      0.043200
      5 N2         -1.2250   -6.7310   -4.6430 n         1 HI4     -0.451100
      6 O2         -2.7890   -5.1790   -4.1750 o         1 HI4     -0.669500
      7 C3          0.4500   -0.5480    1.4390 c2        1 HI4     -0.184400
      8 N3          1.8080   -0.9230    1.9350 no        1 HI4      0.295100
      9 O3          2.2200   -2.7560   -3.5010 o         1 HI4     -0.803300
     10 C4         -0.7120   -0.9680    2.2940 c3        1 HI4      0.060900
     11 O4          2.7600   -0.2690    1.6050 o         1 HI4     -0.215500
     12 C5         -0.9800   -0.0380    3.3480 c1        1 HI4     -0.127100
     13 O5          1.9110   -1.8560    2.6880 o         1 HI4     -0.215500
     14 C6         -1.2180    0.7300    4.2320 c1        1 HI4     -0.035900
     15 C7         -0.5130   -4.7330   -3.4000 cc        1 HI4     -0.087200
     16 C8         -3.0560   -3.8970   -1.5090 ca        1 HI4     -0.068000
     17 C9         -3.9960   -3.2950   -0.6730 ca        1 HI4     -0.124300
     18 C10        -1.9660   -3.1590   -1.9650 ca        1 HI4     -0.046800
     19 C11        -1.8370   -1.7750   -1.5660 ca        1 HI4     -0.066200
     20 C12        -0.0480   -2.2830   -2.8950 cd        1 HI4     -0.027300
     21 C13        -0.8200   -3.4570   -2.8060 cc        1 HI4     -0.126200
     22 C14        -3.8560   -1.9460   -0.2940 ca        1 HI4     -0.135000
     23 C15        -2.7890   -1.1750   -0.7310 ca        1 HI4     -0.162000
     24 C16         1.2360   -1.9960   -3.6790 c         1 HI4      0.927800
     25 C17        -0.2850    0.1110   -2.1380 c3        1 HI4      0.062500
     26 C18        -1.5850   -5.4940   -4.0650 c         1 HI4      0.686700
     27 C19         0.0670   -7.2030   -4.6090 cc        1 HI4     -0.037400
     28 C20         1.0600   -6.5010   -3.9820 cd        1 HI4     -0.217000
     29 C21         0.7580   -5.2460   -3.3720 cd        1 HI4     -0.049000
     30 C22        -5.1720   -4.0700   -0.1880 c3        1 HI4     -0.025100
     31 C23        -5.0630   -4.4150    1.2780 c3        1 HI4     -0.087100
     32 H2          0.1320    1.8220   -0.8360 ha        1 HI4      0.155000
     33 HN2        -1.9240   -7.2370   -5.1360 hn        1 HI4      0.313500
     34 H4         -1.6210   -1.0610    1.6260 hc        1 HI4      0.105200
     35 H5         -0.5110   -1.9890    2.7340 hc        1 HI4      0.105200
     36 F1         -1.4810    1.5600    5.1940 f         1 HI4     -0.005100
     37 H8         -3.1790   -4.9400   -1.8370 ha        1 HI4      0.143000
     38 H14        -4.6180   -1.4960    0.3590 ha        1 HI4      0.111000
     39 H15        -2.6970   -0.1210   -0.4390 ha        1 HI4      0.116000
     40 H17        -1.1490    0.7190   -2.5460 h1        1 HI4      0.107700
     41 H17A        0.6010    0.2410   -2.8440 h1        1 HI4      0.107700
     42 H19         0.2450   -8.1690   -5.1100 h4        1 HI4      0.129000
     43 H20         2.0890   -6.8790   -3.9550 ha        1 HI4      0.141000
     44 H21         1.5800   -4.6650   -2.9070 ha        1 HI4      0.203000
     45 H22        -6.1060   -3.4680   -0.3580 hc        1 HI4      0.037700
     46 H22A       -5.2770   -5.0160   -0.7850 hc        1 HI4      0.037700
     47 H23        -4.9700   -3.4870    1.8930 hc        1 HI4      0.027367
     48 H23A       -4.1640   -5.0500    1.4660 hc        1 HI4      0.027367
     49 H23B       -5.9690   -4.9740    1.6130 hc        1 HI4      0.027367
@<TRIPOS>BOND
     1    1    4 2   
     2    1   25 1   
     3    1   32 1   
     4    2   19 1   
     5    2   20 1   
     6    2   25 1   
     7    3   24 1   
     8    4    7 2   
     9    5   26 1   
    10    5   27 1   
    11    5   33 1   
    12    6   26 2   
    13    7    8 1   
    14    7   10 1   
    15    8   11 1   
    16    8   13 1   
    17    9   24 1   
    18   10   12 1   
    19   10   34 1   
    20   10   35 1   
    21   12   14 3   
    22   14   36 1   
    23   15   21 1   
    24   15   26 1   
    25   15   29 2   
    26   16   17 ar  
    27   16   18 ar  
    28   16   37 1   
    29   17   22 ar  
    30   17   30 1   
    31   18   19 ar  
    32   18   21 1   
    33   19   23 ar  
    34   20   21 2   
    35   20   24 1   
    36   22   23 ar  
    37   22   38 1   
    38   23   39 1   
    39   25   40 1   
    40   25   41 1   
    41   27   28 2   
    42   27   42 1   
    43   28   29 1   
    44   28   43 1   
    45   29   44 1   
    46   30   31 1   
    47   30   45 1   
    48   30   46 1   
    49   31   47 1   
    50   31   48 1   
    51   31   49 1   
@<TRIPOS>SUBSTRUCTURE
     1 HI4         1 TEMP              0 ****  ****    0 ROOT
