@<TRIPOS>MOLECULE
HI4
   49    52     1     0     0
SMALL
bcc


@<TRIPOS>ATOM
      1 C1         -2.5650    0.8050    0.7720 ca        1 HI4     -0.144300
      2 N1         -0.1560    0.3930    1.1640 na        1 HI4     -0.069400
      3 O1         -0.4480   -2.4770    2.3500 o         1 HI4     -0.800300
      4 C2         -2.9790   -0.2140   -0.0950 ca        1 HI4     -0.015000
      5 N2          4.8010   -2.6330   -0.5220 n         1 HI4     -0.450100
      6 O2          4.6520   -0.6430    0.5210 o         1 HI4     -0.669500
      7 C3         -4.0380    0.0290   -0.9830 ca        1 HI4     -0.198200
      8 N3         -4.5120   -1.0380   -1.9010 no        1 HI4      0.313200
      9 O3         -0.8900   -2.7050    0.1660 o         1 HI4     -0.800300
     10 C4         -4.6800    1.2820   -1.0290 ca        1 HI4     -0.056000
     11 O4         -4.1450   -2.1670   -1.7480 o         1 HI4     -0.211500
     12 C5         -4.2700    2.2900   -0.1730 ca        1 HI4     -0.196000
     13 O5         -5.2820   -0.7350   -2.7820 o         1 HI4     -0.211500
     14 C6         -3.2110    2.0560    0.7300 ca        1 HI4      0.166900
     15 C7          2.5600   -1.6690   -0.2250 cc        1 HI4     -0.076200
     16 C8          2.9310    1.6270   -0.2420 ca        1 HI4     -0.073000
     17 C9          2.7950    3.0130   -0.1650 ca        1 HI4     -0.125300
     18 C10         1.9020    0.8070    0.2150 ca        1 HI4     -0.045800
     19 C11         0.7130    1.4200    0.7710 ca        1 HI4     -0.058200
     20 C12         0.4280   -0.8430    0.8460 cd        1 HI4     -0.036300
     21 C13         1.6940   -0.6300    0.2690 cc        1 HI4     -0.131200
     22 C14         1.6310    3.5910    0.3770 ca        1 HI4     -0.133000
     23 C15         0.5850    2.8120    0.8500 ca        1 HI4     -0.150000
     24 C16        -0.3450   -2.1280    1.1480 c         1 HI4      0.916800
     25 C17        -1.4490    0.5510    1.7540 c3        1 HI4      0.084600
     26 C18         4.0170   -1.5680   -0.0290 c         1 HI4      0.687700
     27 C19         4.2400   -3.7310   -1.1340 cc        1 HI4     -0.040400
     28 C20         2.8870   -3.8230   -1.3190 cd        1 HI4     -0.214000
     29 C21         2.0410   -2.7730   -0.8520 cd        1 HI4     -0.069000
     30 C22         3.8940    3.8990   -0.6410 c3        1 HI4     -0.025100
     31 C23         3.5450    4.5930   -1.9360 c3        1 HI4     -0.087100
     32 H2         -2.4560   -1.2030   -0.0750 ha        1 HI4      0.244000
     33 HN2         5.7810   -2.6040   -0.3620 hn        1 HI4      0.313500
     34 H4         -5.5010    1.4590   -1.7440 ha        1 HI4      0.163000
     35 H5         -4.7570    3.2750   -0.1920 ha        1 HI4      0.149000
     36 F1         -2.8330    3.0600    1.5560 f         1 HI4     -0.136900
     37 H8          3.8530    1.1730   -0.6370 ha        1 HI4      0.146000
     38 H14         1.5540    4.6860    0.4260 ha        1 HI4      0.111000
     39 H15        -0.3190    3.2710    1.2720 ha        1 HI4      0.123000
     40 H17        -1.4040    1.4100    2.4850 h1        1 HI4      0.090700
     41 H17A       -1.6850   -0.4020    2.3250 h1        1 HI4      0.090700
     42 H19         4.9420   -4.5160   -1.4610 h4        1 HI4      0.129000
     43 H20         2.4420   -4.6980   -1.8090 ha        1 HI4      0.142000
     44 H21         0.9440   -2.8760   -0.9780 ha        1 HI4      0.201000
     45 H22         4.1120    4.6720    0.1460 hc        1 HI4      0.036700
     46 H22A        4.8330    3.3000   -0.7820 hc        1 HI4      0.036700
     47 H23         4.3770    5.2680   -2.2500 hc        1 HI4      0.027033
     48 H23A        3.3680    3.8460   -2.7460 hc        1 HI4      0.027033
     49 H23B        2.6180    5.2030   -1.8150 hc        1 HI4      0.027033
@<TRIPOS>BOND
     1    1    4 ar  
     2    1   14 ar  
     3    1   25 1   
     4    2   19 1   
     5    2   20 1   
     6    2   25 1   
     7    3   24 1   
     8    4    7 ar  
     9    4   32 1   
    10    5   26 1   
    11    5   27 1   
    12    5   33 1   
    13    6   26 2   
    14    7    8 1   
    15    7   10 ar  
    16    8   11 1   
    17    8   13 1   
    18    9   24 1   
    19   10   12 ar  
    20   10   34 1   
    21   12   14 ar  
    22   12   35 1   
    23   14   36 1   
    24   15   21 1   
    25   15   26 1   
    26   15   29 2   
    27   16   17 ar  
    28   16   18 ar  
    29   16   37 1   
    30   17   22 ar  
    31   17   30 1   
    32   18   19 ar  
    33   18   21 1   
    34   19   23 ar  
    35   20   21 2   
    36   20   24 1   
    37   22   23 ar  
    38   22   38 1   
    39   23   39 1   
    40   25   40 1   
    41   25   41 1   
    42   27   28 2   
    43   27   42 1   
    44   28   29 1   
    45   28   43 1   
    46   29   44 1   
    47   30   31 1   
    48   30   45 1   
    49   30   46 1   
    50   31   47 1   
    51   31   48 1   
    52   31   49 1   
@<TRIPOS>SUBSTRUCTURE
     1 HI4         1 TEMP              0 ****  ****    0 ROOT
