@<TRIPOS>MOLECULE
HI6
   38    39     1     0     0
SMALL
bcc


@<TRIPOS>ATOM
      1 O3          0.2800   -1.5050   -0.9350 o         1 HI6     -0.323300
      2 C14         1.4120   -1.1460   -0.6680 c2        1 HI6      0.537300
      3 N4          1.9310   -1.5210    0.6920 n4        1 HI6     -0.749400
      4 C11         2.3070   -0.3660   -1.5630 cc        1 HI6     -0.048000
      5 C10         1.8530    0.8670   -2.0510 cc        1 HI6     -0.090500
      6 C9          2.6310    1.5600   -2.9980 cd        1 HI6      0.106500
      7 N3          3.8110    1.0490   -3.4600 na        1 HI6     -0.375200
      8 C13         4.2580   -0.1530   -2.9820 cd        1 HI6      0.106500
      9 C12         3.5260   -0.8790   -2.0280 cc        1 HI6     -0.090500
     10 C8          4.6530    1.8360   -4.4170 c3        1 HI6      0.379600
     11 O2          3.8190    2.5980   -5.2630 os        1 HI6     -0.411600
     12 C7          3.7880    2.2670   -6.6560 c3        1 HI6      0.206100
     13 N2          4.6900    3.1400   -7.4210 na        1 HI6     -0.031100
     14 C2          5.6640    2.6450   -8.2650 ca        1 HI6     -0.005200
     15 C1          5.9390    1.1970   -8.3980 ce        1 HI6      0.336800
     16 N1          6.5250    0.5340   -7.4360 n2        1 HI6     -0.413200
     17 O1          6.7530   -0.7250   -7.6800 oh        1 HI6     -0.309500
     18 C3          6.4130    3.5190   -9.0740 ca        1 HI6     -0.119000
     19 C4          6.1880    4.8990   -9.0250 ca        1 HI6      0.033000
     20 C5          5.2040    5.3910   -8.1550 ca        1 HI6     -0.123000
     21 C6          4.4690    4.4990   -7.3750 ca        1 HI6     -0.019300
     22 HN41        2.8130   -2.0410    0.6220 hn        1 HI6      0.494800
     23 HN42        1.2330   -2.1200    1.1740 hn        1 HI6      0.494800
     24 H10         0.8890    1.3100   -1.7290 ha        1 HI6      0.223000
     25 H9          2.3010    2.5460   -3.4050 h4        1 HI6      0.243500
     26 H13         5.2270   -0.5440   -3.3710 h4        1 HI6      0.243500
     27 H12         3.9280   -1.8560   -1.6980 ha        1 HI6      0.223000
     28 H81         5.3280    1.1260   -4.9740 h2        1 HI6      0.139200
     29 H82         5.2320    2.5860   -3.7900 h2        1 HI6      0.139200
     30 H71         4.0280    1.1850   -6.8450 h2        1 HI6      0.133200
     31 H72         2.7190    2.5150   -6.9550 h2        1 HI6      0.133200
     32 H1          5.6860    0.7700   -9.3960 h4        1 HI6      0.083800
     33 HO1         7.4790   -0.9930   -7.0700 ho        1 HI6      0.477000
     34 H3          7.1800    3.0930   -9.7510 ha        1 HI6      0.222000
     35 H4          6.7760    5.5890   -9.6640 ha        1 HI6      0.222000
     36 H5          4.9930    6.4760   -8.0850 ha        1 HI6      0.223000
     37 H6          3.6700    4.8500   -6.6880 h4        1 HI6      0.211000
     38 H43         2.0830   -0.6800    1.2660 hn        1 HI6      0.494800
@<TRIPOS>BOND
     1    1    2 1   
     2    2    3 1   
     3    2    4 2   
     4    3   22 1   
     5    3   23 1   
     6    3   38 1   
     7    4    5 1   
     8    4    9 1   
     9    5    6 2   
    10    5   24 1   
    11    6    7 1   
    12    6   25 1   
    13    7    8 1   
    14    7   10 1   
    15    8    9 2   
    16    8   26 1   
    17    9   27 1   
    18   10   11 1   
    19   10   28 1   
    20   10   29 1   
    21   11   12 1   
    22   12   13 1   
    23   12   30 1   
    24   12   31 1   
    25   13   14 1   
    26   13   21 2   
    27   14   15 1   
    28   14   18 ar  
    29   15   16 2   
    30   15   32 1   
    31   16   17 1   
    32   17   33 1   
    33   18   19 ar  
    34   18   34 1   
    35   19   20 ar  
    36   19   35 1   
    37   20   21 ar  
    38   20   36 1   
    39   21   37 1   
@<TRIPOS>SUBSTRUCTURE
     1 HI6         1 TEMP              0 ****  ****    0 ROOT
