@<TRIPOS>MOLECULE
HI6
   38    39     1     0     0
SMALL
bcc


@<TRIPOS>ATOM
      1 O3          0.4030   -1.6490   -0.9260 o         1 HI6     -0.323300
      2 C14         1.5110   -1.2240   -0.6530 c2        1 HI6      0.537300
      3 N4          2.0350   -1.5480    0.7170 nz        1 HI6     -0.749400
      4 C11         2.3720   -0.4110   -1.5520 cc        1 HI6     -0.048000
      5 C10         1.8580    0.7880   -2.0640 cc        1 HI6     -0.090500
      6 C9          2.6070    1.5070   -3.0140 cd        1 HI6      0.106500
      7 N3          3.8160    1.0530   -3.4580 na        1 HI6     -0.375200
      8 C13         4.3230   -0.1160   -2.9570 cd        1 HI6      0.106500
      9 C12         3.6210   -0.8650   -1.9980 cc        1 HI6     -0.090500
     10 C8          4.6250    1.8700   -4.4190 c3        1 HI6      0.379600
     11 O2          3.7610    2.5730   -5.2840 os        1 HI6     -0.411600
     12 C7          3.7600    2.2210   -6.6720 c3        1 HI6      0.206100
     13 N2          4.6220    3.1280   -7.4420 na        1 HI6     -0.031100
     14 C2          5.6290    2.6720   -8.2710 ca        1 HI6     -0.005200
     15 C1          5.9800    1.2380   -8.3790 ce        1 HI6      0.336800
     16 N1          6.5890    0.6210   -7.4030 n2        1 HI6     -0.413200
     17 O1          6.8850   -0.6290   -7.6260 oh        1 HI6     -0.309500
     18 C3          6.3390    3.5710   -9.0860 ca        1 HI6     -0.119000
     19 C4          6.0430    4.9380   -9.0600 ca        1 HI6      0.033000
     20 C5          5.0270    5.3910   -8.2060 ca        1 HI6     -0.123000
     21 C6          4.3310    4.4750   -7.4190 ca        1 HI6     -0.019300
     22 HN41        2.9450   -2.0200    0.6650 hn        1 HI6      0.494800
     23 HN42        1.3650   -2.1770    1.2020 hn        1 HI6      0.494800
     24 H10         0.8680    1.1850   -1.7570 ha        1 HI6      0.223000
     25 H9          2.2290    2.4690   -3.4400 h4        1 HI6      0.243500
     26 H13         5.3150   -0.4600   -3.3310 h4        1 HI6      0.243500
     27 H12         4.0710   -1.8140   -1.6490 ha        1 HI6      0.223000
     28 H81         5.3420    1.1880   -4.9600 h2        1 HI6      0.139200
     29 H82         5.1580    2.6580   -3.7990 h2        1 HI6      0.139200
     30 H71         4.0570    1.1500   -6.8420 h2        1 HI6      0.133200
     31 H72         2.6830    2.4090   -6.9840 h2        1 HI6      0.133200
     32 H1          5.7580    0.7840   -9.3730 h4        1 HI6      0.083800
     33 HO1         7.6180   -0.8500   -7.0050 ho        1 HI6      0.477000
     34 H3          7.1330    3.1760   -9.7500 ha        1 HI6      0.222000
     35 H4          6.6000    5.6480   -9.7050 ha        1 HI6      0.222000
     36 H5          4.7600    6.4650   -8.1540 ha        1 HI6      0.223000
     37 H6          3.5090    4.7940   -6.7440 h4        1 HI6      0.211000
     38 H43         2.1340   -0.6910    1.2800 hn        1 HI6      0.494800
@<TRIPOS>BOND
     1    1    2 1   
     2    2    3 1   
     3    2    4 2   
     4    3   22 1   
     5    3   23 1   
     6    3   38 1   
     7    4    5 1   
     8    4    9 1   
     9    5    6 2   
    10    5   24 1   
    11    6    7 1   
    12    6   25 1   
    13    7    8 1   
    14    7   10 1   
    15    8    9 2   
    16    8   26 1   
    17    9   27 1   
    18   10   11 1   
    19   10   28 1   
    20   10   29 1   
    21   11   12 1   
    22   12   13 1   
    23   12   30 1   
    24   12   31 1   
    25   13   14 1   
    26   13   21 2   
    27   14   15 1   
    28   14   18 ar  
    29   15   16 2   
    30   15   32 1   
    31   16   17 1   
    32   17   33 1   
    33   18   19 ar  
    34   18   34 1   
    35   19   20 ar  
    36   19   35 1   
    37   20   21 ar  
    38   20   36 1   
    39   21   37 1   
@<TRIPOS>SUBSTRUCTURE
     1 HI6         1 TEMP              0 ****  ****    0 ROOT
