@<TRIPOS>MOLECULE
HI6
   37    32     1     0     0
SMALL
bcc


@<TRIPOS>ATOM
      1 O3         -5.7060    2.4840   -2.0240 o         1 HI6     -0.293000
      2 C14        -5.2650    1.4300   -1.6640 c1        1 HI6      0.323000
      3 N4         -6.0220    0.2730   -1.8130 n2        1 HI6     -0.397000
      4 C11        -3.9170    1.3720   -0.9390 c2        1 HI6      0.021000
      5 C10        -2.7580    1.1760   -1.6560 c2        1 HI6     -0.089000
      6 C9         -1.5280    1.2120   -1.0090 c1        1 HI6     -0.016000
      7 N3         -1.4690    1.4380    0.3160 n2        1 HI6     -0.092000
      8 C13        -2.6240    1.6330    1.0320 c1        1 HI6      0.010000
      9 C12        -3.8580    1.5990    0.3890 c1        1 HI6     -0.122000
     10 C8         -0.1500    1.4970    0.9990 c3        1 HI6      0.069000
     11 O2          0.5390    0.2690    0.8140 os        1 HI6     -0.261000
     12 C7          1.7890    0.1890    1.5230 c3        1 HI6      0.068000
     13 N2          2.4230   -1.0260    1.2110 n3        1 HI6     -0.101000
     14 C2          2.8420   -1.2600   -0.0500 c2        1 HI6      0.114000
     15 C1          2.6300   -0.1550   -1.1710 c2        1 HI6     -0.204000
     16 N1          3.6470    0.4100   -1.7140 n1        1 HI6      0.094000
     17 O1          4.8880    0.0640   -1.3320 o         1 HI6     -0.231000
     18 C3          3.4830   -2.4680   -0.3650 c1        1 HI6     -0.129000
     19 C4          3.6840   -3.4140    0.6160 c1        1 HI6     -0.055000
     20 C5          3.2600   -3.1760    1.8880 c1        1 HI6     -0.055000
     21 C6          2.6240   -1.9750    2.1950 c1        1 HI6     -0.017000
     22 HN41       -6.9390    0.3300   -2.1160 hn        1 HI6      0.255000
     23 HN42       -5.6490   -0.5290   -1.6630 hn        1 HI6      0.255000
     24 H10        -2.8000    1.0100   -2.6170 ha        1 HI6      0.234000
     25 H9         -0.7470    1.0810   -1.4910 ha        1 HI6      0.208000
     26 H13        -2.5810    1.7970    2.0020 ha        1 HI6      0.218000
     27 H12        -4.6760    1.7400    0.8960 ha        1 HI6      0.210000
     28 H81         0.3880    2.2310    0.6180 h2        1 HI6      0.161500
     29 H82        -0.2890    1.6580    1.9660 h2        1 HI6      0.161500
     30 H71         1.6160    0.2350    2.5200 h2        1 HI6      0.163500
     31 H72         2.3720    0.9440    1.2520 h2        1 HI6      0.163500
     32 H1          1.6860    0.1070   -1.4590 h4        1 HI6      0.197000
     33 HO1         5.4450    0.3730   -1.8780 ho        1 HI6      0.299000
     34 H3          3.8020   -2.6450   -1.3200 ha        1 HI6      0.219000
     35 H4          4.1280   -4.2570    0.4010 ha        1 HI6      0.211000
     36 H5          3.4010   -3.8360    2.5740 ha        1 HI6      0.211000
     37 H6          2.3310   -1.8120    3.0680 ha        1 HI6      0.195000
@<TRIPOS>BOND
     1    1    2 1   
     2    2    4 1   
     3    3   22 1   
     4    3   23 1   
     5    4    5 1   
     6    4    9 1   
     7    5    6 1   
     8    5   24 1   
     9    6   25 1   
    10    7    8 1   
    11    7   10 1   
    12    8   26 1   
    13    9   27 1   
    14   10   11 1   
    15   10   28 1   
    16   10   29 1   
    17   11   12 1   
    18   12   13 1   
    19   12   30 1   
    20   12   31 1   
    21   13   14 1   
    22   13   21 1   
    23   14   15 1   
    24   14   18 1   
    25   15   16 1   
    26   15   32 1   
    27   17   33 1   
    28   18   34 1   
    29   19   20 1   
    30   19   35 1   
    31   20   36 1   
    32   21   37 1   
@<TRIPOS>SUBSTRUCTURE
     1 HI6         1 TEMP              0 ****  ****    0 ROOT
