@<TRIPOS>MOLECULE
HI6
   37    38     1     0     0
SMALL
bcc


@<TRIPOS>ATOM
      1 O3          5.4560   -2.2570    1.3440 o         1 HI6     -0.560300
      2 C14         5.4070   -1.4930    0.3630 c2        1 HI6      0.655300
      3 N4          6.5100   -1.0150   -0.2750 n         1 HI6     -0.635000
      4 C11         4.0470   -1.0560   -0.1260 cc        1 HI6      0.019000
      5 C10         3.0210   -2.0160   -0.1680 cc        1 HI6     -0.106500
      6 C9          1.7270   -1.6290   -0.5220 cd        1 HI6      0.079500
      7 N3          1.4380   -0.3230   -0.8290 na        1 HI6     -0.413200
      8 C13         2.4350    0.6160   -0.8000 cd        1 HI6      0.079500
      9 C12         3.7470    0.2720   -0.4510 cc        1 HI6     -0.106500
     10 C8          0.0750    0.0650   -1.2490 c3        1 HI6      0.374600
     11 O2         -0.3160    1.2690   -0.6090 os        1 HI6     -0.403600
     12 C7         -1.1410    1.1660    0.5440 c3        1 HI6      0.198100
     13 N2         -2.5590    1.3560    0.1790 na        1 HI6     -0.022100
     14 C2         -3.5500    0.4810    0.5690 ca        1 HI6     -0.003200
     15 C1         -3.2600   -0.7540    1.3310 ce        1 HI6      0.325800
     16 N1         -2.7340   -1.7950    0.7420 n2        1 HI6     -0.397200
     17 O1         -2.5760   -2.8460    1.4920 oh        1 HI6     -0.307500
     18 C3         -4.8990    0.7640    0.2840 ca        1 HI6     -0.124000
     19 C4         -5.2450    1.9280   -0.4080 ca        1 HI6      0.018000
     20 C5         -4.2280    2.8040   -0.8090 ca        1 HI6     -0.129000
     21 C6         -2.9010    2.5010   -0.5010 ca        1 HI6     -0.016300
     22 HN41        7.4080   -1.3170    0.0340 hn        1 HI6      0.342500
     23 HN42        6.4480   -0.4860   -1.1070 hn        1 HI6      0.342500
     24 H10         3.2320   -3.0710    0.1010 ha        1 HI6      0.221000
     25 H9          0.9000   -2.3670   -0.5710 h4        1 HI6      0.212500
     26 H13         2.1540    1.6600   -1.0600 h4        1 HI6      0.212500
     27 H12         4.5190    1.0640   -0.4250 ha        1 HI6      0.221000
     28 H81         0.1130    0.3310   -2.3520 h2        1 HI6      0.128200
     29 H82        -0.6350   -0.7860   -1.0450 h2        1 HI6      0.128200
     30 H71        -1.0050    0.1930    1.0900 h2        1 HI6      0.128200
     31 H72        -0.8280    2.0490    1.1860 h2        1 HI6      0.128200
     32 H1         -3.6020   -0.7330    2.3910 h4        1 HI6      0.076800
     33 HO1        -2.4070   -3.5950    0.8750 ho        1 HI6      0.475000
     34 H3         -5.6740    0.0490    0.6180 ha        1 HI6      0.214000
     35 H4         -6.3060    2.1530   -0.6330 ha        1 HI6      0.211000
     36 H5         -4.4570    3.7360   -1.3590 ha        1 HI6      0.216000
     37 H6         -2.0650    3.1730   -0.7910 h4        1 HI6      0.216000
@<TRIPOS>BOND
     1    1    2 1   
     2    2    3 1   
     3    2    4 2   
     4    3   22 1   
     5    3   23 1   
     6    4    5 1   
     7    4    9 1   
     8    5    6 2   
     9    5   24 1   
    10    6    7 1   
    11    6   25 1   
    12    7    8 1   
    13    7   10 1   
    14    8    9 2   
    15    8   26 1   
    16    9   27 1   
    17   10   11 1   
    18   10   28 1   
    19   10   29 1   
    20   11   12 1   
    21   12   13 1   
    22   12   30 1   
    23   12   31 1   
    24   13   14 1   
    25   13   21 2   
    26   14   15 1   
    27   14   18 ar  
    28   15   16 2   
    29   15   32 1   
    30   16   17 1   
    31   17   33 1   
    32   18   19 ar  
    33   18   34 1   
    34   19   20 ar  
    35   19   35 1   
    36   20   21 ar  
    37   20   36 1   
    38   21   37 1   
@<TRIPOS>SUBSTRUCTURE
     1 HI6         1 TEMP              0 ****  ****    0 ROOT
