@<TRIPOS>MOLECULE
HI6
   38    39     1     0     0
SMALL
bcc


@<TRIPOS>ATOM
      1 O3          0.4140   -1.6650   -0.9290 o         1 HI6     -0.323300
      2 C14         1.5220   -1.2410   -0.6570 c2        1 HI6      0.537300
      3 N4          2.0490   -1.5690    0.7120 n4        1 HI6     -0.749400
      4 C11         2.3810   -0.4240   -1.5540 cc        1 HI6     -0.048000
      5 C10         1.8650    0.7770   -2.0610 cc        1 HI6     -0.090500
      6 C9          2.6110    1.5000   -3.0100 cd        1 HI6      0.106500
      7 N3          3.8200    1.0480   -3.4580 na        1 HI6     -0.375200
      8 C13         4.3280   -0.1220   -2.9630 cd        1 HI6      0.106500
      9 C12         3.6290   -0.8760   -2.0050 cc        1 HI6     -0.090500
     10 C8          4.6260    1.8680   -4.4190 c3        1 HI6      0.379600
     11 O2          3.7590    2.5750   -5.2780 os        1 HI6     -0.411600
     12 C7          3.7550    2.2280   -6.6680 c3        1 HI6      0.206100
     13 N2          4.6150    3.1380   -7.4370 na        1 HI6     -0.031100
     14 C2          5.6200    2.6850   -8.2700 ca        1 HI6     -0.005200
     15 C1          5.9700    1.2510   -8.3850 ce        1 HI6      0.336800
     16 N1          6.5820    0.6300   -7.4120 n2        1 HI6     -0.413200
     17 O1          6.8770   -0.6190   -7.6410 oh        1 HI6     -0.309500
     18 C3          6.3280    3.5870   -9.0840 ca        1 HI6     -0.119000
     19 C4          6.0320    4.9540   -9.0510 ca        1 HI6      0.033000
     20 C5          5.0190    5.4040   -8.1930 ca        1 HI6     -0.123000
     21 C6          4.3240    4.4840   -7.4080 ca        1 HI6     -0.019300
     22 HN41        2.1490   -0.7140    1.2770 hn        1 HI6      0.494800
     23 HN42        1.3810   -2.2000    1.1960 hn        1 HI6      0.494800
     24 H10         0.8750    1.1720   -1.7510 ha        1 HI6      0.223000
     25 H9          2.2320    2.4620   -3.4310 h4        1 HI6      0.243500
     26 H13         5.3190   -0.4650   -3.3410 h4        1 HI6      0.243500
     27 H12         4.0800   -1.8260   -1.6600 ha        1 HI6      0.223000
     28 H81         5.3420    1.1890   -4.9630 h2        1 HI6      0.139200
     29 H82         5.1610    2.6540   -3.7970 h2        1 HI6      0.139200
     30 H71         2.6770    2.4170   -6.9760 h2        1 HI6      0.133200
     31 H72         4.0520    1.1580   -6.8430 h2        1 HI6      0.133200
     32 H1          5.7450    0.8010   -9.3800 h4        1 HI6      0.083800
     33 HO1         7.6120   -0.8420   -7.0230 ho        1 HI6      0.477000
     34 H3          7.1210    3.1940   -9.7510 ha        1 HI6      0.222000
     35 H4          6.5880    5.6660   -9.6950 ha        1 HI6      0.222000
     36 H5          4.7520    6.4780   -8.1370 ha        1 HI6      0.223000
     37 H6          3.5040    4.8010   -6.7290 h4        1 HI6      0.211000
     38 H43         2.9600   -2.0410    0.6560 hn        1 HI6      0.494800
@<TRIPOS>BOND
     1    1    2 1   
     2    2    3 1   
     3    2    4 2   
     4    3   22 1   
     5    3   23 1   
     6    3   38 1   
     7    4    5 1   
     8    4    9 1   
     9    5    6 2   
    10    5   24 1   
    11    6    7 1   
    12    6   25 1   
    13    7    8 1   
    14    7   10 1   
    15    8    9 2   
    16    8   26 1   
    17    9   27 1   
    18   10   11 1   
    19   10   28 1   
    20   10   29 1   
    21   11   12 1   
    22   12   13 1   
    23   12   30 1   
    24   12   31 1   
    25   13   14 1   
    26   13   21 2   
    27   14   15 1   
    28   14   18 ar  
    29   15   16 2   
    30   15   32 1   
    31   16   17 1   
    32   17   33 1   
    33   18   19 ar  
    34   18   34 1   
    35   19   20 ar  
    36   19   35 1   
    37   20   21 ar  
    38   20   36 1   
    39   21   37 1   
@<TRIPOS>SUBSTRUCTURE
     1 HI6         1 TEMP              0 ****  ****    0 ROOT
