@<TRIPOS>MOLECULE
HIA
   21    21     1     0     0
SMALL
bcc


@<TRIPOS>ATOM
      1 N           0.3490    1.4350    1.0150 n3        1 HIA     -0.909800
      2 CA         -0.4200    0.2090    1.0490 c3        1 HIA      0.102500
      3 CB          0.0380   -0.8980    0.0840 c3        1 HIA     -0.040100
      4 CG          0.0560   -0.4270   -1.3130 cc        1 HIA     -0.219900
      5 ND1         0.8700   -0.9760   -2.3130 na        1 HIA     -0.314900
      6 CD2        -0.6940    0.5880   -1.9500 cd        1 HIA      0.281200
      7 CE1         0.5840   -0.2870   -3.4960 cc        1 HIA      0.387400
      8 NE2        -0.3550    0.6630   -3.2980 nd        1 HIA     -0.662000
      9 C          -0.4540   -0.3950    2.4710 c         1 HIA      0.655100
     10 O          -0.1880   -1.5970    2.6710 o         1 HIA     -0.624100
     11 NXT        -0.8420    0.4190    3.5010 n         1 HIA     -0.655000
     12 H           1.3140    1.2550    1.2140 hn        1 HIA      0.362300
     13 H2          0.2760    1.8560    0.1080 hn        1 HIA      0.362300
     14 HA         -1.4880    0.4780    0.7830 h1        1 HIA      0.081700
     15 HB2         1.0490   -1.2720    0.4010 hc        1 HIA      0.075700
     16 HB3        -0.6720   -1.7660    0.1830 hc        1 HIA      0.075700
     17 HD1         1.5000   -1.7240   -2.1960 hn        1 HIA      0.302700
     18 HD2        -1.4480    1.2430   -1.5160 h4        1 HIA      0.042100
     19 HE1         1.0780   -0.5130   -4.4460 h5        1 HIA      0.063100
     20 HXT1       -0.8370    0.0660    4.4250 hn        1 HIA      0.317500
     21 HXT2       -0.9460    1.3920    3.3630 hn        1 HIA      0.317500
@<TRIPOS>BOND
     1    1    2 1   
     2    1   12 1   
     3    1   13 1   
     4    2    3 1   
     5    2    9 1   
     6    2   14 1   
     7    3    4 1   
     8    3   15 1   
     9    3   16 1   
    10    4    5 1   
    11    4    6 2   
    12    5    7 1   
    13    5   17 1   
    14    6    8 1   
    15    6   18 1   
    16    7    8 2   
    17    7   19 1   
    18    9   10 2   
    19    9   11 1   
    20   11   20 1   
    21   11   21 1   
@<TRIPOS>SUBSTRUCTURE
     1 HIA         1 TEMP              0 ****  ****    0 ROOT
