@<TRIPOS>MOLECULE
HIA
   21    18     1     0     0
SMALL
bcc


@<TRIPOS>ATOM
      1 N          -1.7070    1.5410   -0.7300 n3        1 HIA     -0.913800
      2 CA         -0.9870    0.3320   -0.5050 c3        1 HIA      0.093500
      3 CB         -0.4380    0.3180    0.9480 c3        1 HIA     -0.031200
      4 CG          1.0990    0.2130    0.9070 ce        1 HIA      0.290400
      5 ND1         1.8240   -0.8460    1.2640 n1        1 HIA     -0.997500
      6 CD2         1.9580    1.2370    0.6410 c1        1 HIA      0.110500
      7 CE1         3.1310   -0.4890    1.2220 cg        1 HIA      0.272800
      8 NE2         3.1990    0.7950    0.8380 ne        1 HIA     -0.419400
      9 C          -1.8760   -0.8080   -0.7050 c         1 HIA      0.665100
     10 O          -2.7160   -1.0700    0.1200 o         1 HIA     -0.651100
     11 NXT        -1.8100   -1.5660   -1.9360 n         1 HIA     -0.649000
     12 H          -2.3200    1.4120   -1.3880 hn        1 HIA      0.360300
     13 H2         -1.1560    2.1640   -0.9650 hn        1 HIA      0.360300
     14 HA         -0.2180    0.2750   -1.1560 h1        1 HIA      0.089700
     15 HB2        -0.8070   -0.4440    1.4310 hc        1 HIA      0.067200
     16 HB3        -0.6920    1.1430    1.3980 hc        1 HIA      0.067200
     17 HD1         1.4850   -1.7000    1.5020 DU        1 HIA      0.216333
     18 HD2         1.6980    2.1800    0.3430 DU        1 HIA      0.216333
     19 HE1         3.9020   -1.0730    1.4370 DU        1 HIA      0.216333
     20 HXT1       -1.3120   -1.2430   -2.6590 hn        1 HIA      0.319000
     21 HXT2       -2.2590   -2.3690   -2.0080 hn        1 HIA      0.319000
@<TRIPOS>BOND
     1    1    2 1   
     2    1   12 1   
     3    1   13 1   
     4    2    3 1   
     5    2    9 1   
     6    2   14 1   
     7    3    4 1   
     8    3   15 1   
     9    3   16 1   
    10    4    5 1   
    11    4    6 2   
    12    5    7 3   
    13    6    8 2   
    14    7    8 1   
    15    9   10 2   
    16    9   11 1   
    17   11   20 1   
    18   11   21 1   
@<TRIPOS>SUBSTRUCTURE
     1 HIA         1 TEMP              0 ****  ****    0 ROOT
