@<TRIPOS>MOLECULE
HIB
   26    26     1     0     0
SMALL
bcc


@<TRIPOS>ATOM
      1 C1         -0.0510   -0.0350   -0.7790 ca        1 HIB     -0.012100
      2 C2          1.2700   -0.0720   -0.3140 ca        1 HIB      0.129100
      3 C3          1.5340   -0.0850    1.0680 ca        1 HIB     -0.035900
      4 C4          0.4720   -0.0530    1.9890 ca        1 HIB      0.152100
      5 C5         -0.8520    0.0030    1.5330 ca        1 HIB     -0.145600
      6 C6         -1.1040    0.0190    0.1490 ca        1 HIB      0.008700
      7 C7         -2.0270    0.0530    2.5130 c         1 HIB      0.921200
      8 C8         -2.5120    0.0880   -0.3210 c3        1 HIB     -0.069800
      9 C9          3.3800    0.9600    2.0910 c3        1 HIB      0.113700
     10 CX          0.5040   -1.1260    4.0980 c3        1 HIB      0.103700
     11 O2          2.3060   -0.1120   -1.2230 oh        1 HIB     -0.506100
     12 O3          2.8650   -0.2100    1.4560 os        1 HIB     -0.351900
     13 O4          0.8140    0.0400    3.3300 os        1 HIB     -0.351900
     14 O7         -2.4130   -1.0380    3.0180 o         1 HIB     -0.817300
     15 O8         -2.5550    1.1740    2.7390 o         1 HIB     -0.817300
     16 I1         -0.4300   -0.0620   -2.7760 i         1 HIB     -0.180900
     17 H81        -2.8390   -0.9170   -0.6880 hc        1 HIB      0.057367
     18 H82        -3.1960    0.3990    0.5110 hc        1 HIB      0.057367
     19 H83        -2.6200    0.8280   -1.1520 hc        1 HIB      0.057367
     20 H91         4.4100    0.6620    2.4090 h1        1 HIB      0.037700
     21 H92         3.4210    1.8050    1.3610 h1        1 HIB      0.037700
     22 H93         2.7530    1.2370    2.9730 h1        1 HIB      0.037700
     23 HX1         0.6670   -0.7940    5.1530 h1        1 HIB      0.050033
     24 HX2        -0.5560   -1.4470    3.9360 h1        1 HIB      0.050033
     25 HX3         1.2170   -1.9440    3.8280 h1        1 HIB      0.050033
     26 HO2         3.1310   -0.1760   -0.7150 ho        1 HIB      0.425000
@<TRIPOS>BOND
     1    1    2 ar  
     2    1    6 ar  
     3    1   16 1   
     4    2    3 ar  
     5    2   11 1   
     6    3    4 ar  
     7    3   12 1   
     8    4    5 ar  
     9    4   13 1   
    10    5    6 ar  
    11    5    7 1   
    12    6    8 1   
    13    7   14 1   
    14    7   15 1   
    15    8   17 1   
    16    8   18 1   
    17    8   19 1   
    18    9   12 1   
    19    9   20 1   
    20    9   21 1   
    21    9   22 1   
    22   10   13 1   
    23   10   23 1   
    24   10   24 1   
    25   10   25 1   
    26   11   26 1   
@<TRIPOS>SUBSTRUCTURE
     1 HIB         1 TEMP              0 ****  ****    0 ROOT
