@<TRIPOS>MOLECULE
HIB
   26    23     1     0     0
SMALL
bcc


@<TRIPOS>ATOM
      1 C1         -1.0150    0.0530   -1.7370 c1        1 HIB     -0.008400
      2 C2          0.3720    0.0660   -1.7120 c1        1 HIB      0.113600
      3 C3          1.0430    0.0310   -0.4920 c1        1 HIB     -0.054400
      4 C4          0.3140   -0.0190    0.7050 c1        1 HIB      0.137600
      5 C5         -1.0730   -0.0330    0.6720 cg        1 HIB     -0.104200
      6 C6         -1.7390    0.0030   -0.5380 c1        1 HIB      0.046900
      7 C7         -1.8810   -0.0700    2.0050 c         1 HIB      0.869800
      8 C8         -3.2860    0.0610   -0.5660 c3        1 HIB     -0.112000
      9 C9          3.0210    1.3300   -0.8140 c3        1 HIB      0.113700
     10 CX          1.4890   -1.2290    2.3880 c3        1 HIB      0.102700
     11 O2          1.0830    0.0220   -2.8960 oh        1 HIB     -0.489600
     12 O3          2.4530    0.0610   -0.4590 os        1 HIB     -0.335400
     13 O4          0.9830    0.0390    1.9390 os        1 HIB     -0.335400
     14 O7         -2.3420   -1.1570    2.4240 o         1 HIB     -0.817800
     15 O8         -1.9570    0.9880    2.7410 o         1 HIB     -0.817800
     16 I1         -2.0440    0.1630   -3.5910 i         1 HIB     -0.182600
     17 H81        -3.6090    0.7750    0.0720 hc        1 HIB      0.061367
     18 H82        -3.5880    0.2710   -1.4720 hc        1 HIB      0.061367
     19 H83        -3.6540   -0.8170   -0.2900 hc        1 HIB      0.061367
     20 H91         3.7380    1.5650   -0.1680 h1        1 HIB      0.037700
     21 H92         3.3950    1.2790   -1.7060 h1        1 HIB      0.037700
     22 H93         2.3370    2.0040   -0.7920 h1        1 HIB      0.037700
     23 HX1         2.5100   -1.2190    2.3550 h1        1 HIB      0.049700
     24 HX2         1.1430   -1.9570    1.7900 h1        1 HIB      0.049700
     25 HX3         1.1870   -1.3960    3.3270 h1        1 HIB      0.049700
     26 HO2         1.1230   -0.8140   -3.1860 ho        1 HIB      0.425000
@<TRIPOS>BOND
     1    1    6 3   
     2    1   16 1   
     3    2    3 3   
     4    2   11 1   
     5    3   12 1   
     6    4    5 3   
     7    4   13 1   
     8    5    7 1   
     9    6    8 1   
    10    7   14 1   
    11    7   15 1   
    12    8   17 1   
    13    8   18 1   
    14    8   19 1   
    15    9   12 1   
    16    9   20 1   
    17    9   21 1   
    18    9   22 1   
    19   10   13 1   
    20   10   23 1   
    21   10   24 1   
    22   10   25 1   
    23   11   26 1   
@<TRIPOS>SUBSTRUCTURE
     1 HIB         1 TEMP              0 ****  ****    0 ROOT
