@<TRIPOS>MOLECULE
HIB
   26    26     1     0     0
SMALL
bcc


@<TRIPOS>ATOM
      1 C1         -0.2310    0.2020   -0.1480 ca        1 HIB     -0.035100
      2 C2          1.1610    0.2340   -0.3130 ca        1 HIB      0.152100
      3 C3          2.0170   -0.0110    0.7740 ca        1 HIB     -0.061900
      4 C4          1.4820   -0.2880    2.0540 ca        1 HIB      0.188100
      5 C5          0.0930   -0.3060    2.2280 ca        1 HIB     -0.200600
      6 C6         -0.7500   -0.0660    1.1270 ca        1 HIB      0.032700
      7 C7         -0.5910   -0.5620    3.5720 c         1 HIB      0.914200
      8 C8         -2.2100   -0.1100    1.3960 c3        1 HIB     -0.078800
      9 C9          4.1070    1.0250    1.0890 c3        1 HIB      0.113700
     10 CX          2.0150   -0.9110    4.3110 c3        1 HIB      0.095700
     11 O2          1.6860    0.5000   -1.5600 oh        1 HIB     -0.506100
     12 O3          3.3820   -0.0570    0.5070 os        1 HIB     -0.343900
     13 O4          2.4450   -0.4870    3.0170 os        1 HIB     -0.344900
     14 O7         -0.9190   -1.7490    3.8500 o         1 HIB     -0.821800
     15 O8         -0.8060    0.4330    4.3180 o         1 HIB     -0.821800
     16 I1         -1.4500    0.5440   -1.7360 i         1 HIB     -0.181900
     17 H81        -2.4730   -1.1120    1.8240 hc        1 HIB      0.062033
     18 H82        -2.4630    0.6610    2.1710 hc        1 HIB      0.062033
     19 H83        -2.8240    0.0730    0.4830 hc        1 HIB      0.062033
     20 H91         5.1720    0.8070    0.8260 h1        1 HIB      0.035033
     21 H92         3.9660    1.0410    2.1970 h1        1 HIB      0.035033
     22 H93         3.7790    1.9940    0.6410 h1        1 HIB      0.035033
     23 HX1         2.9810   -1.1080    4.8410 h1        1 HIB      0.061367
     24 HX2         1.3970   -1.8390    4.2400 h1        1 HIB      0.061367
     25 HX3         1.4380   -0.0950    4.8130 h1        1 HIB      0.061367
     26 HO2         2.6510    0.4250   -1.4890 ho        1 HIB      0.426000
@<TRIPOS>BOND
     1    1    2 ar  
     2    1    6 ar  
     3    1   16 1   
     4    2    3 ar  
     5    2   11 1   
     6    3    4 ar  
     7    3   12 1   
     8    4    5 ar  
     9    4   13 1   
    10    5    6 ar  
    11    5    7 1   
    12    6    8 1   
    13    7   14 1   
    14    7   15 1   
    15    8   17 1   
    16    8   18 1   
    17    8   19 1   
    18    9   12 1   
    19    9   20 1   
    20    9   21 1   
    21    9   22 1   
    22   10   13 1   
    23   10   23 1   
    24   10   24 1   
    25   10   25 1   
    26   11   26 1   
@<TRIPOS>SUBSTRUCTURE
     1 HIB         1 TEMP              0 ****  ****    0 ROOT
