@<TRIPOS>MOLECULE
HIB
   26    26     1     0     0
SMALL
bcc


@<TRIPOS>ATOM
      1 C1         -0.2260    0.1790   -0.1540 ca        1 HIB     -0.035100
      2 C2          1.1660    0.2140   -0.3150 ca        1 HIB      0.152100
      3 C3          2.0190   -0.0170    0.7770 ca        1 HIB     -0.061900
      4 C4          1.4820   -0.2830    2.0580 ca        1 HIB      0.188100
      5 C5          0.0920   -0.3040    2.2280 ca        1 HIB     -0.200600
      6 C6         -0.7480   -0.0780    1.1230 ca        1 HIB      0.032700
      7 C7         -0.5950   -0.5490    3.5720 c         1 HIB      0.914200
      8 C8         -2.2090   -0.1240    1.3880 c3        1 HIB     -0.078800
      9 C9          4.1060    1.0290    1.0870 c3        1 HIB      0.113700
     10 CX          2.0110   -0.8810    4.3220 c3        1 HIB      0.095700
     11 O2          1.6940    0.4690   -1.5630 oh        1 HIB     -0.506100
     12 O3          3.3850   -0.0610    0.5150 os        1 HIB     -0.343900
     13 O4          2.4430   -0.4690    3.0260 os        1 HIB     -0.344900
     14 O7         -0.9190   -1.7340    3.8620 o         1 HIB     -0.821800
     15 O8         -0.8150    0.4530    4.3080 o         1 HIB     -0.821800
     16 I1         -1.4420    0.5010   -1.7490 i         1 HIB     -0.181900
     17 H81        -2.4700   -1.1230    1.8250 hc        1 HIB      0.062033
     18 H82        -2.4660    0.6530    2.1540 hc        1 HIB      0.062033
     19 H83        -2.8200    0.0470    0.4710 hc        1 HIB      0.062033
     20 H91         5.1720    0.8120    0.8300 h1        1 HIB      0.035033
     21 H92         3.9610    1.0560    2.1940 h1        1 HIB      0.035033
     22 H93         3.7760    1.9930    0.6290 h1        1 HIB      0.035033
     23 HX1         2.9760   -1.0690    4.8580 h1        1 HIB      0.061367
     24 HX2         1.3960   -1.8120    4.2590 h1        1 HIB      0.061367
     25 HX3         1.4300   -0.0620    4.8150 h1        1 HIB      0.061367
     26 HO2         2.6590    0.3980   -1.4880 ho        1 HIB      0.426000
@<TRIPOS>BOND
     1    1    2 ar  
     2    1    6 ar  
     3    1   16 1   
     4    2    3 ar  
     5    2   11 1   
     6    3    4 ar  
     7    3   12 1   
     8    4    5 ar  
     9    4   13 1   
    10    5    6 ar  
    11    5    7 1   
    12    6    8 1   
    13    7   14 1   
    14    7   15 1   
    15    8   17 1   
    16    8   18 1   
    17    8   19 1   
    18    9   12 1   
    19    9   20 1   
    20    9   21 1   
    21    9   22 1   
    22   10   13 1   
    23   10   23 1   
    24   10   24 1   
    25   10   25 1   
    26   11   26 1   
@<TRIPOS>SUBSTRUCTURE
     1 HIB         1 TEMP              0 ****  ****    0 ROOT
