@<TRIPOS>MOLECULE
HIC
   22    22     1     0     0
SMALL
bcc


@<TRIPOS>ATOM
      1 N          -1.8430   -0.1760   -0.9500 n3        1 HIC     -0.900800
      2 CA         -0.4880    0.2680   -1.2540 c3        1 HIC      0.015500
      3 C          -0.1580    0.3310   -2.7850 c         1 HIC      0.890600
      4 O          -1.0740    0.0280   -3.6020 o         1 HIC     -0.841300
      5 CB          0.6040   -0.5600   -0.5720 c3        1 HIC     -0.097700
      6 CG          0.5800   -0.4740    0.9060 cc        1 HIC      0.333600
      7 ND1         1.4840   -1.1550    1.7420 nc        1 HIC     -0.677000
      8 CD2        -0.3030    0.2870    1.6980 cd        1 HIC     -0.238600
      9 CE1         1.1570   -0.8160    3.0030 cd        1 HIC      0.358400
     10 NE2         0.0710    0.0750    3.0310 na        1 HIC     -0.230900
     11 CZ         -0.5760    0.5890    4.1850 c3        1 HIC      0.038600
     12 OXT         1.0000    0.7060   -3.1160 o         1 HIC     -0.841300
     13 H          -1.8700   -1.1790   -0.9860 hn        1 HIC      0.333800
     14 H2         -2.4370    0.1510   -1.6960 hn        1 HIC      0.333800
     15 HA         -0.4140    1.3310   -0.8760 h1        1 HIC      0.040700
     16 HB2         1.5920   -0.1810   -0.9560 hc        1 HIC      0.068700
     17 HB3         0.5180   -1.6360   -0.8830 hc        1 HIC      0.068700
     18 HD2        -1.1390    0.9230    1.4120 h4        1 HIC      0.194000
     19 HE1         1.6570   -1.1610    3.9100 h5        1 HIC      0.038100
     20 HZ1        -1.1230    1.5340    3.9250 h1        1 HIC      0.037700
     21 HZ2        -1.3170   -0.1530    4.5910 h1        1 HIC      0.037700
     22 HZ3         0.1810    0.8100    4.9840 h1        1 HIC      0.037700
@<TRIPOS>BOND
     1    1    2 1   
     2    1   13 1   
     3    1   14 1   
     4    2    3 1   
     5    2    5 1   
     6    2   15 1   
     7    3    4 1   
     8    3   12 1   
     9    5    6 1   
    10    5   16 1   
    11    5   17 1   
    12    6    7 1   
    13    6    8 2   
    14    7    9 2   
    15    8   10 1   
    16    8   18 1   
    17    9   10 1   
    18    9   19 1   
    19   10   11 1   
    20   11   20 1   
    21   11   21 1   
    22   11   22 1   
@<TRIPOS>SUBSTRUCTURE
     1 HIC         1 TEMP              0 ****  ****    0 ROOT
