@<TRIPOS>MOLECULE
HID
   22    22     1     0     0
SMALL
bcc


@<TRIPOS>ATOM
      1 OAA         1.2190    1.5990    0.3140 o         1 HID     -0.552000
      2 OAB         0.9170   -0.6250    0.4200 o         1 HID     -0.552000
      3 CAD        -1.1010    3.0970   -4.5650 ca        1 HID     -0.090000
      4 CAE        -1.1920    1.8500   -5.0690 ca        1 HID     -0.147000
      5 CAF         0.9690   -1.3650   -2.9340 c1        1 HID     -0.047000
      6 CAG         0.3040    2.3210   -2.7260 ca        1 HID     -0.137000
      7 CAH         1.9980    0.2740   -1.5340 c3        1 HID     -0.227000
      8 NAI        -0.7630   -0.4860   -4.9590 n2        1 HID     -0.303000
      9 CAJ         1.3060    0.4300   -0.1450 c2        1 HID      0.346000
     10 CAK        -0.3560    3.3300   -3.3530 ca        1 HID     -0.016000
     11 CAL         0.9910   -0.0140   -2.6030 c2        1 HID     -0.014000
     12 CAM        -0.5570    0.6820   -4.4260 ca        1 HID      0.082000
     13 CAN         0.2720    0.9780   -3.2420 ca        1 HID     -0.181000
     14 HOAC        0.0210    4.6370   -2.0170 ho        1 HID      0.218000
     15 HAD        -1.5860    3.9600   -5.0430 ha        1 HID      0.128000
     16 HAE        -1.7670    1.6580   -5.9880 ha        1 HID      0.131000
     17 HAF        -0.3050   -1.2580   -4.5130 hn        1 HID      0.132000
     18 HAG         0.8290    2.4890   -1.7640 ha        1 HID      0.184000
     19 HAH         2.5560    1.2110   -1.7810 hc        1 HID      0.094000
     20 HAHA        2.7370   -0.5640   -1.4480 hc        1 HID      0.094000
     21 HNAI        0.5430   -2.1470   -2.3040 ha        1 HID      0.136000
     22 OAC        -0.3730    4.6390   -2.9010 oh        1 HID     -0.279000
@<TRIPOS>BOND
     1    1    9 1   
     2    2    9 1   
     3    3    4 1   
     4    3   10 1   
     5    3   15 1   
     6    4   12 1   
     7    4   16 1   
     8    5   11 1   
     9    5   21 1   
    10    6   10 1   
    11    6   13 1   
    12    6   18 1   
    13    7    9 1   
    14    7   11 1   
    15    7   19 1   
    16    7   20 1   
    17    8   12 1   
    18    8   17 1   
    19   10   22 1   
    20   11   13 1   
    21   12   13 1   
    22   14   22 1   
@<TRIPOS>SUBSTRUCTURE
     1 HID         1 TEMP              0 ****  ****    0 ROOT
