@<TRIPOS>MOLECULE
HID
   22    23     1     0     0
SMALL
bcc


@<TRIPOS>ATOM
      1 OAA         3.6500   -1.2990    0.0930 o         1 HID     -0.848800
      2 OAB         4.1270    0.8630    0.3530 o         1 HID     -0.848800
      3 CAD        -3.3030   -0.0020    0.1480 ca        1 HID     -0.161000
      4 CAE        -2.6540   -1.2060    0.3870 ca        1 HID     -0.125000
      5 CAF         0.9230   -1.8430    0.0940 cc        1 HID     -0.091100
      6 CAG        -1.1850    1.0990   -0.4450 ca        1 HID     -0.168000
      7 CAH         2.0170    0.3380   -0.6540 c3        1 HID     -0.141200
      8 NAI        -0.3730   -2.3420    0.3250 na        1 HID     -0.201400
      9 CAJ         3.3600   -0.0710   -0.0100 c         1 HID      0.916600
     10 CAK        -2.5700    1.1300   -0.2640 ca        1 HID      0.076100
     11 CAL         0.8780   -0.5000   -0.2710 cd        1 HID     -0.096400
     12 CAM        -1.2670   -1.2640    0.2170 ca        1 HID     -0.094200
     13 CAN        -0.5160   -0.0960   -0.2030 ca        1 HID     -0.047800
     14 HOAC       -2.6900    2.9810   -0.7150 ho        1 HID      0.408000
     15 HAD        -4.3890    0.0860    0.2760 ha        1 HID      0.129000
     16 HAE        -3.2230   -2.0900    0.7050 ha        1 HID      0.118000
     17 HAF         1.8240   -2.4680    0.1820 h4        1 HID      0.221000
     18 HAG        -0.6290    1.9910   -0.7640 ha        1 HID      0.137000
     19 HAH         1.8060    1.4080   -0.3920 hc        1 HID      0.035200
     20 HAHA        2.1610    0.2830   -1.7670 hc        1 HID      0.035200
     21 HNAI       -0.5520   -3.1160    0.9100 hn        1 HID      0.269700
     22 OAC        -3.3120    2.2790   -0.4810 oh        1 HID     -0.522100
@<TRIPOS>BOND
     1    1    9 1   
     2    2    9 1   
     3    3    4 ar  
     4    3   10 ar  
     5    3   15 1   
     6    4   12 ar  
     7    4   16 1   
     8    5    8 1   
     9    5   11 2   
    10    5   17 1   
    11    6   10 ar  
    12    6   13 ar  
    13    6   18 1   
    14    7    9 1   
    15    7   11 1   
    16    7   19 1   
    17    7   20 1   
    18    8   12 1   
    19    8   21 1   
    20   10   22 1   
    21   11   13 1   
    22   12   13 ar  
    23   14   22 1   
@<TRIPOS>SUBSTRUCTURE
     1 HID         1 TEMP              0 ****  ****    0 ROOT
