@<TRIPOS>MOLECULE
HID
   22    22     1     0     0
SMALL
bcc


@<TRIPOS>ATOM
      1 OAA         1.1410    1.7230    0.2360 o         1 HID     -0.551500
      2 OAB         1.0370   -0.4720    0.6800 o         1 HID     -0.551500
      3 CAD        -1.0220    3.1100   -4.5970 ca        1 HID     -0.088000
      4 CAE        -1.1930    1.8550   -5.0570 ca        1 HID     -0.151000
      5 CAF         0.7500   -1.4110   -2.8260 c1        1 HID     -0.023000
      6 CAG         0.2750    2.3060   -2.6900 ca        1 HID     -0.143000
      7 CAH         1.8940    0.1990   -1.4680 c3        1 HID     -0.219000
      8 NAI        -0.9880   -0.5020   -4.8070 n2        1 HID     -0.303000
      9 CAJ         1.2810    0.5060   -0.0690 c2        1 HID      0.351000
     10 CAK        -0.3030    3.3330   -3.3670 ca        1 HID     -0.014000
     11 CAL         0.8980   -0.0530   -2.5570 c2        1 HID     -0.033000
     12 CAM        -0.6710    0.6710   -4.3460 ca        1 HID      0.079000
     13 CAN         0.1820    0.9540   -3.1740 ca        1 HID     -0.165000
     14 HOAC        0.1120    4.6530   -2.0550 ho        1 HID      0.221000
     15 HAD        -1.4220    3.9880   -5.1240 ha        1 HID      0.129000
     16 HAE        -1.7500    1.6700   -5.9890 ha        1 HID      0.131000
     17 HAF        -0.6620   -1.2850   -4.2700 hn        1 HID      0.134000
     18 HAG         0.7880    2.4700   -1.7200 ha        1 HID      0.199000
     19 HAH         2.5250    1.0740   -1.7710 hc        1 HID      0.087500
     20 HAHA        2.5620   -0.6940   -1.3440 hc        1 HID      0.087500
     21 HNAI        1.4840   -2.0500   -3.3160 ha        1 HID      0.104000
     22 OAC        -0.2560    4.6520   -2.9510 oh        1 HID     -0.280000
@<TRIPOS>BOND
     1    1    9 1   
     2    2    9 1   
     3    3    4 1   
     4    3   10 1   
     5    3   15 1   
     6    4   12 1   
     7    4   16 1   
     8    5   11 1   
     9    5   21 1   
    10    6   10 1   
    11    6   13 1   
    12    6   18 1   
    13    7    9 1   
    14    7   11 1   
    15    7   19 1   
    16    7   20 1   
    17    8   12 1   
    18    8   17 1   
    19   10   22 1   
    20   11   13 1   
    21   12   13 1   
    22   14   22 1   
@<TRIPOS>SUBSTRUCTURE
     1 HID         1 TEMP              0 ****  ****    0 ROOT
