@<TRIPOS>MOLECULE
HIE
   61    61     1     0     0
SMALL
bcc


@<TRIPOS>ATOM
      1 C8          0.2830    0.5870    0.6170 c3        1 HIE     -0.010000
      2 C5         -1.4070    0.9270   -1.1540 c2        1 HIE      0.256000
      3 C6         -1.7940    0.9370   -2.5740 c2        1 HIE     -0.203000
      4 N1         -0.8250    1.5620   -4.7450 nt        1 HIE     -0.402000
      5 C2         -4.2000    1.1830   -1.9540 c3        1 HIE     -0.169000
      6 O2          0.2170   -0.0110   -3.4760 o         1 HIE     -0.370000
      7 N2         -0.1770    0.6130   -0.7700 n7        1 HIE     -0.145000
      8 N3         -4.7560    1.7420    0.3970 na        1 HIE     -0.118000
      9 C3         -3.7520    1.4160   -0.5400 c2        1 HIE      0.208000
     10 C4         -2.4370    1.2710   -0.1900 c2        1 HIE     -0.287000
     11 N4         -6.0430    1.3770    0.1540 n2        1 HIE     -0.033000
     12 C10        -1.3490   -2.0480    2.7370 c2        1 HIE     -0.229000
     13 C11         2.3480   -0.7820    0.3150 c2        1 HIE      0.105000
     14 C12         3.7980   -1.0600    0.4510 c3        1 HIE     -0.233000
     15 C13         1.7490    0.3630    0.7110 c2        1 HIE     -0.312000
     16 C14        -6.7840    1.7880    1.2060 c2        1 HIE     -0.128000
     17 C15        -5.9460    2.4690    2.1790 c2        1 HIE     -0.193000
     18 C16        -4.6480    2.4400    1.6360 c2        1 HIE      0.060000
     19 C19        -6.8730    2.2640    4.4160 c1        1 HIE      0.009000
     20 C1         -3.0960    1.0330   -2.9160 c2        1 HIE     -0.004000
     21 F1         -8.6520    0.2570    0.9730 f         1 HIE     -0.143000
     22 F2         -8.8850    1.8480    2.4290 f         1 HIE     -0.143000
     23 F3         -8.9680    2.3060    0.3030 f         1 HIE     -0.143000
     24 O3          1.5570   -1.7510   -0.2580 oh        1 HIE     -0.277000
     25 C7         -0.7310    0.7910   -3.6230 c2        1 HIE      0.343000
     26 C9         -1.2530   -2.6080    1.5380 c2        1 HIE     -0.229000
     27 C17        -3.4430    3.0470    2.2390 c3        1 HIE     -0.133000
     28 C18        -2.8020    4.1380    1.3870 c3        1 HIE     -0.099000
     29 C20        -6.3120    3.1290    3.4470 c2        1 HIE      0.231000
     30 C22        -1.4650    4.5210    1.9900 c3        1 HIE     -0.215500
     31 C23        -8.2940    1.5540    1.2280 c3        1 HIE      0.509000
     32 H8          0.0140    1.5680    1.1060 h1        1 HIE      0.128500
     33 HN1        -3.4130    0.9850   -3.9760 ha        1 HIE      0.176000
     34 HN1A       -1.5460    2.2250   -4.8660 hn        1 HIE      0.247500
     35 H2         -4.8470    0.2500   -1.9960 hc        1 HIE      0.186000
     36 HN2         0.5000    0.2950   -1.4580 hn        1 HIE      0.306000
     37 H4         -2.1190    1.3920    0.8610 ha        1 HIE      0.182000
     38 H10        -0.2680   -0.2540    1.1460 h1        1 HIE      0.128500
     39 H10A       -2.2800   -2.0480    3.3210 ha        1 HIE      0.115500
     40 H11        -0.4970   -1.5690    3.2400 ha        1 HIE      0.115500
     41 H12         4.3300   -0.1940    0.9160 hc        1 HIE      0.116667
     42 H12A        3.9560   -1.9620    1.0960 hc        1 HIE      0.116667
     43 H13         4.2480   -1.2580   -0.5550 hc        1 HIE      0.116667
     44 H13A        2.3420    1.1740    1.1560 ha        1 HIE      0.167000
     45 H19        -1.6000    4.9010    3.0320 hc        1 HIE      0.087000
     46 H19A       -7.9180    2.0900    4.6620 ha        1 HIE      0.166000
     47 H21        -3.9860    5.7160    2.3070 hc        1 HIE      0.087000
     48 H21A       -4.6480    5.0880    0.7460 hc        1 HIE      0.087000
     49 H21B       -3.1920    6.1710    0.7380 hc        1 HIE      0.087000
     50 H1         -4.8660    2.0330   -2.2950 hc        1 HIE      0.186000
     51 HO3         2.1070   -2.5230   -0.4650 ho        1 HIE      0.246000
     52 H9         -2.1000   -3.1090    1.0500 ha        1 HIE      0.115500
     53 H9A        -0.3150   -2.6280    0.9630 ha        1 HIE      0.115500
     54 H17        -3.7600    3.5100    3.2210 hc        1 HIE      0.127500
     55 H17A       -2.6920    2.2490    2.4900 hc        1 HIE      0.127500
     56 H22        -0.7800    3.6390    2.0190 hc        1 HIE      0.087000
     57 H22A       -2.6220    3.7360    0.3500 hc        1 HIE      0.064000
     58 H22B       -0.9860    5.3250    1.3810 hc        1 HIE      0.087000
     59 C21        -3.7070    5.3480    1.2880 c3        1 HIE     -0.215500
     60 O1         -5.9400    4.2940    3.6930 o         1 HIE     -0.304000
     61 H131       -0.1370    1.4650   -5.4560 hn        1 HIE      0.247500
@<TRIPOS>BOND
     1    1    7 1   
     2    1   15 1   
     3    1   32 1   
     4    1   38 1   
     5    2    3 1   
     6    2    7 1   
     7    2   10 1   
     8    3   20 1   
     9    3   25 1   
    10    4   25 1   
    11    4   34 1   
    12    4   61 1   
    13    5    9 1   
    14    5   20 1   
    15    5   35 1   
    16    5   50 1   
    17    6   25 1   
    18    7   36 1   
    19    8    9 1   
    20    8   11 1   
    21    8   18 1   
    22    9   10 1   
    23   10   37 1   
    24   11   16 1   
    25   12   26 1   
    26   12   39 1   
    27   12   40 1   
    28   13   14 1   
    29   13   15 1   
    30   13   24 1   
    31   14   41 1   
    32   14   42 1   
    33   14   43 1   
    34   15   44 1   
    35   16   17 1   
    36   16   31 1   
    37   17   18 1   
    38   17   29 1   
    39   18   27 1   
    40   19   29 1   
    41   19   46 1   
    42   20   33 1   
    43   21   31 1   
    44   22   31 1   
    45   23   31 1   
    46   24   51 1   
    47   26   52 1   
    48   26   53 1   
    49   27   28 1   
    50   27   54 1   
    51   27   55 1   
    52   28   30 1   
    53   28   57 1   
    54   28   59 1   
    55   29   60 1   
    56   30   45 1   
    57   30   56 1   
    58   30   58 1   
    59   47   59 1   
    60   48   59 1   
    61   49   59 1   
@<TRIPOS>SUBSTRUCTURE
     1 HIE         1 TEMP              0 ****  ****    0 ROOT
