@<TRIPOS>MOLECULE
HIE
   60    63     1     0     0
SMALL
bcc


@<TRIPOS>ATOM
      1 C8          3.5560    0.8910    0.1050 c3        1 HIE      0.206500
      2 C5          2.3770   -1.2610   -0.2360 ca        1 HIE      0.239600
      3 C6          2.4460   -2.6760   -0.3990 ca        1 HIE     -0.212600
      4 N1          3.8460   -4.3300   -1.5480 n         1 HIE     -0.667000
      5 C2          0.0320   -2.8700   -0.1690 ca        1 HIE     -0.170000
      6 O2          4.7700   -3.0710    0.0960 o         1 HIE     -0.627100
      7 N2          3.5210   -0.4830   -0.3630 nh        1 HIE     -0.735600
      8 N3         -1.3350   -0.8520    0.1440 na        1 HIE      0.175300
      9 C3         -0.0570   -1.4720   -0.0270 ca        1 HIE      0.068800
     10 C4          1.0990   -0.6800   -0.0420 ca        1 HIE     -0.224000
     11 N4         -2.3140   -1.4050    0.8860 nc        1 HIE     -0.447800
     12 C10         3.3690    2.5090    2.0160 c3        1 HIE     -0.089400
     13 C11         4.6060    3.2600    1.5320 c3        1 HIE      0.139100
     14 C12         4.8330    3.0420    0.0390 c3        1 HIE     -0.089400
     15 C13         4.8700    1.5740   -0.3210 c3        1 HIE     -0.095400
     16 C14        -3.3960   -0.5820    0.8020 cd        1 HIE      0.278600
     17 C15        -3.0930    0.5510   -0.0420 cd        1 HIE     -0.303900
     18 C16        -1.7540    0.3480   -0.4500 cc        1 HIE     -0.030600
     19 C19        -3.0780    2.7070   -1.2840 c3        1 HIE     -0.173400
     20 C1          1.2840   -3.4450   -0.3500 ca        1 HIE     -0.056000
     21 F1         -4.7100   -1.9470    2.3440 f         1 HIE     -0.223300
     22 F2         -5.1330    0.1740    2.3090 f         1 HIE     -0.223300
     23 F3         -5.7550   -1.0970    0.6500 f         1 HIE     -0.223300
     24 O3          5.7030    2.7980    2.3110 oh        1 HIE     -0.595800
     25 C7          3.7600   -3.3550   -0.5850 c         1 HIE      0.681700
     26 C9          3.4020    1.0480    1.6280 c3        1 HIE     -0.095400
     27 C17        -1.0080    1.2570   -1.3410 c3        1 HIE     -0.020100
     28 C18        -1.9810    2.1130   -2.1670 c3        1 HIE     -0.040000
     29 C20        -3.8690    1.6950   -0.4910 c         1 HIE      0.609700
     30 C22        -2.6010    1.2710   -3.2730 c3        1 HIE     -0.093600
     31 C23        -4.7130   -0.8570    1.5090 c3        1 HIE      0.633600
     32 H8          2.7070    1.4430   -0.4000 h1        1 HIE      0.049700
     33 HN1         3.0760   -4.5500   -2.1230 hn        1 HIE      0.316000
     34 HN1A        4.7060   -4.8000   -1.6890 hn        1 HIE      0.316000
     35 H2         -0.8640   -3.5080   -0.1260 ha        1 HIE      0.165000
     36 HN2         4.3830   -0.9750   -0.2130 hn        1 HIE      0.442800
     37 H4          1.0140    0.4070    0.1170 ha        1 HIE      0.150000
     38 H10         3.3100    2.5910    3.1330 hc        1 HIE      0.050200
     39 H10A        2.4650    3.0070    1.5800 hc        1 HIE      0.050200
     40 H11         4.4710    4.3640    1.7250 h1        1 HIE      0.033700
     41 H12         4.0110    3.5540   -0.5250 hc        1 HIE      0.050200
     42 H12A        5.8020    3.5190   -0.2650 hc        1 HIE      0.050200
     43 H13         5.7350    1.0860    0.2040 hc        1 HIE      0.059950
     44 H13A        5.0240    1.4620   -1.4250 hc        1 HIE      0.059950
     45 H19        -2.6150    3.4170   -0.5440 hc        1 HIE      0.077200
     46 H19A       -3.7850    3.2980   -1.9250 hc        1 HIE      0.077200
     47 H21        -0.7460    3.9070   -2.0070 hc        1 HIE      0.043367
     48 H21A       -0.3710    2.8500   -3.4340 hc        1 HIE      0.043367
     49 H21B       -1.8650    3.8780   -3.4330 hc        1 HIE      0.043367
     50 H1          1.3490   -4.5420   -0.4410 ha        1 HIE      0.144000
     51 HO3         6.4980    3.2000    1.9420 ho        1 HIE      0.400000
     52 H9          2.4590    0.5480    1.9700 hc        1 HIE      0.059950
     53 H9A         4.2650    0.5510    2.1450 hc        1 HIE      0.059950
     54 H17        -0.3650    1.9350   -0.7130 hc        1 HIE      0.070200
     55 H17A       -0.3300    0.6850   -2.0280 hc        1 HIE      0.070200
     56 H22        -3.2960    1.8940   -3.8870 hc        1 HIE      0.043367
     57 H22A       -1.8070    0.8610   -3.9410 hc        1 HIE      0.043367
     58 H22B       -3.1780    0.4210   -2.8350 hc        1 HIE      0.043367
     59 C21        -1.1920    3.2550   -2.7960 c3        1 HIE     -0.093600
     60 O1         -5.0650    1.8620   -0.2390 o         1 HIE     -0.513100
@<TRIPOS>BOND
     1    1    7 1   
     2    1   15 1   
     3    1   26 1   
     4    1   32 1   
     5    2    3 ar  
     6    2    7 1   
     7    2   10 ar  
     8    3   20 ar  
     9    3   25 1   
    10    4   25 1   
    11    4   33 1   
    12    4   34 1   
    13    5    9 ar  
    14    5   20 ar  
    15    5   35 1   
    16    6   25 2   
    17    7   36 1   
    18    8    9 1   
    19    8   11 1   
    20    8   18 1   
    21    9   10 ar  
    22   10   37 1   
    23   11   16 2   
    24   12   13 1   
    25   12   26 1   
    26   12   38 1   
    27   12   39 1   
    28   13   14 1   
    29   13   24 1   
    30   13   40 1   
    31   14   15 1   
    32   14   41 1   
    33   14   42 1   
    34   15   43 1   
    35   15   44 1   
    36   16   17 1   
    37   16   31 1   
    38   17   18 2   
    39   17   29 1   
    40   18   27 1   
    41   19   28 1   
    42   19   29 1   
    43   19   45 1   
    44   19   46 1   
    45   20   50 1   
    46   21   31 1   
    47   22   31 1   
    48   23   31 1   
    49   24   51 1   
    50   26   52 1   
    51   26   53 1   
    52   27   28 1   
    53   27   54 1   
    54   27   55 1   
    55   28   30 1   
    56   28   59 1   
    57   29   60 2   
    58   30   56 1   
    59   30   57 1   
    60   30   58 1   
    61   47   59 1   
    62   48   59 1   
    63   49   59 1   
@<TRIPOS>SUBSTRUCTURE
     1 HIE         1 TEMP              0 ****  ****    0 ROOT
