@<TRIPOS>MOLECULE
HIE
   60    60     1     0     0
SMALL
bcc


@<TRIPOS>ATOM
      1 C8         -0.1790   -1.1160    0.0320 c3        1 HIE      0.004000
      2 C5         -1.7660   -0.5910   -1.7610 c2        1 HIE      0.093000
      3 C6         -2.1050   -0.4540   -3.0950 c2        1 HIE     -0.352000
      4 N1         -1.7800   -1.1130   -5.4400 n         1 HIE     -0.436000
      5 C2         -3.9750    0.9050   -2.3520 c1        1 HIE     -0.115000
      6 O2         -0.0120   -1.1570   -4.0440 o         1 HIE     -0.427000
      7 N2         -0.6880   -1.3430   -1.3120 n3        1 HIE     -0.278000
      8 N3         -5.0210    2.2390   -0.4380 na        1 HIE     -0.017000
      9 C3         -4.4780    1.5420   -1.4600 c1        1 HIE      0.007000
     10 C4         -2.5580    0.0790   -0.7450 c1        1 HIE     -0.046000
     11 N4         -6.3190    2.1470   -0.0700 n2        1 HIE      0.003000
     12 C10         0.3430   -3.5530    0.4740 c3        1 HIE     -0.210000
     13 C11         1.7140    0.5430    2.3800 c2        1 HIE      0.000000
     14 C12         0.5630    0.5990    1.6910 c2        1 HIE     -0.294000
     15 C13         0.3940    0.3010    0.2530 c3        1 HIE     -0.154000
     16 C14        -6.4710    2.9840    0.9860 c2        1 HIE     -0.151000
     17 C15        -5.2130    3.6330    1.3210 c2        1 HIE     -0.198000
     18 C16        -4.2870    3.1350    0.3930 c2        1 HIE      0.036000
     19 C19        -3.8980    4.2900    3.3130 c2        1 HIE     -0.275000
     20 C1         -3.3800    0.2250   -3.4670 c3        1 HIE      0.019000
     21 F1         -8.5180    2.0030    1.8540 f         1 HIE     -0.151333
     22 F2         -7.7460    3.7170    2.9230 f         1 HIE     -0.151333
     23 F3         -8.6770    3.9810    0.9740 f         1 HIE     -0.151333
     24 O3          2.9390    0.1670    1.9010 oh        1 HIE     -0.260000
     25 C7         -1.2390   -0.9270   -4.1870 c2        1 HIE      0.377000
     26 C9          0.8930   -2.1550    0.3980 c3        1 HIE     -0.164000
     27 C17        -2.8540    3.4090    0.2130 c3        1 HIE     -0.194000
     28 C18        -3.5090    5.0750    4.3380 c2        1 HIE      0.011000
     29 C20        -4.9720    4.6270    2.3750 c2        1 HIE      0.331000
     30 C22        -4.1200    6.3920    4.6260 c3        1 HIE     -0.205500
     31 C23        -7.8190    3.1700    1.6690 c3        1 HIE      0.513000
     32 H8         -1.0560   -1.2460    0.7400 h1        1 HIE      0.097000
     33 HN1        -2.7480   -1.0350   -5.6030 hn        1 HIE      0.222000
     34 HN1A       -1.1980   -1.4520   -6.1650 hn        1 HIE      0.222000
     35 H2         -4.1230   -0.5300   -3.8590 hc        1 HIE      0.110500
     36 HN2         0.0160   -1.5450   -2.0000 hn        1 HIE      0.249000
     37 H4         -3.2990   -0.5040   -0.1830 ha        1 HIE      0.096000
     38 H10        -0.5180   -3.6010    1.1840 hc        1 HIE      0.079333
     39 H10A       -0.0090   -3.9030   -0.5270 hc        1 HIE      0.079333
     40 H11         1.1350   -4.2550    0.8320 hc        1 HIE      0.079333
     41 H12        -0.3540    0.9040    2.2190 ha        1 HIE      0.135000
     42 H12A        1.8100    0.8060    3.4480 h4        1 HIE      0.163000
     43 H13        -0.3210    1.0560   -0.1820 hc        1 HIE      0.098500
     44 H13A        1.3600    0.4010   -0.3080 hc        1 HIE      0.098500
     45 H19        -3.4180    3.3110    3.1480 ha        1 HIE      0.136000
     46 H19A       -2.4430    3.8690    1.1470 hc        1 HIE      0.120000
     47 H21        -2.0090    3.6490    4.9800 hc        1 HIE      0.097833
     48 H21A       -2.8150    4.5940    6.3030 hc        1 HIE      0.097833
     49 H21B       -1.5920    5.3980    5.2330 hc        1 HIE      0.097833
     50 H1         -3.1910    0.9770   -4.2880 hc        1 HIE      0.110500
     51 HO3         2.8560   -0.0910    0.9710 ho        1 HIE      0.217000
     52 H9          1.7340   -2.1140   -0.3440 hc        1 HIE      0.091000
     53 H9A         1.3150   -1.8590    1.3970 hc        1 HIE      0.091000
     54 H17        -2.2920    2.4610   -0.0130 hc        1 HIE      0.120000
     55 H17A       -2.7000    4.1220   -0.6360 hc        1 HIE      0.120000
     56 H22        -3.6370    6.8860    5.5030 hc        1 HIE      0.097833
     57 H22A       -4.0320    7.0630    3.7330 hc        1 HIE      0.097833
     58 H22B       -5.2150    6.2690    4.8330 hc        1 HIE      0.097833
     59 C21        -2.4240    4.6490    5.2560 c3        1 HIE     -0.205500
     60 O1         -5.6470    5.6630    2.4410 o         1 HIE     -0.279000
@<TRIPOS>BOND
     1    1    7 1   
     2    1   15 1   
     3    1   26 1   
     4    1   32 1   
     5    2    3 1   
     6    2    7 1   
     7    2   10 1   
     8    3   20 1   
     9    3   25 1   
    10    4   25 1   
    11    4   33 1   
    12    4   34 1   
    13    5    9 1   
    14    5   20 1   
    15    6   25 1   
    16    7   36 1   
    17    8    9 1   
    18    8   11 1   
    19    8   18 1   
    20   10   37 1   
    21   11   16 1   
    22   12   26 1   
    23   12   38 1   
    24   12   39 1   
    25   12   40 1   
    26   13   14 1   
    27   13   24 1   
    28   13   42 1   
    29   14   15 1   
    30   14   41 1   
    31   15   43 1   
    32   15   44 1   
    33   16   17 1   
    34   16   31 1   
    35   17   18 1   
    36   17   29 1   
    37   18   27 1   
    38   19   28 1   
    39   19   29 1   
    40   19   45 1   
    41   20   35 1   
    42   20   50 1   
    43   21   31 1   
    44   22   31 1   
    45   23   31 1   
    46   24   51 1   
    47   26   52 1   
    48   26   53 1   
    49   27   46 1   
    50   27   54 1   
    51   27   55 1   
    52   28   30 1   
    53   28   59 1   
    54   29   60 1   
    55   30   56 1   
    56   30   57 1   
    57   30   58 1   
    58   47   59 1   
    59   48   59 1   
    60   49   59 1   
@<TRIPOS>SUBSTRUCTURE
     1 HIE         1 TEMP              0 ****  ****    0 ROOT
