@<TRIPOS>MOLECULE
HIE
   61    61     1     0     0
SMALL
bcc


@<TRIPOS>ATOM
      1 C8          0.4190    0.0070   -0.6490 c3        1 HIE     -0.042000
      2 C5         -1.6350    0.5930   -1.9470 c2        1 HIE      0.288000
      3 C6         -2.2420    0.9200   -3.2260 c2        1 HIE     -0.376000
      4 N1         -3.3160    0.9710   -6.4660 n3        1 HIE     -0.439000
      5 C2         -4.3930    0.7110   -2.0990 c1        1 HIE      0.084000
      6 O2         -0.8640    1.6830   -5.1910 o         1 HIE     -0.018000
      7 N2         -0.3300    0.2900   -1.8810 n3        1 HIE     -0.224000
      8 N3         -4.5200    1.6810    0.1540 na        1 HIE     -0.099000
      9 C3         -3.7770    1.1090   -0.8780 c2        1 HIE      0.166000
     10 C4         -2.4580    0.6590   -0.7640 c2        1 HIE     -0.324000
     11 N4         -5.8780    1.7780    0.0590 n2        1 HIE      0.010000
     12 C10        -1.0840   -0.6630    3.2560 c2        1 HIE     -0.302000
     13 C11         0.1330   -0.7000    3.8100 c2        1 HIE     -0.015000
     14 C12         2.8660    0.1170    0.0570 c3        1 HIE     -0.281000
     15 C13         1.8520    0.1990   -0.9490 c1        1 HIE     -0.064000
     16 C14        -6.3190    2.3080    1.2150 c2        1 HIE     -0.116000
     17 C15        -5.1980    2.5820    2.1110 c2        1 HIE     -0.185000
     18 C16        -4.0530    2.1850    1.4100 c2        1 HIE      0.027000
     19 C19        -4.1050    2.6890    4.3490 c3        1 HIE     -0.202000
     20 C1         -3.7220    0.7700   -3.3700 c3        1 HIE     -0.110000
     21 F1         -8.6660    1.8690    0.7200 f         1 HIE     -0.137333
     22 F2         -8.1650    2.3040    2.7840 f         1 HIE     -0.137333
     23 F3         -8.1360    3.8980    1.2870 f         1 HIE     -0.137333
     24 O3          1.2400   -0.6980    2.9840 oh        1 HIE     -0.298000
     25 C7         -1.5170    1.3180   -4.2880 c1        1 HIE      0.404000
     26 C9          0.1690   -1.4080   -0.1160 c3        1 HIE     -0.237000
     27 C17        -2.6390    2.3190    1.8200 c3        1 HIE     -0.118000
     28 C18        -2.3450    3.5530    2.6690 c3        1 HIE     -0.100000
     29 C20        -5.2280    3.1480    3.4620 c2        1 HIE      0.292000
     30 C22        -2.8180    3.4480    4.1120 c3        1 HIE     -0.152000
     31 C23        -7.7960    2.5890    1.4970 c3        1 HIE      0.513000
     32 H8          0.0810    0.7570    0.1370 h1        1 HIE      0.135000
     33 HN1        -3.6350    0.0390   -6.6420 hn        1 HIE      0.148333
     34 HN1A       -4.0780    1.6000   -6.6200 hn        1 HIE      0.148333
     35 H2         -3.9550   -0.1790   -3.9450 hc        1 HIE      0.188500
     36 HN2         0.2350    0.2910   -2.7120 hn        1 HIE      0.266000
     37 H4         -2.0340    0.3710    0.2100 ha        1 HIE      0.181000
     38 H10         0.6670   -1.4970    0.8850 hc        1 HIE      0.114000
     39 H10A       -1.9890   -0.6540    3.8740 ha        1 HIE      0.121500
     40 H11        -1.2340   -0.6650    2.1700 ha        1 HIE      0.121500
     41 H12         0.3260   -0.7220    4.8930 h4        1 HIE      0.145000
     42 H12A        2.5250   -0.0930    1.1050 hc        1 HIE      0.139667
     43 H13         3.4460    1.0840    0.0420 hc        1 HIE      0.139667
     44 H13A        3.5970   -0.6830   -0.2600 hc        1 HIE      0.139667
     45 H19        -4.4140    2.8320    5.4220 hc        1 HIE      0.115000
     46 H19A       -3.9410    1.5910    4.1860 hc        1 HIE      0.115000
     47 H21        -3.9590    4.8800    2.0400 hc        1 HIE      0.087667
     48 H21A       -2.4350    5.7160    2.5430 hc        1 HIE      0.087667
     49 H21B       -2.5110    4.8670    0.9450 hc        1 HIE      0.087667
     50 H1         -4.1880    1.6100   -3.9740 hc        1 HIE      0.188500
     51 HO3         2.0190   -0.8360    3.5400 ho        1 HIE      0.230000
     52 H9         -0.9230   -1.6010    0.0110 hc        1 HIE      0.114000
     53 H9A         0.5890   -2.1790   -0.8050 hc        1 HIE      0.114000
     54 H17        -2.3440    1.3960    2.3990 hc        1 HIE      0.106500
     55 H17A       -1.9790    2.3820    0.9100 hc        1 HIE      0.106500
     56 H22        -2.9290    4.4880    4.5240 hc        1 HIE      0.101500
     57 H22A       -1.2160    3.6230    2.7110 hc        1 HIE      0.097000
     58 H22B       -2.0160    2.9400    4.7150 hc        1 HIE      0.101500
     59 C21        -2.8430    4.8230    2.0100 c3        1 HIE     -0.222000
     60 O1         -6.1110    3.9200    3.8360 o         1 HIE     -0.235000
     61 H131       -2.5900    1.1860   -7.1210 hn        1 HIE      0.148333
@<TRIPOS>BOND
     1    1    7 1   
     2    1   15 1   
     3    1   26 1   
     4    1   32 1   
     5    2    3 1   
     6    2    7 1   
     7    2   10 1   
     8    3   20 1   
     9    3   25 1   
    10    4   33 1   
    11    4   34 1   
    12    4   61 1   
    13    5    9 1   
    14    5   20 1   
    15    6   25 1   
    16    7   36 1   
    17    8    9 1   
    18    8   11 1   
    19    8   18 1   
    20    9   10 1   
    21   10   37 1   
    22   11   16 1   
    23   12   13 1   
    24   12   39 1   
    25   12   40 1   
    26   13   24 1   
    27   13   41 1   
    28   14   15 1   
    29   14   42 1   
    30   14   43 1   
    31   14   44 1   
    32   16   17 1   
    33   16   31 1   
    34   17   18 1   
    35   17   29 1   
    36   18   27 1   
    37   19   29 1   
    38   19   30 1   
    39   19   45 1   
    40   19   46 1   
    41   20   35 1   
    42   20   50 1   
    43   21   31 1   
    44   22   31 1   
    45   23   31 1   
    46   24   51 1   
    47   26   38 1   
    48   26   52 1   
    49   26   53 1   
    50   27   28 1   
    51   27   54 1   
    52   27   55 1   
    53   28   30 1   
    54   28   57 1   
    55   28   59 1   
    56   29   60 1   
    57   30   56 1   
    58   30   58 1   
    59   47   59 1   
    60   48   59 1   
    61   49   59 1   
@<TRIPOS>SUBSTRUCTURE
     1 HIE         1 TEMP              0 ****  ****    0 ROOT
