@<TRIPOS>MOLECULE
HIG
   58    63     1     0     0
SMALL
bcc


@<TRIPOS>ATOM
      1 N1          0.0390   -0.0920    0.0640 na        1 HIG     -0.268000
      2 C2         -0.7080   -0.1150   -1.1630 c3        1 HIG      0.114300
      3 C3          1.4440   -0.0890    0.1960 ca        1 HIG      0.413800
      4 C4         -0.4810   -0.0640    1.3890 cc        1 HIG      0.420800
      5 C5         -0.4680   -1.3360   -2.0250 ca        1 HIG     -0.098300
      6 C6         -0.4310    1.0880   -2.1170 c3        1 HIG     -0.087400
      7 C7          1.7020   -0.0630    1.6340 ca        1 HIG     -0.047900
      8 N8          2.4020   -0.1080   -0.7700 nb        1 HIG     -0.673000
      9 N9          0.4850   -0.0470    2.3310 nd        1 HIG     -0.556100
     10 C10        -1.9480   -0.0580    1.6850 c3        1 HIG     -0.096700
     11 C11        -0.2040   -0.9640   -3.3600 ca        1 HIG     -0.060300
     12 C12        -0.5100   -2.6710   -1.6570 ca        1 HIG     -0.103000
     13 C13        -0.1930    0.5180   -3.5190 c3        1 HIG     -0.036100
     14 C14         3.0410   -0.0570    2.0640 ca        1 HIG      0.024700
     15 C15         3.6710   -0.1000   -0.3080 ca        1 HIG      0.437600
     16 C16        -2.5460   -1.4360    1.5400 c3        1 HIG     -0.099100
     17 C17         0.0140   -1.9290   -4.3310 ca        1 HIG     -0.108000
     18 C18        -0.2890   -3.6470   -2.6350 ca        1 HIG     -0.137000
     19 C19         4.0160   -0.0770    1.0730 ca        1 HIG     -0.275300
     20 C20         3.3780   -0.0310    3.5030 c3        1 HIG     -0.056800
     21 C21         4.7910   -0.1360   -1.3000 c3        1 HIG     -0.154400
     22 C22        -0.0270   -3.2850   -3.9620 cp        1 HIG     -0.067000
     23 C23         0.1650   -4.3270   -4.9770 cp        1 HIG     -0.021000
     24 C24         1.4330   -4.7080   -5.4540 ca        1 HIG     -0.123500
     25 C25        -0.9770   -4.9580   -5.4910 ca        1 HIG     -0.122000
     26 C26         2.6710   -4.1140   -4.9690 cc        1 HIG      0.443000
     27 C27         1.5320   -5.7040   -6.4410 ca        1 HIG     -0.084000
     28 C28        -0.8700   -5.9440   -6.4670 ca        1 HIG     -0.110000
     29 N29         2.8720   -3.4410   -3.7460 na        1 HIG     -0.162400
     30 N30         3.9090   -4.1110   -5.5720 nd        1 HIG     -0.378000
     31 C31         0.3870   -6.3160   -6.9440 ca        1 HIG     -0.132000
     32 N32         4.1570   -3.0770   -3.6760 nc        1 HIG     -0.200800
     33 N33         4.7370   -3.4820   -4.7500 nd        1 HIG     -0.055000
     34 H2         -1.8040   -0.1020   -0.8790 h1        1 HIG      0.073700
     35 H6         -1.3160    1.7700   -2.1100 hc        1 HIG      0.064200
     36 H6A         0.4610    1.6760   -1.7860 hc        1 HIG      0.064200
     37 H10        -2.4680    0.6690    1.0050 hc        1 HIG      0.068200
     38 H10A       -2.1000    0.3080    2.7380 hc        1 HIG      0.068200
     39 H12        -0.7100   -2.9660   -0.6160 ha        1 HIG      0.146000
     40 H13        -0.9960    0.8460   -4.2270 hc        1 HIG      0.064700
     41 H13A        0.7890    0.8650   -3.9290 hc        1 HIG      0.064700
     42 H16        -3.6400   -1.3980    1.7640 hc        1 HIG      0.043700
     43 H16A       -2.0630   -2.1510    2.2480 hc        1 HIG      0.043700
     44 H16B       -2.4110   -1.8250    0.5010 hc        1 HIG      0.043700
     45 H17         0.2180   -1.6440   -5.3730 ha        1 HIG      0.150000
     46 H18        -0.3280   -4.7120   -2.3580 ha        1 HIG      0.144000
     47 H19         5.0800   -0.0750    1.3510 ha        1 HIG      0.144000
     48 H20         4.4840   -0.0330    3.6610 hc        1 HIG      0.054367
     49 H20A        2.9400   -0.9240    4.0150 hc        1 HIG      0.054367
     50 H20B        2.9470    0.8850    3.9800 hc        1 HIG      0.054367
     51 H21         5.7070    0.3260   -0.8570 hc        1 HIG      0.058700
     52 H21A        4.5330    0.4130   -2.2390 hc        1 HIG      0.058700
     53 H21B        5.0170   -1.1990   -1.5680 hc        1 HIG      0.058700
     54 H25        -1.9680   -4.6610   -5.1150 ha        1 HIG      0.143000
     55 H27         2.5210   -6.0040   -6.8230 ha        1 HIG      0.163000
     56 H28        -1.7760   -6.4280   -6.8610 ha        1 HIG      0.139000
     57 H31         0.4780   -7.0930   -7.7170 ha        1 HIG      0.142000
     58 HN29        2.2010   -3.2000   -3.0470 hn        1 HIG      0.349700
@<TRIPOS>BOND
     1    1    2 1   
     2    1    3 1   
     3    1    4 1   
     4    2    5 1   
     5    2    6 1   
     6    2   34 1   
     7    3    7 ar  
     8    3    8 ar  
     9    4    9 2   
    10    4   10 1   
    11    5   11 ar  
    12    5   12 ar  
    13    6   13 1   
    14    6   35 1   
    15    6   36 1   
    16    7    9 1   
    17    7   14 ar  
    18    8   15 ar  
    19   10   16 1   
    20   10   37 1   
    21   10   38 1   
    22   11   13 1   
    23   11   17 ar  
    24   12   18 ar  
    25   12   39 1   
    26   13   40 1   
    27   13   41 1   
    28   14   19 ar  
    29   14   20 1   
    30   15   19 ar  
    31   15   21 1   
    32   16   42 1   
    33   16   43 1   
    34   16   44 1   
    35   17   22 ar  
    36   17   45 1   
    37   18   22 ar  
    38   18   46 1   
    39   19   47 1   
    40   20   48 1   
    41   20   49 1   
    42   20   50 1   
    43   21   51 1   
    44   21   52 1   
    45   21   53 1   
    46   22   23 1   
    47   23   24 ar  
    48   23   25 ar  
    49   24   26 1   
    50   24   27 ar  
    51   25   28 ar  
    52   25   54 1   
    53   26   29 1   
    54   26   30 2   
    55   27   31 ar  
    56   27   55 1   
    57   28   31 ar  
    58   28   56 1   
    59   29   32 1   
    60   29   58 1   
    61   30   33 1   
    62   31   57 1   
    63   32   33 2   
@<TRIPOS>SUBSTRUCTURE
     1 HIG         1 TEMP              0 ****  ****    0 ROOT
