@<TRIPOS>MOLECULE
HIG
   58    63     1     0     0
SMALL
bcc


@<TRIPOS>ATOM
      1 N1          0.0370   -0.0960    0.0670 na        1 HIG     -0.268000
      2 C2         -0.7120   -0.1210   -1.1590 c3        1 HIG      0.114300
      3 C3          1.4420   -0.0890    0.1960 ca        1 HIG      0.413800
      4 C4         -0.4810   -0.0720    1.3930 cc        1 HIG      0.420800
      5 C5         -0.4700   -1.3410   -2.0220 ca        1 HIG     -0.098300
      6 C6         -0.4420    1.0840   -2.1120 c3        1 HIG     -0.087400
      7 C7          1.7020   -0.0630    1.6330 ca        1 HIG     -0.047900
      8 N8          2.3980   -0.1030   -0.7710 nb        1 HIG     -0.673000
      9 N9          0.4870   -0.0520    2.3330 nd        1 HIG     -0.556100
     10 C10        -1.9470   -0.0710    1.6920 c3        1 HIG     -0.096700
     11 C11        -0.2090   -0.9660   -3.3570 ca        1 HIG     -0.060300
     12 C12        -0.5070   -2.6760   -1.6550 ca        1 HIG     -0.103000
     13 C13        -0.2040    0.5160   -3.5150 c3        1 HIG     -0.036100
     14 C14         3.0430   -0.0530    2.0620 ca        1 HIG      0.024700
     15 C15         3.6680   -0.0920   -0.3120 ca        1 HIG      0.437600
     16 C16        -2.5410   -1.4510    1.5460 c3        1 HIG     -0.099100
     17 C17         0.0100   -1.9290   -4.3300 ca        1 HIG     -0.108000
     18 C18        -0.2840   -3.6510   -2.6350 ca        1 HIG     -0.137000
     19 C19         4.0160   -0.0690    1.0690 ca        1 HIG     -0.275300
     20 C20         3.3820   -0.0270    3.4990 c3        1 HIG     -0.056800
     21 C21         4.7870   -0.1230   -1.3060 c3        1 HIG     -0.154400
     22 C22        -0.0260   -3.2860   -3.9620 cp        1 HIG     -0.067000
     23 C23         0.1680   -4.3260   -4.9790 cp        1 HIG     -0.021000
     24 C24         1.4360   -4.7040   -5.4570 ca        1 HIG     -0.123500
     25 C25        -0.9730   -4.9590   -5.4920 ca        1 HIG     -0.122000
     26 C26         2.6730   -4.1070   -4.9720 cc        1 HIG      0.443000
     27 C27         1.5370   -5.6980   -6.4450 ca        1 HIG     -0.084000
     28 C28        -0.8640   -5.9440   -6.4700 ca        1 HIG     -0.110000
     29 N29         2.8730   -3.4360   -3.7490 na        1 HIG     -0.162400
     30 N30         3.9100   -4.1010   -5.5770 nd        1 HIG     -0.378000
     31 C31         0.3930   -6.3120   -6.9480 ca        1 HIG     -0.132000
     32 N32         4.1570   -3.0680   -3.6800 nc        1 HIG     -0.200800
     33 N33         4.7380   -3.4710   -4.7550 nd        1 HIG     -0.055000
     34 H2         -1.8080   -0.1120   -0.8720 h1        1 HIG      0.073700
     35 H6         -1.3290    1.7620   -2.1030 hc        1 HIG      0.063700
     36 H6A         0.4490    1.6740   -1.7820 hc        1 HIG      0.063700
     37 H10        -2.0990    0.2930    2.7450 hc        1 HIG      0.068200
     38 H10A       -2.4710    0.6550    1.0140 hc        1 HIG      0.068200
     39 H12        -0.7040   -2.9730   -0.6140 ha        1 HIG      0.146000
     40 H13        -1.0100    0.8420   -4.2210 hc        1 HIG      0.064700
     41 H13A        0.7770    0.8660   -3.9270 hc        1 HIG      0.064700
     42 H16        -2.0540   -2.1640    2.2540 hc        1 HIG      0.043700
     43 H16A       -2.4060   -1.8390    0.5070 hc        1 HIG      0.043700
     44 H16B       -3.6340   -1.4170    1.7730 hc        1 HIG      0.043700
     45 H17         0.2110   -1.6430   -5.3720 ha        1 HIG      0.150000
     46 H18        -0.3190   -4.7160   -2.3590 ha        1 HIG      0.144000
     47 H19         5.0800   -0.0640    1.3440 ha        1 HIG      0.144000
     48 H20         2.9490    0.8870    3.9790 hc        1 HIG      0.054367
     49 H20A        2.9480   -0.9220    4.0120 hc        1 HIG      0.054367
     50 H20B        4.4880   -0.0250    3.6560 hc        1 HIG      0.054367
     51 H21         4.5250    0.4250   -2.2440 hc        1 HIG      0.058700
     52 H21A        5.7010    0.3430   -0.8650 hc        1 HIG      0.058700
     53 H21B        5.0160   -1.1850   -1.5740 hc        1 HIG      0.058700
     54 H25        -1.9650   -4.6650   -5.1150 ha        1 HIG      0.143000
     55 H27         2.5270   -5.9960   -6.8280 ha        1 HIG      0.163000
     56 H28        -1.7700   -6.4290   -6.8640 ha        1 HIG      0.139000
     57 H31         0.4850   -7.0880   -7.7220 ha        1 HIG      0.142000
     58 HN29        2.2020   -3.1960   -3.0500 hn        1 HIG      0.349700
@<TRIPOS>BOND
     1    1    2 1   
     2    1    3 1   
     3    1    4 1   
     4    2    5 1   
     5    2    6 1   
     6    2   34 1   
     7    3    7 ar  
     8    3    8 ar  
     9    4    9 2   
    10    4   10 1   
    11    5   11 ar  
    12    5   12 ar  
    13    6   13 1   
    14    6   35 1   
    15    6   36 1   
    16    7    9 1   
    17    7   14 ar  
    18    8   15 ar  
    19   10   16 1   
    20   10   37 1   
    21   10   38 1   
    22   11   13 1   
    23   11   17 ar  
    24   12   18 ar  
    25   12   39 1   
    26   13   40 1   
    27   13   41 1   
    28   14   19 ar  
    29   14   20 1   
    30   15   19 ar  
    31   15   21 1   
    32   16   42 1   
    33   16   43 1   
    34   16   44 1   
    35   17   22 ar  
    36   17   45 1   
    37   18   22 ar  
    38   18   46 1   
    39   19   47 1   
    40   20   48 1   
    41   20   49 1   
    42   20   50 1   
    43   21   51 1   
    44   21   52 1   
    45   21   53 1   
    46   22   23 1   
    47   23   24 ar  
    48   23   25 ar  
    49   24   26 1   
    50   24   27 ar  
    51   25   28 ar  
    52   25   54 1   
    53   26   29 1   
    54   26   30 2   
    55   27   31 ar  
    56   27   55 1   
    57   28   31 ar  
    58   28   56 1   
    59   29   32 1   
    60   29   58 1   
    61   30   33 1   
    62   31   57 1   
    63   32   33 2   
@<TRIPOS>SUBSTRUCTURE
     1 HIG         1 TEMP              0 ****  ****    0 ROOT
