@<TRIPOS>MOLECULE
HIG
   58    49     1     0     0
SMALL
bcc


@<TRIPOS>ATOM
      1 N1         -0.0910    1.4320    1.9680 n2        1 HIG     -0.183000
      2 C2         -1.1550    1.4290    1.0020 c2        1 HIG      0.087000
      3 C3          1.2720    1.5840    1.9900 c1        1 HIG      0.022500
      4 C4         -0.5260    1.2700    3.2770 c1        1 HIG      0.022500
      5 C5         -0.9520    0.2720    0.0200 c2        1 HIG     -0.093000
      6 C6         -1.1390    2.6820    0.2350 c3        1 HIG     -0.165000
      7 C7          1.6840    1.5180    3.3020 c1        1 HIG     -0.119000
      8 N8          2.2020    1.7350    0.9820 n1        1 HIG     -0.134000
      9 N9          0.5640    1.3230    4.0930 n1        1 HIG     -0.134000
     10 C10        -1.6290    1.2830    4.3670 c2        1 HIG     -0.100000
     11 C11        -0.8290    0.8220   -1.2950 c1        1 HIG     -0.057000
     12 C12        -1.0000   -1.1070    0.1920 c2        1 HIG     -0.096000
     13 C13        -0.9360    2.3400   -1.1850 c3        1 HIG     -0.122000
     14 C14         3.0290    1.6020    3.6090 c1        1 HIG      0.032000
     15 C15         3.5390    1.8190    1.2870 c1        1 HIG      0.008000
     16 C16        -1.7060   -0.0930    5.0370 c3        1 HIG     -0.218000
     17 C17        -0.7580   -0.0170   -2.3960 c1        1 HIG     -0.112000
     18 C18        -0.9280   -1.9550   -0.9220 c1        1 HIG     -0.114000
     19 C19         3.9530    1.7510    2.6060 c1        1 HIG     -0.212000
     20 C20         3.7720    1.5260    4.9260 c3        1 HIG     -0.182000
     21 C21         4.5460    2.1320    0.1530 c3        1 HIG     -0.173000
     22 C22        -0.8060   -1.4070   -2.2230 c1        1 HIG     -0.034667
     23 C23        -0.5860   -2.2610   -3.3300 c1        1 HIG     -0.034667
     24 C24        -1.6630   -2.7440   -4.0590 c1        1 HIG     -0.034667
     25 C25         0.7210   -2.6920   -3.6370 c1        1 HIG     -0.112000
     26 C26        -2.9650   -2.3080   -3.7640 c1        1 HIG     -0.010000
     27 C27        -1.4460   -3.6690   -5.1100 c1        1 HIG     -0.112000
     28 C28         0.9330   -3.6080   -4.6780 c1        1 HIG     -0.121000
     29 N29        -3.7950   -1.8140   -4.7020 n2        1 HIG     -0.157500
     30 N30        -3.6780   -2.5510   -2.6720 n2        1 HIG     -0.157500
     31 C31        -0.1470   -4.0940   -5.4110 c1        1 HIG     -0.121000
     32 N32        -5.0260   -1.7550   -4.1770 n2        1 HIG     -0.042000
     33 N33        -4.9620   -2.2070   -2.9260 n2        1 HIG     -0.042000
     34 H2         -2.0240    1.3300    1.4620 ha        1 HIG      0.114000
     35 H6         -2.0020    3.1570    0.3450 hc        1 HIG      0.103000
     36 H6A        -0.4160    3.2430    0.5420 hc        1 HIG      0.103000
     37 H10        -1.4120    1.9690    5.0460 ha        1 HIG      0.108000
     38 H10A       -2.5120    1.4970    3.9450 ha        1 HIG      0.108000
     39 H12        -1.0810   -1.4730    1.0640 ha        1 HIG      0.147000
     40 H13        -0.0720    2.7720   -1.5250 hc        1 HIG      0.102000
     41 H13A       -1.7380    2.6740   -1.7450 hc        1 HIG      0.102000
     42 H16        -2.3490   -0.6510    4.5590 hc        1 HIG      0.084000
     43 H16A       -0.8440   -0.5080    5.0150 hc        1 HIG      0.084000
     44 H16B       -1.9920    0.0120    5.9600 hc        1 HIG      0.084000
     45 H17        -0.6740    0.3690   -3.3140 ha        1 HIG      0.151000
     46 H18        -0.9640   -2.9420   -0.7980 ha        1 HIG      0.148000
     47 H19         4.8890    1.8100    2.8200 ha        1 HIG      0.142000
     48 H20         4.4830    0.8110    4.8720 hc        1 HIG      0.094000
     49 H20A        3.1270    1.3020    5.6640 hc        1 HIG      0.094000
     50 H20B        4.1810    2.3670    5.1060 hc        1 HIG      0.094000
     51 H21         4.0890    2.1750   -0.6700 hc        1 HIG      0.092333
     52 H21A        5.2210    1.4290    0.1130 hc        1 HIG      0.092333
     53 H21B        4.9840    2.9970    0.3310 hc        1 HIG      0.092333
     54 H25         1.4980   -2.3460   -3.1120 ha        1 HIG      0.151000
     55 H27        -2.1880   -4.0030   -5.6140 ha        1 HIG      0.151000
     56 H28         1.8510   -3.9090   -4.8920 ha        1 HIG      0.141500
     57 H31         0.0110   -4.7640   -6.1720 ha        1 HIG      0.141500
     58 HN29       -3.5570   -1.5590   -5.5620 DU        1 HIG      0.293000
@<TRIPOS>BOND
     1    1    3 1   
     2    1    4 1   
     3    2    5 1   
     4    2    6 1   
     5    2   34 1   
     6    3    8 1   
     7    4    9 1   
     8    5   11 1   
     9    5   12 1   
    10    6   13 1   
    11    6   35 1   
    12    6   36 1   
    13    7   14 1   
    14   10   16 1   
    15   10   37 1   
    16   10   38 1   
    17   11   13 1   
    18   12   18 1   
    19   12   39 1   
    20   13   40 1   
    21   13   41 1   
    22   14   20 1   
    23   15   19 1   
    24   15   21 1   
    25   16   42 1   
    26   16   43 1   
    27   16   44 1   
    28   17   22 1   
    29   17   45 1   
    30   18   46 1   
    31   19   47 1   
    32   20   48 1   
    33   20   49 1   
    34   20   50 1   
    35   21   51 1   
    36   21   52 1   
    37   21   53 1   
    38   23   25 1   
    39   24   27 1   
    40   25   54 1   
    41   26   29 1   
    42   26   30 1   
    43   27   55 1   
    44   28   31 1   
    45   28   56 1   
    46   29   32 1   
    47   30   33 1   
    48   31   57 1   
    49   32   33 1   
@<TRIPOS>SUBSTRUCTURE
     1 HIG         1 TEMP              0 ****  ****    0 ROOT
