@<TRIPOS>MOLECULE
HIG
   58    63     1     0     0
SMALL
bcc


@<TRIPOS>ATOM
      1 N1         -2.7330    1.0880   -0.1020 na        1 HIG     -0.268000
      2 C2         -1.7360    2.0310    0.3220 c3        1 HIG      0.114300
      3 C3         -2.8570   -0.2540    0.3190 ca        1 HIG      0.413800
      4 C4         -3.7960    1.3120   -1.0230 cc        1 HIG      0.420800
      5 C5         -0.3120    1.6330   -0.0050 ca        1 HIG     -0.098300
      6 C6         -1.7130    2.3110    1.8570 c3        1 HIG     -0.087400
      7 C7         -4.0180   -0.7810   -0.3950 ca        1 HIG     -0.047900
      8 N8         -2.0910   -0.9590    1.1940 nb        1 HIG     -0.673000
      9 N9         -4.5660    0.2200   -1.2100 nd        1 HIG     -0.556100
     10 C10        -4.0160    2.6270   -1.7030 c3        1 HIG     -0.096700
     11 C11         0.5180    1.7650    1.1290 ca        1 HIG     -0.060300
     12 C12         0.2080    1.2160   -1.2190 ca        1 HIG     -0.103000
     13 C13        -0.2570    2.2120    2.3210 c3        1 HIG     -0.036100
     14 C14        -4.3800   -2.1220   -0.1670 ca        1 HIG      0.024700
     15 C15        -2.4780   -2.2380    1.3810 ca        1 HIG      0.437600
     16 C16        -3.0550    2.8220   -2.8500 c3        1 HIG     -0.099100
     17 C17         1.8730    1.4840    1.0470 ca        1 HIG     -0.108000
     18 C18         1.5750    0.9290   -1.3040 ca        1 HIG     -0.137000
     19 C19        -3.5930   -2.8380    0.7290 ca        1 HIG     -0.275300
     20 C20        -5.5420   -2.7230   -0.8530 c3        1 HIG     -0.056800
     21 C21        -1.6830   -3.0950    2.3170 c3        1 HIG     -0.154400
     22 C22         2.4050    1.0590   -0.1840 cp        1 HIG     -0.067000
     23 C23         3.8420    0.7880   -0.3060 cp        1 HIG     -0.021000
     24 C24         4.4360   -0.4100    0.1300 ca        1 HIG     -0.123500
     25 C25         4.6480    1.7830   -0.8800 ca        1 HIG     -0.122000
     26 C26         3.6740   -1.4980    0.7270 cc        1 HIG      0.443000
     27 C27         5.8240   -0.5860   -0.0070 ca        1 HIG     -0.084000
     28 C28         6.0210    1.5990   -1.0130 ca        1 HIG     -0.110000
     29 N29         2.2920   -1.7440    0.5940 na        1 HIG     -0.162400
     30 N30         4.1360   -2.5330    1.5090 nd        1 HIG     -0.378000
     31 C31         6.6090    0.4140   -0.5740 ca        1 HIG     -0.132000
     32 N32         2.0000   -2.8570    1.2750 nc        1 HIG     -0.200800
     33 N33         3.0910   -3.2970    1.7940 nd        1 HIG     -0.055000
     34 H2         -1.9560    3.0030   -0.2170 h1        1 HIG      0.073700
     35 H6         -2.1220    3.3330    2.0460 hc        1 HIG      0.064200
     36 H6A        -2.3440    1.5770    2.4160 hc        1 HIG      0.064200
     37 H10        -5.0720    2.6590   -2.0890 hc        1 HIG      0.068200
     38 H10A       -3.9120    3.4600   -0.9580 hc        1 HIG      0.068200
     39 H12        -0.4360    1.1060   -2.1040 ha        1 HIG      0.146000
     40 H13         0.1160    3.2020    2.6880 hc        1 HIG      0.064700
     41 H13A       -0.1540    1.4750    3.1580 hc        1 HIG      0.064700
     42 H16        -1.9960    2.7960   -2.4960 hc        1 HIG      0.043700
     43 H16A       -3.1890    2.0200   -3.6160 hc        1 HIG      0.043700
     44 H16B       -3.2430    3.8110   -3.3350 hc        1 HIG      0.043700
     45 H17         2.5250    1.5870    1.9270 ha        1 HIG      0.150000
     46 H18         2.0030    0.6050   -2.2650 ha        1 HIG      0.144000
     47 H19        -3.8280   -3.8900    0.9450 ha        1 HIG      0.144000
     48 H20        -5.4000   -2.6730   -1.9620 hc        1 HIG      0.054367
     49 H20A       -5.6810   -3.7910   -0.5570 hc        1 HIG      0.054367
     50 H20B       -6.4730   -2.1550   -0.5990 hc        1 HIG      0.054367
     51 H21        -2.3270   -3.9100    2.7270 hc        1 HIG      0.058700
     52 H21A       -0.8270   -3.5560    1.7620 hc        1 HIG      0.058700
     53 H21B       -1.2680   -2.5050    3.1700 hc        1 HIG      0.058700
     54 H25         4.1810    2.7190   -1.2230 ha        1 HIG      0.143000
     55 H27         6.2980   -1.5200    0.3360 ha        1 HIG      0.163000
     56 H28         6.6390    2.3900   -1.4640 ha        1 HIG      0.139000
     57 H31         7.6950    0.2650   -0.6750 ha        1 HIG      0.142000
     58 HN29        1.6000   -1.1890    0.1380 hn        1 HIG      0.349700
@<TRIPOS>BOND
     1    1    2 1   
     2    1    3 1   
     3    1    4 1   
     4    2    5 1   
     5    2    6 1   
     6    2   34 1   
     7    3    7 ar  
     8    3    8 ar  
     9    4    9 2   
    10    4   10 1   
    11    5   11 ar  
    12    5   12 ar  
    13    6   13 1   
    14    6   35 1   
    15    6   36 1   
    16    7    9 1   
    17    7   14 ar  
    18    8   15 ar  
    19   10   16 1   
    20   10   37 1   
    21   10   38 1   
    22   11   13 1   
    23   11   17 ar  
    24   12   18 ar  
    25   12   39 1   
    26   13   40 1   
    27   13   41 1   
    28   14   19 ar  
    29   14   20 1   
    30   15   19 ar  
    31   15   21 1   
    32   16   42 1   
    33   16   43 1   
    34   16   44 1   
    35   17   22 ar  
    36   17   45 1   
    37   18   22 ar  
    38   18   46 1   
    39   19   47 1   
    40   20   48 1   
    41   20   49 1   
    42   20   50 1   
    43   21   51 1   
    44   21   52 1   
    45   21   53 1   
    46   22   23 1   
    47   23   24 ar  
    48   23   25 ar  
    49   24   26 1   
    50   24   27 ar  
    51   25   28 ar  
    52   25   54 1   
    53   26   29 1   
    54   26   30 2   
    55   27   31 ar  
    56   27   55 1   
    57   28   31 ar  
    58   28   56 1   
    59   29   32 1   
    60   29   58 1   
    61   30   33 1   
    62   31   57 1   
    63   32   33 2   
@<TRIPOS>SUBSTRUCTURE
     1 HIG         1 TEMP              0 ****  ****    0 ROOT
