@<TRIPOS>MOLECULE
HII
   22    22     1     0     0
SMALL
bcc


@<TRIPOS>ATOM
      1 C           0.0200    0.1300   -0.0410 c         1 HII      0.565900
      2 O          -0.5490   -0.3290   -1.0290 o         1 HII     -0.507100
      3 CA          1.5070   -0.0150    0.1960 c3        1 HII     -0.184700
      4 CN          1.7800   -0.2110    1.6710 c3        1 HII     -0.094100
      5 CB          2.0730   -1.1550   -0.6380 c3        1 HII     -0.117700
      6 CG          3.5530   -1.1070   -0.7920 cc        1 HII      0.396600
      7 CD2         4.4040   -2.1800   -0.4460 cd        1 HII     -0.246400
      8 SE2         5.9720   -1.8540   -0.7890 ss        1 HII      0.180700
      9 CE1         5.5460   -0.3140   -1.3860 cd        1 HII      0.278300
     10 ND1         4.2120   -0.0320   -1.3330 nc        1 HII     -0.578000
     11 NZ          6.4800    0.6550   -1.9280 n4        1 HII     -0.767300
     12 H          -0.5200    0.7050    0.7430 h4        1 HII      0.020200
     13 HA          1.9670    0.9610   -0.1370 hc        1 HII      0.084700
     14 HN1         2.8780   -0.2950    1.8530 hc        1 HII      0.047033
     15 HN2         1.2870   -1.1410    2.0460 hc        1 HII      0.047033
     16 HN3         1.3890    0.6560    2.2580 hc        1 HII      0.047033
     17 HB1         1.6010   -1.1270   -1.6630 hc        1 HII      0.092700
     18 HB2         1.7940   -2.1360   -0.1670 hc        1 HII      0.092700
     19 HD2         4.0430   -3.1150   -0.0040 h4        1 HII      0.226000
     20 HNZ1        6.4410    1.5240   -1.3750 hn        1 HII      0.472467
     21 HNZ2        6.2260    0.8760   -2.9020 hn        1 HII      0.472467
     22 HZ3         7.4290    0.2720   -1.9000 hn        1 HII      0.472467
@<TRIPOS>BOND
     1    1    2 2   
     2    1    3 1   
     3    1   12 1   
     4    3    4 1   
     5    3    5 1   
     6    3   13 1   
     7    4   14 1   
     8    4   15 1   
     9    4   16 1   
    10    5    6 1   
    11    5   17 1   
    12    5   18 1   
    13    6    7 2   
    14    6   10 1   
    15    7    8 1   
    16    7   19 1   
    17    8    9 1   
    18    9   10 2   
    19    9   11 1   
    20   11   20 1   
    21   11   21 1   
    22   11   22 1   
@<TRIPOS>SUBSTRUCTURE
     1 HII         1 TEMP              0 ****  ****    0 ROOT
