@<TRIPOS>MOLECULE
HII
   21    21     1     0     0
SMALL
bcc


@<TRIPOS>ATOM
      1 C          -0.0310   -0.0900   -0.0940 c         1 HII      0.566900
      2 O          -0.7210    0.8660   -0.4440 o         1 HII     -0.520100
      3 CA          1.4710   -0.0180    0.0390 c3        1 HII     -0.181700
      4 CN          1.8320    0.0420    1.5090 c3        1 HII     -0.087100
      5 CB          2.0890   -1.2320   -0.6430 c3        1 HII     -0.098700
      6 CG          3.5730   -1.1540   -0.7300 cc        1 HII      0.370600
      7 CD2         4.4260   -2.1030   -0.1800 cd        1 HII     -0.273400
      8 SE2         6.0230   -1.7500   -0.5100 ss        1 HII     -0.111300
      9 CE1         5.5420   -0.3020   -1.3670 cd        1 HII      0.603300
     10 ND1         4.2080   -0.1130   -1.4000 nc        1 HII     -0.686000
     11 NZ          6.5030    0.4650   -2.0290 nh        1 HII     -0.885500
     12 H          -0.4810   -1.0770    0.1570 h4        1 HII     -0.008800
     13 HA          1.8380    0.9190   -0.4680 hc        1 HII      0.097700
     14 HN1         1.4370   -0.8510    2.0520 hc        1 HII      0.042700
     15 HN2         1.4050    0.9620    1.9740 hc        1 HII      0.042700
     16 HN3         2.9420    0.0640    1.6240 hc        1 HII      0.042700
     17 HB1         1.6710   -1.3210   -1.6830 hc        1 HII      0.057700
     18 HB2         1.8100   -2.1620   -0.0800 hc        1 HII      0.057700
     19 HD2         4.1110   -2.9710    0.3940 h4        1 HII      0.180000
     20 HNZ1        7.2210    0.7870   -1.4120 hn        1 HII      0.396300
     21 HNZ2        6.1210    1.2120   -2.5750 hn        1 HII      0.396300
@<TRIPOS>BOND
     1    1    2 2   
     2    1    3 1   
     3    1   12 1   
     4    3    4 1   
     5    3    5 1   
     6    3   13 1   
     7    4   14 1   
     8    4   15 1   
     9    4   16 1   
    10    5    6 1   
    11    5   17 1   
    12    5   18 1   
    13    6    7 2   
    14    6   10 1   
    15    7    8 1   
    16    7   19 1   
    17    8    9 1   
    18    9   10 2   
    19    9   11 1   
    20   11   20 1   
    21   11   21 1   
@<TRIPOS>SUBSTRUCTURE
     1 HII         1 TEMP              0 ****  ****    0 ROOT
