@<TRIPOS>MOLECULE
HII
   21    21     1     0     0
SMALL
bcc


@<TRIPOS>ATOM
      1 C           0.0400   -0.2270    3.5100 c         1 HII      0.565900
      2 O          -0.9180   -0.2960    4.2790 o         1 HII     -0.520100
      3 CA         -0.0740    0.2710    2.0910 c3        1 HII     -0.180700
      4 CN          0.6160    1.6150    1.9820 c3        1 HII     -0.087100
      5 CB          0.5480   -0.7590    1.1560 c3        1 HII     -0.097700
      6 CG          0.3490   -0.4330   -0.2820 cc        1 HII      0.371600
      7 CD2         1.3900   -0.3210   -1.1950 cd        1 HII     -0.273400
      8 SE2         0.8230    0.0290   -2.7260 ss        1 HII     -0.113300
      9 CE1        -0.8250   -0.0010   -2.1390 cd        1 HII      0.603300
     10 ND1        -0.9230   -0.2640   -0.8200 nc        1 HII     -0.686000
     11 NZ         -1.8740    0.3430   -2.9940 nh        1 HII     -0.886500
     12 H           1.0660   -0.5240    3.8260 h4        1 HII     -0.009800
     13 HA         -1.1640    0.3960    1.8320 hc        1 HII      0.098700
     14 HN1         1.6910    1.5350    2.2710 hc        1 HII      0.043033
     15 HN2         0.5580    1.9840    0.9290 hc        1 HII      0.043033
     16 HN3         0.1190    2.3600    2.6490 hc        1 HII      0.043033
     17 HB1         1.6500   -0.8330    1.3590 hc        1 HII      0.056700
     18 HB2         0.0910   -1.7650    1.3650 hc        1 HII      0.056700
     19 HD2         2.4450   -0.4450   -0.9610 h4        1 HII      0.180000
     20 HNZ1       -1.8980   -0.2320   -3.8120 hn        1 HII      0.396300
     21 HNZ2       -2.7670    0.3860   -2.5440 hn        1 HII      0.396300
@<TRIPOS>BOND
     1    1    2 2   
     2    1    3 1   
     3    1   12 1   
     4    3    4 1   
     5    3    5 1   
     6    3   13 1   
     7    4   14 1   
     8    4   15 1   
     9    4   16 1   
    10    5    6 1   
    11    5   17 1   
    12    5   18 1   
    13    6    7 2   
    14    6   10 1   
    15    7    8 1   
    16    7   19 1   
    17    8    9 1   
    18    9   10 2   
    19    9   11 1   
    20   11   20 1   
    21   11   21 1   
@<TRIPOS>SUBSTRUCTURE
     1 HII         1 TEMP              0 ****  ****    0 ROOT
