@<TRIPOS>MOLECULE
HII
   21    21     1     0     0
SMALL
bcc


@<TRIPOS>ATOM
      1 C          -0.0260   -0.0680   -0.0740 c         1 HII      0.566900
      2 O          -0.7120    0.8930   -0.4180 o         1 HII     -0.520100
      3 CA          1.4760   -0.0060    0.0510 c3        1 HII     -0.181700
      4 CN          1.8460    0.0560    1.5180 c3        1 HII     -0.087100
      5 CB          2.0830   -1.2260   -0.6300 c3        1 HII     -0.098700
      6 CG          3.5660   -1.1580   -0.7280 cc        1 HII      0.370600
      7 CD2         4.4180   -2.1070   -0.1770 cd        1 HII     -0.273400
      8 SE2         6.0150   -1.7650   -0.5210 ss        1 HII     -0.112300
      9 CE1         5.5360   -0.3220   -1.3860 cd        1 HII      0.603300
     10 ND1         4.2020   -0.1260   -1.4110 nc        1 HII     -0.686000
     11 NZ          6.4960    0.4350   -2.0610 nv        1 HII     -0.885500
     12 H          -0.4820   -1.0520    0.1790 h4        1 HII     -0.008800
     13 HA          1.8470    0.9270   -0.4610 hc        1 HII      0.097700
     14 HN1         1.4280    0.9810    1.9830 hc        1 HII      0.042700
     15 HN2         2.9570    0.0700    1.6270 hc        1 HII      0.042700
     16 HN3         1.4480   -0.8320    2.0670 hc        1 HII      0.042700
     17 HB1         1.6570   -1.3170   -1.6670 hc        1 HII      0.057700
     18 HB2         1.8020   -2.1530   -0.0610 hc        1 HII      0.057700
     19 HD2         4.1020   -2.9690    0.4070 h4        1 HII      0.180000
     20 HNZ1        6.1140    1.1800   -2.6090 hn        1 HII      0.396300
     21 HNZ2        7.2200    0.7570   -1.4510 hn        1 HII      0.396300
@<TRIPOS>BOND
     1    1    2 2   
     2    1    3 1   
     3    1   12 1   
     4    3    4 1   
     5    3    5 1   
     6    3   13 1   
     7    4   14 1   
     8    4   15 1   
     9    4   16 1   
    10    5    6 1   
    11    5   17 1   
    12    5   18 1   
    13    6    7 2   
    14    6   10 1   
    15    7    8 1   
    16    7   19 1   
    17    8    9 1   
    18    9   10 2   
    19    9   11 1   
    20   11   20 1   
    21   11   21 1   
@<TRIPOS>SUBSTRUCTURE
     1 HII         1 TEMP              0 ****  ****    0 ROOT
