@<TRIPOS>MOLECULE
HII
   21    18     1     0     0
SMALL
bcc


@<TRIPOS>ATOM
      1 C           0.2050    0.9600    2.1250 c1        1 HII      0.207000
      2 O          -1.0170    1.1310    2.4540 o         1 HII     -0.294000
      3 CA          0.6740    1.3450    0.7330 c2        1 HII     -0.171000
      4 CN          1.7570    2.3710    0.8280 c3        1 HII     -0.206000
      5 CB          1.2160    0.1000    0.0110 c3        1 HII     -0.084000
      6 CG          0.0810   -0.6000   -0.6940 c2        1 HII     -0.060000
      7 CD2        -0.3370   -0.3860   -2.1070 c1        1 HII     -0.474000
      8 SE2        -1.4890   -1.3090   -2.3920 ss        1 HII      0.476000
      9 CE1        -1.7790   -2.1180   -1.0850 c1        1 HII     -0.162000
     10 ND1        -0.8340   -1.6870   -0.0760 n2        1 HII     -0.170000
     11 NZ         -2.7470   -3.1090   -0.9300 n2        1 HII     -0.284000
     12 H           0.8900    0.6620    2.8330 ha        1 HII      0.096000
     13 HA         -0.1240    1.7370    0.1980 ha        1 HII      0.123000
     14 HN1         2.5080    2.0100    1.3690 hc        1 HII      0.082000
     15 HN2         2.0690    2.5880   -0.0590 hc        1 HII      0.082000
     16 HN3         1.4210    3.1500    1.2400 hc        1 HII      0.082000
     17 HB1         1.8820    0.3680   -0.6350 hc        1 HII      0.097000
     18 HB2         1.6400   -0.5390    0.6910 hc        1 HII      0.097000
     19 HD2         0.0460    0.2110   -2.7050 DU        1 HII      0.181000
     20 HNZ1       -3.3010   -3.2950   -1.5930 hn        1 HII      0.192000
     21 HNZ2       -2.7610   -3.5900   -0.2060 hn        1 HII      0.192000
@<TRIPOS>BOND
     1    1    2 1   
     2    1   12 1   
     3    3    4 1   
     4    3    5 1   
     5    3   13 1   
     6    4   14 1   
     7    4   15 1   
     8    4   16 1   
     9    5    6 1   
    10    5   17 1   
    11    5   18 1   
    12    6    7 1   
    13    6   10 1   
    14    7    8 1   
    15    8    9 1   
    16    9   10 1   
    17   11   20 1   
    18   11   21 1   
@<TRIPOS>SUBSTRUCTURE
     1 HII         1 TEMP              0 ****  ****    0 ROOT
