@<TRIPOS>MOLECULE
HIN
   45    45     1     0     0
SMALL
bcc


@<TRIPOS>ATOM
      1 C1          0.1730    0.5550    0.4350 c3        1 HIN      0.013000
      2 C2          1.5160   -0.1460    0.3660 c3        1 HIN     -0.182400
      3 C3          2.4130    0.2670    1.4820 c         1 HIN      0.583100
      4 C4          3.9000   -0.0790    1.2790 c3        1 HIN      0.003500
      5 N5          4.7490    0.3960    2.4470 n4        1 HIN     -0.656800
      6 C6          5.1380    1.8270    2.3670 c         1 HIN      0.528100
      7 C7          5.1410    2.6160    3.6880 c3        1 HIN      0.070500
      8 N8          6.1340    3.7440    3.6260 n4        1 HIN     -0.706800
      9 C9          7.5970    3.3010    3.8240 c         1 HIN      0.585100
     10 C10         8.5530    4.3960    4.1210 c3        1 HIN     -0.194100
     11 C11         3.7270    3.1260    3.9560 c3        1 HIN     -0.158100
     12 C12         4.0670   -1.5970    1.0850 c3        1 HIN     -0.047100
     13 C1'         5.4970   -1.9990    1.0420 ca        1 HIN     -0.183300
     14 C2'         6.2140   -1.9340   -0.1590 ca        1 HIN     -0.135500
     15 C3'         7.5360   -2.3770   -0.2090 ca        1 HIN     -0.108500
     16 C4'         8.1480   -2.8890    0.9350 ca        1 HIN     -0.086000
     17 C5'         7.4350   -2.9600    2.1350 ca        1 HIN     -0.108500
     18 C6'         6.1150   -2.5180    2.1900 ca        1 HIN     -0.135500
     19 O3          2.0670    0.8440    2.5160 o         1 HIN     -0.540100
     20 O6          5.4280    2.3180    1.2840 o         1 HIN     -0.394100
     21 O9          7.7760    2.1010    3.7160 o         1 HIN     -0.423100
     22 CL         -0.8480    0.0370   -0.8730 cl        1 HIN     -0.106400
     23 H11         0.2960    1.6620    0.3500 h1        1 HIN      0.086700
     24 H12        -0.3500    0.3160    1.3940 h1        1 HIN      0.086700
     25 H21         2.0130    0.0620   -0.6210 hc        1 HIN      0.110700
     26 H22         1.3640   -1.2630    0.4370 hc        1 HIN      0.110700
     27 H4          4.2800    0.4550    0.3530 hx        1 HIN      0.146700
     28 HN5         4.2130    0.2320    3.3120 hn        1 HIN      0.491800
     29 H7          5.4710    1.9420    4.5410 hx        1 HIN      0.144700
     30 HN8         6.0600    4.2190    2.7140 hn        1 HIN      0.483800
     31 H101        8.5990    4.5590    5.2330 hc        1 HIN      0.138367
     32 H102        8.2920    5.3620    3.6190 hc        1 HIN      0.138367
     33 H103        9.5770    4.0750    3.7760 hc        1 HIN      0.138367
     34 H111        3.0130    2.2590    3.9930 hc        1 HIN      0.113033
     35 H112        3.6750    3.6460    4.9470 hc        1 HIN      0.113033
     36 H113        3.3780    3.8270    3.1580 hc        1 HIN      0.113033
     37 H121        3.5250   -2.1510    1.8980 hc        1 HIN      0.105200
     38 H122        3.5650   -1.8540    0.1090 hc        1 HIN      0.105200
     39 H2'         5.7290   -1.5610   -1.0740 ha        1 HIN      0.139500
     40 H3'         8.0900   -2.3420   -1.1630 ha        1 HIN      0.166000
     41 H4'         9.1860   -3.2590    0.8890 ha        1 HIN      0.170000
     42 H5'         7.9090   -3.3920    3.0320 ha        1 HIN      0.166000
     43 H6'         5.5390   -2.6440    3.1200 ha        1 HIN      0.139500
     44 H52         5.6130   -0.1900    2.4620 hn        1 HIN      0.491800
     45 H82         5.8900    4.4260    4.3590 hn        1 HIN      0.483800
@<TRIPOS>BOND
     1    1    2 1   
     2    1   22 1   
     3    1   23 1   
     4    1   24 1   
     5    2    3 1   
     6    2   25 1   
     7    2   26 1   
     8    3    4 1   
     9    3   19 2   
    10    4    5 1   
    11    4   12 1   
    12    4   27 1   
    13    5    6 1   
    14    5   28 1   
    15    5   44 1   
    16    6    7 1   
    17    6   20 2   
    18    7    8 1   
    19    7   11 1   
    20    7   29 1   
    21    8    9 1   
    22    8   30 1   
    23    8   45 1   
    24    9   10 1   
    25    9   21 2   
    26   10   31 1   
    27   10   32 1   
    28   10   33 1   
    29   11   34 1   
    30   11   35 1   
    31   11   36 1   
    32   12   13 1   
    33   12   37 1   
    34   12   38 1   
    35   13   14 ar  
    36   13   18 ar  
    37   14   15 ar  
    38   14   39 1   
    39   15   16 ar  
    40   15   40 1   
    41   16   17 ar  
    42   16   41 1   
    43   17   18 ar  
    44   17   42 1   
    45   18   43 1   
@<TRIPOS>SUBSTRUCTURE
     1 HIN         1 TEMP              0 ****  ****    0 ROOT
