@<TRIPOS>MOLECULE
HIN
   45    45     1     0     0
SMALL
bcc


@<TRIPOS>ATOM
      1 C1          0.1780    0.5660    0.4180 c3        1 HIN      0.013000
      2 C2          1.5220   -0.1350    0.3490 c3        1 HIN     -0.182400
      3 C3          2.4150    0.2710    1.4710 c         1 HIN      0.583100
      4 C4          3.9020   -0.0740    1.2700 c3        1 HIN      0.003500
      5 N5          4.7470    0.3940    2.4450 ny        1 HIN     -0.656800
      6 C6          5.1360    1.8260    2.3750 c         1 HIN      0.528100
      7 C7          5.1350    2.6060    3.7020 c3        1 HIN      0.070500
      8 N8          6.1280    3.7340    3.6510 ny        1 HIN     -0.706800
      9 C9          7.5910    3.2900    3.8490 c         1 HIN      0.585100
     10 C10         8.5450    4.3840    4.1550 c3        1 HIN     -0.194100
     11 C11         3.7200    3.1130    3.9690 c3        1 HIN     -0.158100
     12 C12         4.0700   -1.5910    1.0680 c3        1 HIN     -0.047100
     13 C1'         5.5000   -1.9930    1.0270 ca        1 HIN     -0.183300
     14 C2'         6.2210   -1.9210   -0.1710 ca        1 HIN     -0.135500
     15 C3'         7.5430   -2.3630   -0.2200 ca        1 HIN     -0.108500
     16 C4'         8.1510   -2.8830    0.9240 ca        1 HIN     -0.086000
     17 C5'         7.4340   -2.9600    2.1210 ca        1 HIN     -0.108500
     18 C6'         6.1140   -2.5180    2.1740 ca        1 HIN     -0.135500
     19 O3          2.0650    0.8410    2.5080 o         1 HIN     -0.540100
     20 O6          5.4290    2.3230    1.2970 o         1 HIN     -0.394100
     21 O9          7.7700    2.0910    3.7340 o         1 HIN     -0.424100
     22 Cl         -0.8380    0.0570   -0.8970 cl        1 HIN     -0.106400
     23 H11         0.3020    1.6730    0.3400 h1        1 HIN      0.086700
     24 H12        -0.3480    0.3210    1.3740 h1        1 HIN      0.086700
     25 H21         1.3690   -1.2520    0.4120 hc        1 HIN      0.110700
     26 H22         2.0220    0.0790   -0.6350 hc        1 HIN      0.110700
     27 H4          4.2850    0.4660    0.3500 hx        1 HIN      0.146700
     28 HN5         5.6120   -0.1920    2.4580 hn        1 HIN      0.491800
     29 H7          5.4630    1.9260    4.5510 hx        1 HIN      0.144700
     30 HN8         6.0560    4.2150    2.7410 hn        1 HIN      0.483800
     31 H101        8.5970    4.5310    5.2690 hc        1 HIN      0.138367
     32 H102        9.5680    4.0700    3.8000 hc        1 HIN      0.138367
     33 H103        8.2800    5.3570    3.6680 hc        1 HIN      0.138367
     34 H111        3.0070    2.2450    3.9980 hc        1 HIN      0.113033
     35 H112        3.6650    3.6260    4.9640 hc        1 HIN      0.113033
     36 H113        3.3730    3.8190    3.1750 hc        1 HIN      0.113033
     37 H121        3.5250   -2.1500    1.8760 hc        1 HIN      0.105200
     38 H122        3.5710   -1.8420    0.0890 hc        1 HIN      0.105200
     39 H2'         5.7390   -1.5420   -1.0860 ha        1 HIN      0.139500
     40 H3'         8.1000   -2.3230   -1.1710 ha        1 HIN      0.166000
     41 H4'         9.1890   -3.2530    0.8780 ha        1 HIN      0.170000
     42 H5'         7.9050   -3.3980    3.0160 ha        1 HIN      0.166000
     43 H6'         5.5350   -2.6500    3.1020 ha        1 HIN      0.139500
     44 H52         4.2080    0.2230    3.3070 hn        1 HIN      0.491800
     45 H82         5.8820    4.4110    4.3870 hn        1 HIN      0.483800
@<TRIPOS>BOND
     1    1    2 1   
     2    1   22 1   
     3    1   23 1   
     4    1   24 1   
     5    2    3 1   
     6    2   25 1   
     7    2   26 1   
     8    3    4 1   
     9    3   19 2   
    10    4    5 1   
    11    4   12 1   
    12    4   27 1   
    13    5    6 1   
    14    5   28 1   
    15    5   44 1   
    16    6    7 1   
    17    6   20 2   
    18    7    8 1   
    19    7   11 1   
    20    7   29 1   
    21    8    9 1   
    22    8   30 1   
    23    8   45 1   
    24    9   10 1   
    25    9   21 2   
    26   10   31 1   
    27   10   32 1   
    28   10   33 1   
    29   11   34 1   
    30   11   35 1   
    31   11   36 1   
    32   12   13 1   
    33   12   37 1   
    34   12   38 1   
    35   13   14 ar  
    36   13   18 ar  
    37   14   15 ar  
    38   14   39 1   
    39   15   16 ar  
    40   15   40 1   
    41   16   17 ar  
    42   16   41 1   
    43   17   18 ar  
    44   17   42 1   
    45   18   43 1   
@<TRIPOS>SUBSTRUCTURE
     1 HIN         1 TEMP              0 ****  ****    0 ROOT
