@<TRIPOS>MOLECULE
HIN
   43    41     1     0     0
SMALL
bcc


@<TRIPOS>ATOM
      1 C1         -4.6360    0.7940   -2.3040 c3        1 HIN     -0.110000
      2 C2         -3.1780    0.3930   -2.2570 c3        1 HIN     -0.224000
      3 C3         -2.7420    0.2450   -0.8150 c2        1 HIN      0.206000
      4 C4         -1.3320   -0.1980   -0.4930 c3        1 HIN     -0.013000
      5 N5         -0.7550    0.7040    0.4410 n         1 HIN     -0.361000
      6 C6          0.3860    1.4660    0.0790 c2        1 HIN      0.280000
      7 C7          1.0110    2.4140    1.0780 c3        1 HIN      0.016000
      8 N8          2.1700    1.8150    1.6370 n         1 HIN     -0.379000
      9 C9          2.3510    1.7980    3.0440 c2        1 HIN      0.308000
     10 C10         3.6110    1.2070    3.6370 c3        1 HIN     -0.241000
     11 C11         1.3940    3.7010    0.3800 c3        1 HIN     -0.216000
     12 C12        -1.3640   -1.5880    0.1020 c3        1 HIN     -0.130000
     13 C1'        -0.1950   -2.3890   -0.4270 c2        1 HIN     -0.072000
     14 C2'        -0.3990   -3.3400   -1.4150 c2        1 HIN     -0.122000
     15 C3'         0.6520   -4.1420   -1.8330 c1        1 HIN     -0.127000
     16 C4'         1.9070   -3.9930   -1.2630 c1        1 HIN     -0.132500
     17 C5'         2.1110   -3.0420   -0.2760 c1        1 HIN     -0.132500
     18 C6'         1.0600   -2.2400    0.1430 c1        1 HIN     -0.121000
     19 O3         -3.5340    0.4510    0.0830 o         1 HIN     -0.279000
     20 O6          0.8600    1.3580   -1.0340 o         1 HIN     -0.379000
     21 O9          1.4950    2.2580    3.7720 o         1 HIN     -0.384000
     22 CL         -5.1200    1.0310   -3.9630 cl        1 HIN     -0.119000
     23 H11        -4.7620    1.6260   -1.8060 h1        1 HIN      0.117000
     24 H12        -5.1820    0.0880   -1.9030 h1        1 HIN      0.117000
     25 H21        -3.0590   -0.4590   -2.7220 hc        1 HIN      0.126500
     26 H22        -2.6360    1.0810   -2.6920 hc        1 HIN      0.126500
     27 H4         -0.7990   -0.2060   -1.3110 h1        1 HIN      0.137000
     28 HN5        -1.1340    0.8130    1.2640 hn        1 HIN      0.261000
     29 H7          0.3690    2.6070    1.7890 h1        1 HIN      0.132000
     30 HN8         2.8030    1.4490    1.0910 hn        1 HIN      0.232000
     31 H101        4.3860    1.7280    3.3420 hc        1 HIN      0.109000
     32 H102        3.5540    1.2320    4.6150 hc        1 HIN      0.109000
     33 H103        3.7080    0.2790    3.3400 hc        1 HIN      0.109000
     34 H111        0.6100    4.2840    0.3170 hc        1 HIN      0.094667
     35 H112        1.7250    3.4990   -0.5200 hc        1 HIN      0.094667
     36 H113        2.0970    4.1530    0.8930 hc        1 HIN      0.094667
     37 H121       -1.3030   -1.5270    1.0760 hc        1 HIN      0.103000
     38 H122       -2.2010   -2.0290   -0.1460 hc        1 HIN      0.103000
     39 H2'        -1.2820   -3.4450   -1.8170 ha        1 HIN      0.132000
     40 H3'         0.5090   -4.8110   -2.5280 ha        1 HIN      0.134000
     41 H4'         2.6460   -4.5570   -1.5580 ha        1 HIN      0.131000
     42 H5'         2.9950   -2.9370    0.1260 ha        1 HIN      0.131000
     43 H6'         1.2040   -1.5710    0.8380 ha        1 HIN      0.137000
@<TRIPOS>BOND
     1    1    2 1   
     2    1   22 1   
     3    1   23 1   
     4    1   24 1   
     5    2    3 1   
     6    2   25 1   
     7    2   26 1   
     8    3    4 1   
     9    3   19 1   
    10    4    5 1   
    11    4   12 1   
    12    4   27 1   
    13    5    6 1   
    14    5   28 1   
    15    6    7 1   
    16    6   20 1   
    17    7    8 1   
    18    7   11 1   
    19    7   29 1   
    20    8    9 1   
    21    8   30 1   
    22    9   10 1   
    23    9   21 1   
    24   10   31 1   
    25   10   32 1   
    26   10   33 1   
    27   11   34 1   
    28   11   35 1   
    29   11   36 1   
    30   12   13 1   
    31   12   37 1   
    32   12   38 1   
    33   13   14 1   
    34   13   18 1   
    35   14   15 1   
    36   14   39 1   
    37   15   40 1   
    38   16   17 1   
    39   16   41 1   
    40   17   42 1   
    41   18   43 1   
@<TRIPOS>SUBSTRUCTURE
     1 HIN         1 TEMP              0 ****  ****    0 ROOT
