@<TRIPOS>MOLECULE
HIN
   43    43     1     0     0
SMALL
bcc


@<TRIPOS>ATOM
      1 C1          3.6620   -4.4680    1.6490 c3        1 HIN      0.040000
      2 C2          2.5380   -3.8950    0.8200 c3        1 HIN     -0.194400
      3 C3          2.3490   -2.4280    1.0710 c         1 HIN      0.549100
      4 C4          1.3300   -1.7540    0.1390 c3        1 HIN      0.011700
      5 N5          0.4960   -0.8140    0.8400 n         1 HIN     -0.552900
      6 C6         -0.8420   -1.0370    1.0750 c         1 HIN      0.640100
      7 C7         -1.6030    0.0570    1.8710 c3        1 HIN      0.037700
      8 N8         -2.9670    0.1690    1.4210 n         1 HIN     -0.555900
      9 C9         -3.4130    1.2730    0.7080 c         1 HIN      0.659100
     10 C10        -4.8010    1.1930    0.1210 c3        1 HIN     -0.174100
     11 C11        -1.4890   -0.3210    3.3490 c3        1 HIN     -0.105100
     12 C12         2.1390   -1.1160   -1.0110 c3        1 HIN     -0.044100
     13 C1'         1.2650   -0.6130   -2.1030 ca        1 HIN     -0.086300
     14 C2'         0.6220   -1.5140   -2.9620 ca        1 HIN     -0.120000
     15 C3'        -0.1850   -1.0440   -3.9960 ca        1 HIN     -0.125000
     16 C4'        -0.3570    0.3280   -4.1820 ca        1 HIN     -0.127000
     17 C5'         0.2810    1.2290   -3.3300 ca        1 HIN     -0.125000
     18 C6'         1.0900    0.7620   -2.2950 ca        1 HIN     -0.120000
     19 O3          2.9590   -1.8010    1.9410 o         1 HIN     -0.524100
     20 O6         -1.4140   -2.0760    0.6890 o         1 HIN     -0.620100
     21 O9         -2.7140    2.3000    0.6030 o         1 HIN     -0.607100
     22 CL          3.8690   -6.1810    1.3370 cl        1 HIN     -0.189400
     23 H11         3.4510   -4.3540    2.7400 h1        1 HIN      0.078200
     24 H12         4.6320   -3.9710    1.4070 h1        1 HIN      0.078200
     25 H21         1.5710   -4.4170    1.0590 hc        1 HIN      0.087200
     26 H22         2.7400   -4.0500   -0.2750 hc        1 HIN      0.087200
     27 H4          0.6580   -2.5560   -0.2990 h1        1 HIN      0.106700
     28 HN5         0.9350    0.0010    1.1960 hn        1 HIN      0.324500
     29 H7         -1.1070    1.0650    1.7150 h1        1 HIN      0.101700
     30 HN8        -3.4650   -0.6890    1.3340 hn        1 HIN      0.321500
     31 H101       -5.0360    2.1660   -0.3760 hc        1 HIN      0.068700
     32 H102       -4.8550    0.3750   -0.6370 hc        1 HIN      0.068700
     33 H103       -5.5560    1.0010    0.9210 hc        1 HIN      0.068700
     34 H111       -1.9440   -1.3220    3.5430 hc        1 HIN      0.052700
     35 H112       -0.4100   -0.3540    3.6330 hc        1 HIN      0.052700
     36 H113       -2.0050    0.4380    3.9830 hc        1 HIN      0.052700
     37 H121        2.7790   -0.2880   -0.6060 hc        1 HIN      0.060200
     38 H122        2.8260   -1.9070   -1.4190 hc        1 HIN      0.060200
     39 H2'         0.7530   -2.5960   -2.8150 ha        1 HIN      0.130500
     40 H3'        -0.6880   -1.7580   -4.6650 ha        1 HIN      0.134500
     41 H4'        -0.9950    0.6970   -4.9970 ha        1 HIN      0.133000
     42 H5'         0.1450    2.3110   -3.4710 ha        1 HIN      0.134500
     43 H6'         1.5900    1.4780   -1.6260 ha        1 HIN      0.130500
@<TRIPOS>BOND
     1    1    2 1   
     2    1   22 1   
     3    1   23 1   
     4    1   24 1   
     5    2    3 1   
     6    2   25 1   
     7    2   26 1   
     8    3    4 1   
     9    3   19 2   
    10    4    5 1   
    11    4   12 1   
    12    4   27 1   
    13    5    6 1   
    14    5   28 1   
    15    6    7 1   
    16    6   20 2   
    17    7    8 1   
    18    7   11 1   
    19    7   29 1   
    20    8    9 1   
    21    8   30 1   
    22    9   10 1   
    23    9   21 2   
    24   10   31 1   
    25   10   32 1   
    26   10   33 1   
    27   11   34 1   
    28   11   35 1   
    29   11   36 1   
    30   12   13 1   
    31   12   37 1   
    32   12   38 1   
    33   13   14 ar  
    34   13   18 ar  
    35   14   15 ar  
    36   14   39 1   
    37   15   16 ar  
    38   15   40 1   
    39   16   17 ar  
    40   16   41 1   
    41   17   18 ar  
    42   17   42 1   
    43   18   43 1   
@<TRIPOS>SUBSTRUCTURE
     1 HIN         1 TEMP              0 ****  ****    0 ROOT
