@<TRIPOS>MOLECULE
HIN
   45    45     1     0     0
SMALL
bcc


@<TRIPOS>ATOM
      1 C1          0.1720    0.5350    0.4390 c3        1 HIN      0.013000
      2 C2          1.5240   -0.1450    0.3490 c3        1 HIN     -0.182400
      3 C3          2.4180    0.2480    1.4750 c         1 HIN      0.583100
      4 C4          3.9090   -0.0720    1.2600 c3        1 HIN      0.003500
      5 N5          4.7520    0.3820    2.4410 n4        1 HIN     -0.656800
      6 C6          5.1220    1.8200    2.4010 c         1 HIN      0.528100
      7 C7          5.1160    2.5710    3.7440 c3        1 HIN      0.070500
      8 N8          6.0940    3.7130    3.7130 n4        1 HIN     -0.706800
      9 C9          7.5630    3.2850    3.8960 c         1 HIN      0.585100
     10 C10         8.5050    4.3840    4.2220 c3        1 HIN     -0.194100
     11 C11         3.6960    3.0540    4.0280 c3        1 HIN     -0.158100
     12 C12         4.0960   -1.5810    1.0240 c3        1 HIN     -0.047100
     13 C1'         5.5320   -1.9620    0.9680 ca        1 HIN     -0.183300
     14 C2'         6.2460   -1.8540   -0.2310 ca        1 HIN     -0.135500
     15 C3'         7.5740   -2.2770   -0.2950 ca        1 HIN     -0.108500
     16 C4'         8.1940   -2.8130    0.8340 ca        1 HIN     -0.086000
     17 C5'         7.4840   -2.9270    2.0320 ca        1 HIN     -0.108500
     18 C6'         6.1580   -2.5050    2.1010 ca        1 HIN     -0.135500
     19 O3          2.0650    0.7910    2.5250 o         1 HIN     -0.540100
     20 O6          5.4040    2.3450    1.3320 o         1 HIN     -0.393100
     21 O9          7.7580    2.0910    3.7540 o         1 HIN     -0.424100
     22 CL         -0.8440    0.0400   -0.8820 cl        1 HIN     -0.106400
     23 H11         0.2800    1.6450    0.3840 h1        1 HIN      0.086700
     24 H12        -0.3460    0.2620    1.3910 h1        1 HIN      0.086700
     25 H21         2.0180    0.0970   -0.6330 hc        1 HIN      0.110700
     26 H22         1.3880   -1.2660    0.3880 hc        1 HIN      0.110700
     27 H4          4.2800    0.4930    0.3500 hx        1 HIN      0.146700
     28 HN5         5.6250   -0.1920    2.4380 hn        1 HIN      0.491800
     29 H7          5.4570    1.8780    4.5770 hx        1 HIN      0.144700
     30 HN8         5.8420    4.3710    4.4650 hn        1 HIN      0.483800
     31 H101        8.2260    5.3630    3.7560 hc        1 HIN      0.138367
     32 H102        9.5310    4.0900    3.8590 hc        1 HIN      0.138367
     33 H103        8.5570    4.5100    5.3390 hc        1 HIN      0.138367
     34 H111        2.9940    2.1770    4.0410 hc        1 HIN      0.113033
     35 H112        3.6380    3.5450    5.0330 hc        1 HIN      0.113033
     36 H113        3.3360    3.7730    3.2500 hc        1 HIN      0.113033
     37 H121        3.5960   -1.8180    0.0420 hc        1 HIN      0.105200
     38 H122        3.5620   -2.1650    1.8220 hc        1 HIN      0.105200
     39 H2'         5.7540   -1.4620   -1.1350 ha        1 HIN      0.139500
     40 H3'         8.1260   -2.2080   -1.2480 ha        1 HIN      0.166000
     41 H4'         9.2370   -3.1680    0.7760 ha        1 HIN      0.170000
     42 H5'         7.9650   -3.3780    2.9160 ha        1 HIN      0.166000
     43 H6'         5.5850   -2.6650    3.0270 ha        1 HIN      0.139500
     44 H52         4.2200    0.1860    3.3020 hn        1 HIN      0.491800
     45 H82         6.0120    4.2130    2.8150 hn        1 HIN      0.483800
@<TRIPOS>BOND
     1    1    2 1   
     2    1   22 1   
     3    1   23 1   
     4    1   24 1   
     5    2    3 1   
     6    2   25 1   
     7    2   26 1   
     8    3    4 1   
     9    3   19 2   
    10    4    5 1   
    11    4   12 1   
    12    4   27 1   
    13    5    6 1   
    14    5   28 1   
    15    5   44 1   
    16    6    7 1   
    17    6   20 2   
    18    7    8 1   
    19    7   11 1   
    20    7   29 1   
    21    8    9 1   
    22    8   30 1   
    23    8   45 1   
    24    9   10 1   
    25    9   21 2   
    26   10   31 1   
    27   10   32 1   
    28   10   33 1   
    29   11   34 1   
    30   11   35 1   
    31   11   36 1   
    32   12   13 1   
    33   12   37 1   
    34   12   38 1   
    35   13   14 ar  
    36   13   18 ar  
    37   14   15 ar  
    38   14   39 1   
    39   15   16 ar  
    40   15   40 1   
    41   16   17 ar  
    42   16   41 1   
    43   17   18 ar  
    44   17   42 1   
    45   18   43 1   
@<TRIPOS>SUBSTRUCTURE
     1 HIN         1 TEMP              0 ****  ****    0 ROOT
