@<TRIPOS>MOLECULE
HIO
   18    17     1     0     0
SMALL
bcc


@<TRIPOS>ATOM
      1 C1          0.0820   -0.1230   -1.9250 c         1 HIO      0.882600
      2 O11        -0.9420    0.4540   -2.3810 o         1 HIO     -0.796800
      3 O12         0.8110   -0.9430   -2.5270 o         1 HIO     -0.796800
      4 C2          0.4720    0.2010   -0.4480 c         1 HIO      0.494100
      5 O2          1.6340    0.4570   -0.0920 o         1 HIO     -0.611100
      6 N3         -0.5970    0.3380    0.5100 n         1 HIO     -0.283300
      7 O3         -1.7360   -0.2810    0.1620 oh        1 HIO     -0.481100
      8 C4         -0.3110    0.0390    1.9280 c3        1 HIO      0.081700
      9 C41         0.4000   -1.2920    2.1690 c3        1 HIO     -0.105100
     10 C42         0.4900    1.1630    2.5820 c3        1 HIO     -0.105100
     11 HO3        -2.0370    0.1720   -0.6580 ho        1 HIO      0.456000
     12 H4         -1.3200   -0.0150    2.4410 h1        1 HIO      0.043700
     13 H411        0.5330   -1.4530    3.2650 hc        1 HIO      0.036867
     14 H412       -0.2000   -2.1340    1.7500 hc        1 HIO      0.036867
     15 H413        1.4040   -1.2880    1.6780 hc        1 HIO      0.036867
     16 H421        1.5010    1.2450    2.1120 hc        1 HIO      0.036867
     17 H422       -0.0360    2.1410    2.4740 hc        1 HIO      0.036867
     18 H423        0.6080    0.9360    3.6680 hc        1 HIO      0.036867
@<TRIPOS>BOND
     1    1    2 1   
     2    1    3 1   
     3    1    4 1   
     4    4    5 2   
     5    4    6 1   
     6    6    7 1   
     7    6    8 1   
     8    7   11 1   
     9    8    9 1   
    10    8   10 1   
    11    8   12 1   
    12    9   13 1   
    13    9   14 1   
    14    9   15 1   
    15   10   16 1   
    16   10   17 1   
    17   10   18 1   
@<TRIPOS>SUBSTRUCTURE
     1 HIO         1 TEMP              0 ****  ****    0 ROOT
