@<TRIPOS>MOLECULE
HIO
   18    17     1     0     0
SMALL
bcc


@<TRIPOS>ATOM
      1 C1          0.0930   -0.0240    0.0420 c         1 HIO      0.882600
      2 O11         1.1010    0.7270    0.1440 o         1 HIO     -0.796800
      3 O12        -0.2520   -0.9270    0.8370 o         1 HIO     -0.796800
      4 C2         -0.8060    0.1750   -1.2180 c         1 HIO      0.494100
      5 O2         -2.0460    0.2280   -1.1670 o         1 HIO     -0.611100
      6 N3         -0.1490    0.4460   -2.4730 n         1 HIO     -0.283300
      7 O3          1.1270    0.0310   -2.5300 oh        1 HIO     -0.481100
      8 C4         -0.8310    0.0500   -3.7220 c3        1 HIO      0.081700
      9 C41        -1.3530   -1.3860   -3.7370 c3        1 HIO     -0.105100
     10 C42        -1.9760    1.0040   -4.0550 c3        1 HIO     -0.105100
     11 HO3         1.6010    0.5580   -1.8480 ho        1 HIO      0.456000
     12 H4         -0.0520    0.1390   -4.5400 h1        1 HIO      0.043700
     13 H411       -0.5180   -2.1040   -3.5530 hc        1 HIO      0.036867
     14 H412       -2.1260   -1.5250   -2.9420 hc        1 HIO      0.036867
     15 H413       -1.8090   -1.6090   -4.7300 hc        1 HIO      0.036867
     16 H421       -1.6120    2.0570   -4.1110 hc        1 HIO      0.036867
     17 H422       -2.4050    0.7200   -5.0460 hc        1 HIO      0.036867
     18 H423       -2.7750    0.9410   -3.2770 hc        1 HIO      0.036867
@<TRIPOS>BOND
     1    1    2 1   
     2    1    3 1   
     3    1    4 1   
     4    4    5 2   
     5    4    6 1   
     6    6    7 1   
     7    6    8 1   
     8    7   11 1   
     9    8    9 1   
    10    8   10 1   
    11    8   12 1   
    12    9   13 1   
    13    9   14 1   
    14    9   15 1   
    15   10   16 1   
    16   10   17 1   
    17   10   18 1   
@<TRIPOS>SUBSTRUCTURE
     1 HIO         1 TEMP              0 ****  ****    0 ROOT
