@<TRIPOS>MOLECULE
HIP
   23    22     1     0     0
SMALL
bcc


@<TRIPOS>ATOM
      1 N         356.0130   30.4080    7.5840 n3        1 HIP     -0.900800
      2 CA        354.8470   30.3900    8.4590 c3        1 HIP      0.015500
      3 CB        353.6810   31.2440    7.9540 c3        1 HIP     -0.097700
      4 CG        353.9870   32.6900    7.8870 cc        1 HIP      0.332600
      5 CD2       355.1960   33.3210    8.2530 cd        1 HIP     -0.244600
      6 NE2       355.0130   34.6880    8.0360 na        1 HIP     -0.341900
      7 CE1       353.7120   34.8460    7.5450 cd        1 HIP      0.350400
      8 ND1       353.0730   33.6630    7.4470 nc        1 HIP     -0.679000
      9 P       -1683.0070 -147.1640  -38.4740 p4        1 HIP      1.451300
     10 O1P     -1683.4010 -145.7730  -38.7570 o         1 HIP     -0.800500
     11 O2P     -1682.2340 -147.9290  -39.4690 o         1 HIP     -0.800500
     12 O3P     -1683.3870 -147.7920  -37.1950 o         1 HIP     -0.849300
     13 C         354.2950   28.9560    8.7680 c         1 HIP      0.890600
     14 O         354.9060   27.9660    8.2730 o         1 HIP     -0.841300
     15 OXT       353.2840   28.8710    9.5180 o         1 HIP     -0.841300
     16 H         356.5440   29.5730    7.7790 hn        1 HIP      0.333800
     17 H2        355.7050   30.3300    6.6310 hn        1 HIP      0.333800
     18 HA        355.1910   30.8110    9.4490 h1        1 HIP      0.040700
     19 HB2       353.3550   30.8850    6.9410 hc        1 HIP      0.068700
     20 HB3       352.8200   31.0720    8.6600 hc        1 HIP      0.068700
     21 HD2       356.1300   32.8960    8.6170 h4        1 HIP      0.194000
     22 HE2       355.6770   35.3950    8.1850 hn        1 HIP      0.281700
     23 HE1       353.2930   35.8210    7.2870 h5        1 HIP      0.037100
@<TRIPOS>BOND
     1    1    2 1   
     2    1   16 1   
     3    1   17 1   
     4    2    3 1   
     5    2   13 1   
     6    2   18 1   
     7    3    4 1   
     8    3   19 1   
     9    3   20 1   
    10    4    5 2   
    11    4    8 1   
    12    5    6 1   
    13    5   21 1   
    14    6    7 1   
    15    6   22 1   
    16    7    8 2   
    17    7   23 1   
    18    9   10 1   
    19    9   11 1   
    20    9   12 2   
    21   13   14 1   
    22   13   15 1   
@<TRIPOS>SUBSTRUCTURE
     1 HIP         1 TEMP              0 ****  ****    0 ROOT
