@<TRIPOS>MOLECULE
HIP
   23    19     1     0     0
SMALL
bcc


@<TRIPOS>ATOM
      1 N          -2.8700   -0.3720   -0.4260 n3        1 HIP     -0.340000
      2 CA         -1.5200   -0.5020   -0.8560 c3        1 HIP     -0.113000
      3 CB         -0.6290   -0.7290    0.3440 c3        1 HIP     -0.097000
      4 CG          0.2390    0.4900    0.5660 c2        1 HIP     -0.132000
      5 CD2        -0.2050    1.7720    0.7440 c1        1 HIP     -0.179000
      6 NE2         0.8600    2.5530    0.9430 n2        1 HIP     -0.179000
      7 CE1         1.9670    1.7730    0.8920 c1        1 HIP     -0.133000
      8 ND1         1.5720    0.4980    0.6580 n2        1 HIP     -0.192000
      9 P           2.5620   -0.8170    0.5260 p3        1 HIP      2.390000
     10 O1P         2.0530   -1.9230    1.4180 o         1 HIP     -1.127333
     11 O2P         3.9620   -0.4370    0.9450 o         1 HIP     -1.127333
     12 O3P         2.5780   -1.2930   -0.9070 o         1 HIP     -1.127333
     13 C          -1.4020   -1.6750   -1.8000 c2        1 HIP      0.329000
     14 O          -1.7300   -2.8280   -1.4160 o         1 HIP     -0.587500
     15 OXT        -0.9830   -1.4990   -2.9750 o         1 HIP     -0.587500
     16 H          -3.1750    0.4680   -0.6260 hn        1 HIP      0.130000
     17 H2         -3.3880   -0.9940   -0.8560 hn        1 HIP      0.130000
     18 HA         -1.2440    0.3160   -1.3160 h1        1 HIP      0.083000
     19 HB2        -0.0620   -1.5100    0.1860 hc        1 HIP      0.092500
     20 HB3        -1.1830   -0.8840    1.1360 hc        1 HIP      0.092500
     21 HD2        -1.1360    2.0640    0.7280 DU        1 HIP      0.225000
     22 HE2         0.8450    3.4540    1.0880 DU        1 HIP      0.225000
     23 HE1         2.8880    2.0760    1.0040 DU        1 HIP      0.225000
@<TRIPOS>BOND
     1    1    2 1   
     2    1   16 1   
     3    1   17 1   
     4    2    3 1   
     5    2   13 1   
     6    2   18 1   
     7    3    4 1   
     8    3   19 1   
     9    3   20 1   
    10    4    5 1   
    11    4    8 1   
    12    5    6 1   
    13    6    7 1   
    14    7    8 1   
    15    9   10 1   
    16    9   11 1   
    17    9   12 1   
    18   13   14 1   
    19   13   15 1   
@<TRIPOS>SUBSTRUCTURE
     1 HIP         1 TEMP              0 ****  ****    0 ROOT
