@<TRIPOS>MOLECULE
HIQ
   31    31     1     0     0
SMALL
bcc


@<TRIPOS>ATOM
      1 N           3.2750   -0.7160    5.5290 n3        1 HIQ     -0.892800
      2 CA          2.8380   -0.5450    4.1480 c3        1 HIQ      0.034500
      3 C           3.9680    0.0000    3.2220 c         1 HIQ      0.882600
      4 O           4.6830    0.9510    3.6480 o         1 HIQ     -0.856800
      5 OXT         4.1330   -0.5330    2.0830 o         1 HIQ     -0.856800
      6 CB          1.6080    0.3860    4.0680 c3        1 HIQ     -0.078700
      7 CG          1.1830    0.5200    2.6590 cc        1 HIQ      0.302600
      8 ND1         0.0420   -0.0720    2.0720 nc        1 HIQ     -0.669000
      9 CD2         1.9590    1.1330    1.6660 cd        1 HIQ     -0.205600
     10 CE1         0.1670    0.1270    0.7530 cd        1 HIQ      0.380400
     11 NE2         1.3120    0.9090    0.4310 na        1 HIQ     -0.250900
     12 O1          2.3350    3.1870   -1.1840 oh        1 HIQ     -0.600800
     13 O2          2.9430   -0.4150   -0.7270 oh        1 HIQ     -0.652800
     14 O3          0.5850   -0.7770   -2.0100 oh        1 HIQ     -0.600800
     15 C1          3.0220    1.9620   -1.0570 c3        1 HIQ      0.119400
     16 C2          2.1010    0.7380   -0.7810 c3        1 HIQ      0.198500
     17 C3          1.2130    0.4830   -2.0370 c3        1 HIQ      0.119400
     18 HN1         3.5910    0.1760    5.8700 hn        1 HIQ      0.332300
     19 HN2         4.0750   -1.3240    5.5240 hn        1 HIQ      0.332300
     20 HA          2.5340   -1.5590    3.7600 h1        1 HIQ      0.055700
     21 HB1         1.8860    1.3990    4.4630 hc        1 HIQ      0.045200
     22 HB2         0.7800   -0.0230    4.7020 hc        1 HIQ      0.045200
     23 HD2         2.9120    1.6620    1.7530 h4        1 HIQ      0.213000
     24 HE1        -0.5220   -0.2200   -0.0250 h5        1 HIQ      0.058100
     25 H1          1.5480    3.0270   -1.7160 ho        1 HIQ      0.412500
     26 H2          3.4080   -0.4450    0.1350 ho        1 HIQ      0.494000
     27 H3          1.2290   -1.4170   -1.6740 ho        1 HIQ      0.412500
     28 H1C1        3.7440    2.1110   -0.2090 h1        1 HIQ      0.056200
     29 H1C2        3.5930    1.7440   -2.0000 h1        1 HIQ      0.056200
     30 H3C1        0.3820    1.2320   -2.1030 h1        1 HIQ      0.056200
     31 H3C2        1.8730    0.5540   -2.9430 h1        1 HIQ      0.056200
@<TRIPOS>BOND
     1    1    2 1   
     2    1   18 1   
     3    1   19 1   
     4    2    3 1   
     5    2    6 1   
     6    2   20 1   
     7    3    4 1   
     8    3    5 1   
     9    6    7 1   
    10    6   21 1   
    11    6   22 1   
    12    7    8 1   
    13    7    9 2   
    14    8   10 2   
    15    9   11 1   
    16    9   23 1   
    17   10   11 1   
    18   10   24 1   
    19   11   16 1   
    20   12   15 1   
    21   12   25 1   
    22   13   16 1   
    23   13   26 1   
    24   14   17 1   
    25   14   27 1   
    26   15   16 1   
    27   15   28 1   
    28   15   29 1   
    29   16   17 1   
    30   17   30 1   
    31   17   31 1   
@<TRIPOS>SUBSTRUCTURE
     1 HIQ         1 TEMP              0 ****  ****    0 ROOT
