@<TRIPOS>MOLECULE
HIT
   25    24     1     0     0
SMALL
bcc


@<TRIPOS>ATOM
      1 CA1         2.9410    1.0680   -3.5470 c3        1 HIT      0.046100
      2 C3          3.0170   -0.4040   -3.9710 c3        1 HIT     -0.102700
      3 C5          4.0090   -1.1750   -3.1290 c3        1 HIT     -0.087600
      4 C9          3.3570   -0.5010   -5.4420 c3        1 HIT     -0.087600
      5 C13         2.6730    1.2100   -2.0500 c         1 HIT      0.580100
      6 O14         3.6160    1.5360   -1.3130 o         1 HIT     -0.588100
      7 CA2         1.2720    0.9910   -1.5870 c3        1 HIT     -0.296700
      8 C17         1.0540    1.5040   -0.1850 c3        1 HIT     -0.060100
      9 C21         0.9030   -0.5320   -1.6410 c         1 HIT      0.926600
     10 O22         0.0350   -0.8660   -2.4940 o         1 HIT     -0.822300
     11 O1          1.4820   -1.3170   -0.8470 o         1 HIT     -0.822300
     12 O25         4.1170    1.7810   -3.9050 oh        1 HIT     -0.616800
     13 HA1         2.1210    1.5790   -4.1270 h1        1 HIT      0.076700
     14 H3          1.9880   -0.8470   -3.7980 hc        1 HIT      0.115700
     15 H51         3.6410   -1.2210   -2.0700 hc        1 HIT      0.031367
     16 H52         5.0130   -0.6860   -3.1490 hc        1 HIT      0.031367
     17 H53         4.1130   -2.2170   -3.5130 hc        1 HIT      0.031367
     18 H91         2.5770    0.0120   -6.0550 hc        1 HIT      0.031367
     19 H92         4.3420   -0.0150   -5.6460 hc        1 HIT      0.031367
     20 H93         3.4100   -1.5710   -5.7550 hc        1 HIT      0.031367
     21 HA2         0.5810    1.5180   -2.3010 hc        1 HIT      0.059700
     22 H171        1.6600    0.8980    0.5320 hc        1 HIT      0.027367
     23 H172       -0.0240    1.4100    0.0880 hc        1 HIT      0.027367
     24 H173        1.3590    2.5750   -0.0990 hc        1 HIT      0.027367
     25 HO2         4.7910    1.5600   -3.2480 ho        1 HIT      0.410000
@<TRIPOS>BOND
     1    1    2 1   
     2    1    5 1   
     3    1   12 1   
     4    1   13 1   
     5    2    3 1   
     6    2    4 1   
     7    2   14 1   
     8    3   15 1   
     9    3   16 1   
    10    3   17 1   
    11    4   18 1   
    12    4   19 1   
    13    4   20 1   
    14    5    6 2   
    15    5    7 1   
    16    7    8 1   
    17    7    9 1   
    18    7   21 1   
    19    8   22 1   
    20    8   23 1   
    21    8   24 1   
    22    9   10 1   
    23    9   11 1   
    24   12   25 1   
@<TRIPOS>SUBSTRUCTURE
     1 HIT         1 TEMP              0 ****  ****    0 ROOT
