@<TRIPOS>MOLECULE
HIT
   25    24     1     0     0
SMALL
bcc


@<TRIPOS>ATOM
      1 CA1        -0.1050    0.1540   -0.6900 c3        1 HIT      0.074100
      2 C3         -1.6020   -0.0550   -0.6930 c3        1 HIT     -0.068700
      3 C5         -2.2780    1.1500   -1.3100 c3        1 HIT     -0.086100
      4 C9         -1.9380   -1.2900   -1.5000 c3        1 HIT     -0.086100
      5 C13         0.3940    0.2040    0.7360 c         1 HIT      0.573100
      6 O14        -0.3610    0.5220    1.6330 o         1 HIT     -0.576100
      7 CA2         1.8340   -0.1410    1.0470 c3        1 HIT     -0.297700
      8 C17         1.8760   -1.2550    2.0700 c3        1 HIT     -0.062100
      9 C21         2.5370    1.0790    1.6000 c         1 HIT      0.932600
     10 O22         3.5940    1.4960    1.0580 o         1 HIT     -0.835300
     11 O1          2.0660    1.6760    2.6030 o         1 HIT     -0.835300
     12 O25         0.2010    1.3660   -1.3370 oh        1 HIT     -0.625800
     13 HA1         0.3280   -0.5850   -1.1610 h1        1 HIT      0.056700
     14 H3         -1.9170   -0.1700    0.2240 hc        1 HIT      0.065700
     15 H51        -3.2480    1.0110   -1.3190 hc        1 HIT      0.029033
     16 H52        -2.0670    1.9490   -0.7820 hc        1 HIT      0.029033
     17 H53        -1.9570    1.2700   -2.2280 hc        1 HIT      0.029033
     18 H91        -2.9110   -1.3670   -1.5900 hc        1 HIT      0.029033
     19 H92        -1.5880   -2.0830   -1.0440 hc        1 HIT      0.029033
     20 H93        -1.5320   -1.2190   -2.3890 hc        1 HIT      0.029033
     21 HA2         2.2820   -0.4320    0.2300 hc        1 HIT      0.056700
     22 H171        1.4750   -2.0640    1.6890 hc        1 HIT      0.028033
     23 H172        1.3740   -0.9850    2.8670 hc        1 HIT      0.028033
     24 H173        2.8070   -1.4370    2.3160 hc        1 HIT      0.028033
     25 HO2         0.7350    1.2050   -2.0300 ho        1 HIT      0.457000
@<TRIPOS>BOND
     1    1    2 1   
     2    1    5 1   
     3    1   12 1   
     4    1   13 1   
     5    2    3 1   
     6    2    4 1   
     7    2   14 1   
     8    3   15 1   
     9    3   16 1   
    10    3   17 1   
    11    4   18 1   
    12    4   19 1   
    13    4   20 1   
    14    5    6 2   
    15    5    7 1   
    16    7    8 1   
    17    7    9 1   
    18    7   21 1   
    19    8   22 1   
    20    8   23 1   
    21    8   24 1   
    22    9   10 1   
    23    9   11 1   
    24   12   25 1   
@<TRIPOS>SUBSTRUCTURE
     1 HIT         1 TEMP              0 ****  ****    0 ROOT
