@<TRIPOS>MOLECULE
HIT
   25    24     1     0     0
SMALL
bcc


@<TRIPOS>ATOM
      1 CA1         1.3220    0.3190   -0.1660 c3        1 HIT      0.046100
      2 C3         -0.1120   -0.0850    0.1980 c3        1 HIT     -0.102700
      3 C5         -0.1480   -1.4090    0.9300 c3        1 HIT     -0.087600
      4 C9         -0.9690   -0.1270   -1.0480 c3        1 HIT     -0.087600
      5 C13         2.2400    0.3000    1.0550 c         1 HIT      0.580100
      6 O14         3.0390   -0.6420    1.1760 o         1 HIT     -0.588100
      7 CA2         2.1400    1.4520    1.9980 c3        1 HIT     -0.296700
      8 C17         3.3150    1.5130    2.9420 c3        1 HIT     -0.060100
      9 C21         0.8140    1.3730    2.8300 c         1 HIT      0.926600
     10 O22        -0.0460    2.2650    2.5970 o         1 HIT     -0.822300
     11 O1          0.6880    0.4420    3.6670 o         1 HIT     -0.822300
     12 O25         1.8570   -0.5040   -1.1940 oh        1 HIT     -0.616800
     13 HA1         1.3140    1.3520   -0.6160 h1        1 HIT      0.076700
     14 H3         -0.5090    0.7140    0.8950 hc        1 HIT      0.115700
     15 H51        -1.2040   -1.7250    1.1040 hc        1 HIT      0.031367
     16 H52         0.3690   -2.2040    0.3410 hc        1 HIT      0.031367
     17 H53         0.3580   -1.2970    1.9250 hc        1 HIT      0.031367
     18 H91        -2.0140   -0.4180   -0.7870 hc        1 HIT      0.031367
     19 H92        -0.9890    0.8760   -1.5380 hc        1 HIT      0.031367
     20 H93        -0.5590   -0.8670   -1.7770 hc        1 HIT      0.031367
     21 HA2         2.0860    2.3970    1.3900 hc        1 HIT      0.059700
     22 H171        3.2960    0.6240    3.6180 hc        1 HIT      0.027367
     23 H172        3.2530    2.4380    3.5630 hc        1 HIT      0.027367
     24 H173        4.2800    1.5160    2.3800 hc        1 HIT      0.027367
     25 HO2         2.1280   -1.3330   -0.7780 ho        1 HIT      0.410000
@<TRIPOS>BOND
     1    1    2 1   
     2    1    5 1   
     3    1   12 1   
     4    1   13 1   
     5    2    3 1   
     6    2    4 1   
     7    2   14 1   
     8    3   15 1   
     9    3   16 1   
    10    3   17 1   
    11    4   18 1   
    12    4   19 1   
    13    4   20 1   
    14    5    6 2   
    15    5    7 1   
    16    7    8 1   
    17    7    9 1   
    18    7   21 1   
    19    8   22 1   
    20    8   23 1   
    21    8   24 1   
    22    9   10 1   
    23    9   11 1   
    24   12   25 1   
@<TRIPOS>SUBSTRUCTURE
     1 HIT         1 TEMP              0 ****  ****    0 ROOT
