@<TRIPOS>MOLECULE
HIT
   25    24     1     0     0
SMALL
bcc


@<TRIPOS>ATOM
      1 CA1         1.2530    0.3510   -0.0530 c3        1 HIT      0.038100
      2 C3         -0.0420   -0.3510    0.3840 c3        1 HIT     -0.103700
      3 C5          0.1440   -1.8470    0.5030 c3        1 HIT     -0.086600
      4 C9         -1.1530   -0.0270   -0.5910 c3        1 HIT     -0.086600
      5 C13         2.2770    0.3310    1.0770 c         1 HIT      0.581100
      6 O14         3.0460   -0.6380    1.1810 o         1 HIT     -0.604100
      7 CA2         2.3220    1.5380    1.9590 c3        1 HIT     -0.292700
      8 C17         3.0390    1.2750    3.2590 c3        1 HIT     -0.065100
      9 C21         0.8910    2.0980    2.2280 c         1 HIT      0.918600
     10 O22         0.5220    3.0710    1.5160 o         1 HIT     -0.829300
     11 O1          0.1890    1.5520    3.1220 o         1 HIT     -0.829300
     12 O25         1.8030   -0.2290   -1.2260 oh        1 HIT     -0.610800
     13 HA1         1.0240    1.4210   -0.3320 h1        1 HIT      0.121700
     14 H3         -0.3130    0.0730    1.3990 hc        1 HIT      0.118700
     15 H51         0.2770   -2.3110   -0.5040 hc        1 HIT      0.028867
     16 H52        -0.7500   -2.3080    0.9880 hc        1 HIT      0.028867
     17 H53         1.0470   -2.0750    1.1210 hc        1 HIT      0.028867
     18 H91        -0.8550   -0.3140   -1.6290 hc        1 HIT      0.028867
     19 H92        -1.3730    1.0680   -0.5710 hc        1 HIT      0.028867
     20 H93        -2.0810   -0.5830   -0.3170 hc        1 HIT      0.028867
     21 HA2         2.8720    2.3290    1.3730 hc        1 HIT      0.069700
     22 H171        3.2490    2.2410    3.7770 hc        1 HIT      0.028700
     23 H172        2.3910    0.6530    3.9250 hc        1 HIT      0.028700
     24 H173        4.0020    0.7380    3.0840 hc        1 HIT      0.028700
     25 HO2         2.1670   -1.0860   -0.9680 ho        1 HIT      0.401000
@<TRIPOS>BOND
     1    1    2 1   
     2    1    5 1   
     3    1   12 1   
     4    1   13 1   
     5    2    3 1   
     6    2    4 1   
     7    2   14 1   
     8    3   15 1   
     9    3   16 1   
    10    3   17 1   
    11    4   18 1   
    12    4   19 1   
    13    4   20 1   
    14    5    6 2   
    15    5    7 1   
    16    7    8 1   
    17    7    9 1   
    18    7   21 1   
    19    8   22 1   
    20    8   23 1   
    21    8   24 1   
    22    9   10 1   
    23    9   11 1   
    24   12   25 1   
@<TRIPOS>SUBSTRUCTURE
     1 HIT         1 TEMP              0 ****  ****    0 ROOT
