@<TRIPOS>MOLECULE
HIU
   14    13     1     0     0
SMALL
bcc


@<TRIPOS>ATOM
      1 O1          0.0550   -0.0410    0.0780 o         1 HIU     -0.848300
      2 C1          1.3160   -0.0480   -0.0030 c         1 HIU      0.914600
      3 O2          1.9520   -0.1410   -1.0920 o         1 HIU     -0.848300
      4 C2          2.1140    0.0420    1.3230 c3        1 HIU     -0.189700
      5 C3          1.7060    1.2720    2.0960 c3        1 HIU     -0.062100
      6 C4          3.6050    0.0300    1.0400 c3        1 HIU      0.141400
      7 O3          4.3010   -0.2760    2.2500 oh        1 HIU     -0.629800
      8 H2          1.8550   -0.8700    1.9260 hc        1 HIU      0.044700
      9 H31         2.2060    1.2940    3.0950 hc        1 HIU      0.018033
     10 H32         0.5970    1.2700    2.2360 hc        1 HIU      0.018033
     11 H33         1.9880    2.1980    1.5400 hc        1 HIU      0.018033
     12 H41         3.9460    1.0320    0.6650 h1        1 HIU      0.026700
     13 H42         3.8360   -0.7450    0.2610 h1        1 HIU      0.026700
     14 HO3         5.2230   -0.3910    2.0020 ho        1 HIU      0.369000
@<TRIPOS>BOND
     1    1    2 1   
     2    2    3 1   
     3    2    4 1   
     4    4    5 1   
     5    4    6 1   
     6    4    8 1   
     7    5    9 1   
     8    5   10 1   
     9    5   11 1   
    10    6    7 1   
    11    6   12 1   
    12    6   13 1   
    13    7   14 1   
@<TRIPOS>SUBSTRUCTURE
     1 HIU         1 TEMP              0 ****  ****    0 ROOT
