@<TRIPOS>MOLECULE
HIU
   14    13     1     0     0
SMALL
bcc


@<TRIPOS>ATOM
      1 O1          2.1300    0.5100   -0.4250 o         1 HIU     -0.848300
      2 C1          1.1530   -0.2320   -0.1240 c         1 HIU      0.914600
      3 O2          1.2700   -1.4280    0.2700 o         1 HIU     -0.848300
      4 C2         -0.2690    0.3690   -0.2710 c3        1 HIU     -0.189700
      5 C3         -0.3850    1.6410    0.5330 c3        1 HIU     -0.062100
      6 C4         -1.3150   -0.6500    0.1430 c3        1 HIU      0.141400
      7 O3         -2.5870   -0.2330   -0.3580 oh        1 HIU     -0.629800
      8 H2         -0.4140    0.6120   -1.3580 hc        1 HIU      0.044700
      9 H31         0.4340    2.3410    0.2380 hc        1 HIU      0.018033
     10 H32        -1.3730    2.1300    0.3570 hc        1 HIU      0.018033
     11 H33        -0.2870    1.4270    1.6250 hc        1 HIU      0.018033
     12 H41        -1.0500   -1.6560   -0.2800 h1        1 HIU      0.026700
     13 H42        -1.3710   -0.7300    1.2610 h1        1 HIU      0.026700
     14 HO3        -3.1920   -0.9590   -0.1790 ho        1 HIU      0.369000
@<TRIPOS>BOND
     1    1    2 1   
     2    2    3 1   
     3    2    4 1   
     4    4    5 1   
     5    4    6 1   
     6    4    8 1   
     7    5    9 1   
     8    5   10 1   
     9    5   11 1   
    10    6    7 1   
    11    6   12 1   
    12    6   13 1   
    13    7   14 1   
@<TRIPOS>SUBSTRUCTURE
     1 HIU         1 TEMP              0 ****  ****    0 ROOT
