@<TRIPOS>MOLECULE
HIU
   14    13     1     0     0
SMALL
bcc


@<TRIPOS>ATOM
      1 O1         -2.3660    0.2370   -1.0580 o         1 HIU     -0.847300
      2 C1         -1.1070    0.2370   -1.0580 c         1 HIU      0.914600
      3 O2         -0.4770    0.2360   -2.1480 o         1 HIU     -0.847300
      4 C2         -0.3500    0.2370    0.2530 c3        1 HIU     -0.229700
      5 C3          0.4930    1.4890    0.3480 c3        1 HIU     -0.063100
      6 C4          0.5450   -0.9810    0.3180 c3        1 HIU      0.171400
      7 O3         -0.2210   -2.1410    0.0820 oh        1 HIU     -0.658800
      8 H2         -0.9850    0.2140    0.9940 hc        1 HIU      0.041700
      9 H31         0.9270    1.5230    1.2220 hc        1 HIU      0.018033
     10 H32        -0.0770    2.2740    0.2370 hc        1 HIU      0.018033
     11 H33         1.1720    1.4780   -0.3530 hc        1 HIU      0.018033
     12 H41         1.2430   -0.9080   -0.3610 h1        1 HIU      0.008200
     13 H42         0.9560   -1.0360    1.2010 h1        1 HIU      0.008200
     14 HO3         0.2460   -2.8580    0.3230 ho        1 HIU      0.449000
@<TRIPOS>BOND
     1    1    2 1   
     2    2    3 1   
     3    2    4 1   
     4    4    5 1   
     5    4    6 1   
     6    4    8 1   
     7    5    9 1   
     8    5   10 1   
     9    5   11 1   
    10    6    7 1   
    11    6   12 1   
    12    6   13 1   
    13    7   14 1   
@<TRIPOS>SUBSTRUCTURE
     1 HIU         1 TEMP              0 ****  ****    0 ROOT
