@<TRIPOS>MOLECULE
HIZ
   46    40     1     0     0
SMALL
bcc


@<TRIPOS>ATOM
      1 NAA        -1.7920    0.2710   -1.8990 nh        1 HIZ     -0.491100
      2 OAB         0.3120    1.4400    4.2660 o         1 HIZ     -0.589100
      3 FAC        -0.1350    3.0600   10.1890 f         1 HIZ     -0.093100
      4 CLAD        1.9330    1.7450    9.9130 cl        1 HIZ     -0.071900
      5 CAE         0.3030   -1.3500   -9.0210 c1        1 HIZ     -0.077167
      6 CAF        -0.0350   -2.4770   -8.2750 c1        1 HIZ     -0.077167
      7 CAG         0.7340   -0.1890   -8.3790 c1        1 HIZ     -0.077167
      8 CAH         0.0570   -2.4450   -6.8810 c1        1 HIZ     -0.077167
      9 CAI         0.8260   -0.1560   -6.9910 c1        1 HIZ     -0.045500
     10 CAJ        -1.4610    2.1600    8.4850 c1        1 HIZ     -0.077167
     11 CAK        -1.5740    1.3460    7.3670 c1        1 HIZ     -0.077167
     12 CAL         1.1460    1.0250    0.1440 c1        1 HIZ     -0.268900
     13 CAM         0.7920    0.9420    7.4220 c1        1 HIZ     -0.057500
     14 CAN         0.9430   -1.3080   -4.7900 c3        1 HIZ      0.144500
     15 CAO         0.1540   -0.9640   -2.5520 c3        1 HIZ      0.056100
     16 NAP        -0.7020   -0.4130    0.7920 ne        1 HIZ     -0.445700
     17 NAQ        -0.5730   -0.1320    5.6950 n         1 HIZ     -0.473700
     18 NAR        -0.3530   -0.5360    3.2570 n         1 HIZ     -0.413400
     19 OAS        -0.1470   -0.8980   -3.9350 os        1 HIZ     -0.435600
     20 SAT         1.1600    0.8210    1.6510 ss        1 HIZ      0.176700
     21 CAU        -0.1550    0.3130    4.4060 c         1 HIZ      0.750100
     22 CAV         0.4850   -1.2900   -6.2390 c1        1 HIZ     -0.054100
     23 CAW        -0.2260    2.3650    9.0690 c1        1 HIZ      0.078100
     24 CAX        -0.4490    0.7370    6.8360 c1        1 HIZ      0.073200
     25 CAY         0.9050    1.7540    8.5370 c1        1 HIZ      0.011900
     26 CAZ         0.0340    0.2910   -0.3900 cg        1 HIZ     -0.019000
     27 CBA        -0.0220   -0.0890    2.0030 c2        1 HIZ      0.297800
     28 CBB        -0.4090    0.2910   -1.8370 c2        1 HIZ      0.312200
     29 HNAA       -2.1380    0.7340   -1.1850 hn        1 HIZ      0.206200
     30 HNAB       -2.0630    0.6540   -2.6650 hn        1 HIZ      0.206200
     31 HAE         0.2380   -1.3750  -10.0060 ha        1 HIZ      0.078500
     32 HAF        -0.3450   -3.3120   -8.7390 ha        1 HIZ      0.078500
     33 HAG         0.9760    0.6160   -8.9140 ha        1 HIZ      0.078500
     34 HAH        -0.1830   -3.2440   -6.3540 ha        1 HIZ      0.078500
     35 HAI         1.1240    0.6490   -6.5440 ha        1 HIZ      0.087500
     36 HAJ        -2.2720    2.5980    8.8670 ha        1 HIZ      0.078500
     37 HAK        -2.4210    1.2070    6.9680 ha        1 HIZ      0.078500
     38 HAL         1.7700    1.5510   -0.3610 DU        1 HIZ      0.185000
     39 HAM         1.5850    0.5120    7.0490 ha        1 HIZ      0.132500
     40 HAN         1.2240   -2.2190   -4.5470 h1        1 HIZ      0.037700
     41 HANA        1.7030   -0.6860   -4.6770 h1        1 HIZ      0.037700
     42 HAO         1.0940   -0.9980   -2.4340 h1        1 HIZ      0.047700
     43 HAOA       -0.2550   -1.7720   -2.1670 h1        1 HIZ      0.047700
     44 HNAQ       -0.9850   -0.9420    5.7830 hn        1 HIZ      0.315500
     45 HNAR       -0.7360   -1.3870    3.3650 hn        1 HIZ      0.303500
     46 HBB        -0.0700    1.1030   -2.2820 h4        1 HIZ     -0.058200
@<TRIPOS>BOND
     1    1   28 2   
     2    1   29 1   
     3    1   30 1   
     4    2   21 2   
     5    3   23 1   
     6    4   25 1   
     7    5    7 3   
     8    5   31 1   
     9    6    8 3   
    10    6   32 1   
    11    7   33 1   
    12    8   34 1   
    13    9   22 3   
    14    9   35 1   
    15   10   11 3   
    16   10   36 1   
    17   11   37 1   
    18   12   20 1   
    19   12   26 3   
    20   13   24 3   
    21   13   39 1   
    22   14   19 1   
    23   14   22 1   
    24   14   40 1   
    25   14   41 1   
    26   15   19 1   
    27   15   28 1   
    28   15   42 1   
    29   15   43 1   
    30   16   26 1   
    31   16   27 2   
    32   17   21 1   
    33   17   24 1   
    34   17   44 1   
    35   18   21 1   
    36   18   27 1   
    37   18   45 1   
    38   20   27 1   
    39   23   25 3   
    40   28   46 1   
@<TRIPOS>SUBSTRUCTURE
     1 HIZ         1 TEMP              0 ****  ****    0 ROOT
