@<TRIPOS>MOLECULE
HIZ
   47    48     1     0     0
SMALL
bcc


@<TRIPOS>ATOM
      1 NAA         1.5450   -1.8330   -1.2510 n8        1 HIZ     -0.355000
      2 OAB         4.3540   -1.9640    5.0420 o         1 HIZ     -0.381000
      3 ClAD        1.7700   -4.2950   10.4410 cl        1 HIZ      0.010000
      4 CAE        -0.3110   -2.7770   -5.1570 c3        1 HIZ     -0.117000
      5 CAF         1.2380   -2.7620   -5.5060 c3        1 HIZ     -0.146000
      6 CAG        -0.8010   -1.7410   -4.2100 c2        1 HIZ     -0.146000
      7 CAH         1.6830   -1.6630   -4.7460 c1        1 HIZ      0.182000
      8 CAI        -0.0570   -0.7870   -3.6270 c2        1 HIZ     -0.091000
      9 CAJ         2.9030   -0.8520   11.2930 c1        1 HIZ     -0.195000
     10 CAK         3.8790   -0.1030   11.6960 c2        1 HIZ     -0.103000
     11 CAL         4.4850   -1.3270    0.9410 c2        1 HIZ     -0.531000
     12 CAM         2.6640   -2.5270    8.7220 c1        1 HIZ     -0.265000
     13 CAN         2.2200    0.4420   -3.3710 c3        1 HIZ      0.034000
     14 CAO         2.3800    0.5030   -0.9720 c3        1 HIZ     -0.032000
     15 NAP         2.2380   -1.3790    1.6120 n2        1 HIZ     -0.176000
     16 NAQ         2.4600   -2.1200    6.3800 ns        1 HIZ     -0.316000
     17 OAS         1.6690    0.8800   -2.1510 os        1 HIZ     -0.250000
     18 SAT         4.6530   -1.5820    2.5670 ss        1 HIZ      0.716000
     19 CAU         3.1020   -1.9500    5.1520 c2        1 HIZ      0.409000
     20 CAV         1.4110   -0.6790   -3.9410 c2        1 HIZ     -0.001000
     21 CAW         1.9260   -1.6350   10.8820 c2        1 HIZ      0.123000
     22 CAX         3.2080   -2.3480    7.5410 c2        1 HIZ      0.088000
     23 CAY         2.1650   -2.7240    9.9080 c2        1 HIZ      0.053000
     24 CAZ         3.1450   -1.2380    0.5750 c2        1 HIZ     -0.134000
     25 CBA         2.9300   -1.5750    2.7650 c2        1 HIZ     -0.167000
     26 CBB         2.6650   -1.0060   -0.8360 c3        1 HIZ      0.012000
     27 HNAA        1.7090   -2.7830   -0.9710 hn        1 HIZ      0.160000
     28 HNAB        0.7020   -1.5160   -0.8080 hn        1 HIZ      0.160000
     29 HAE        -0.8620   -2.6800   -6.1320 hc        1 HIZ      0.154000
     30 HAF         1.3700   -2.6350   -6.6160 hc        1 HIZ      0.170000
     31 HAG        -0.5230   -3.7950   -4.7270 hc        1 HIZ      0.154000
     32 HAH         1.7030   -3.7420   -5.2050 hc        1 HIZ      0.170000
     33 HAI        -1.8860   -1.8040   -3.9950 ha        1 HIZ      0.196000
     34 HAJ         4.4920   -0.3600   12.5750 ha        1 HIZ      0.143000
     35 HAK         4.1520    0.8340   11.1850 ha        1 HIZ      0.143000
     36 HAL         5.3220   -1.2440    0.2490 h4        1 HIZ      0.182000
     37 HAM         4.3110   -2.3600    7.3910 h4        1 HIZ      0.196000
     38 HAN         2.1260    1.3210   -4.0760 h1        1 HIZ      0.134000
     39 HANA        3.2950    0.1350   -3.2730 h1        1 HIZ      0.134000
     40 HAO         1.6970    0.8640   -0.1530 h1        1 HIZ      0.123000
     41 HAOA        3.3530    1.0600   -0.9370 h1        1 HIZ      0.123000
     42 HNAQ        1.4680   -2.1110    6.4440 hn        1 HIZ      0.248000
     43 HNAR        1.3200   -1.7250    4.0450 hn        1 HIZ      0.260000
     44 HBB         3.5260   -1.2710   -1.5230 h1        1 HIZ      0.094000
     45 NAR         2.3130   -1.7570    4.0000 ns        1 HIZ     -0.302000
     46 HAA3       -0.4050   -0.0420   -2.8910 ha        1 HIZ      0.221000
     47 FAC         0.6480   -1.4990   11.3230 f         1 HIZ     -0.087000
@<TRIPOS>BOND
     1    1   26 1   
     2    1   27 1   
     3    1   28 1   
     4    2   19 1   
     5    3   23 1   
     6    4    5 1   
     7    4    6 1   
     8    4   29 1   
     9    4   31 1   
    10    5    7 1   
    11    5   30 1   
    12    5   32 1   
    13    6    8 1   
    14    6   33 1   
    15    7   20 1   
    16    8   20 1   
    17    8   46 1   
    18    9   10 1   
    19    9   21 1   
    20   10   34 1   
    21   10   35 1   
    22   11   18 1   
    23   11   24 1   
    24   11   36 1   
    25   12   22 1   
    26   12   23 1   
    27   13   17 1   
    28   13   20 1   
    29   13   38 1   
    30   13   39 1   
    31   14   17 1   
    32   14   26 1   
    33   14   40 1   
    34   14   41 1   
    35   15   24 1   
    36   15   25 1   
    37   16   19 1   
    38   16   22 1   
    39   16   42 1   
    40   18   25 1   
    41   19   45 1   
    42   21   23 1   
    43   21   47 1   
    44   22   37 1   
    45   24   26 1   
    46   25   45 1   
    47   26   44 1   
    48   43   45 1   
@<TRIPOS>SUBSTRUCTURE
     1 HIZ         1 TEMP              0 ****  ****    0 ROOT
