@<TRIPOS>MOLECULE
HIZ
   47    47     1     0     0
SMALL
bcc


@<TRIPOS>ATOM
      1 NAA         0.5310   -0.2330   -1.5130 n3        1 HIZ     -0.356000
      2 OAB         1.2460   -1.3330    5.1610 o         1 HIZ     -0.419000
      3 CLAD        3.6110   -4.5370   10.1930 cl        1 HIZ      0.015000
      4 CAE        -0.4110   -2.4290   -5.0130 c2        1 HIZ      0.010000
      5 CAF         0.5880   -3.3310   -4.7710 c2        1 HIZ     -0.203000
      6 CAG        -0.2400   -1.0010   -4.7200 c3        1 HIZ     -0.227000
      7 CAH         1.8220   -2.9050   -4.2220 c2        1 HIZ      0.115000
      8 CAI         1.0730   -0.6130   -4.2040 c2        1 HIZ      0.138000
      9 CAJ         4.0930   -0.9300   10.9970 c1        1 HIZ     -0.194000
     10 CAK         3.5810    0.1450   11.5050 c2        1 HIZ     -0.102000
     11 CAL         0.5270   -0.5130    1.3740 c1        1 HIZ     -1.013000
     12 CAM         3.1930   -2.5450    8.5380 c1        1 HIZ     -0.260000
     13 CAN         3.3710   -1.1140   -3.3570 c3        1 HIZ      0.007000
     14 CAO         3.0130   -0.1270   -1.1990 c3        1 HIZ     -0.029000
     15 NAP         2.5950   -1.5620    1.4090 n2        1 HIZ     -0.208000
     16 NAQ         3.1250   -2.2390    6.1730 n         1 HIZ     -0.314000
     17 OAS         3.2080    0.0700   -2.5970 os        1 HIZ     -0.266000
     18 SAT         0.4700   -0.5030    2.8770 sh        1 HIZ      1.283000
     19 CAU         2.4050   -1.8130    5.0590 c2        1 HIZ      0.425000
     20 CAV         2.0590   -1.5550   -3.9440 c2        1 HIZ     -0.193000
     21 CAW         4.5930   -2.0370   10.4850 c2        1 HIZ      0.122000
     22 CAX         2.5640   -2.1560    7.4550 c2        1 HIZ      0.082000
     23 CAY         3.7770   -2.9340    9.6360 c2        1 HIZ      0.055000
     24 CAZ         1.5440   -0.9350    0.6300 c2        1 HIZ      0.095000
     25 CBA         2.3060   -1.5020    2.6850 c1        1 HIZ     -0.180000
     26 CBB         1.6870   -0.8400   -0.8660 c3        1 HIZ     -0.007000
     27 HNAA       -0.3040   -0.5410   -1.0410 hn        1 HIZ      0.163000
     28 HNAB        0.5800    0.7660   -1.4140 hn        1 HIZ      0.163000
     29 HAE        -0.4990   -0.3810   -5.6360 hc        1 HIZ      0.219500
     30 HAF         2.6060   -3.6580   -4.0130 ha        1 HIZ      0.180000
     31 HAG        -1.3840   -2.7480   -5.4300 ha        1 HIZ      0.180000
     32 HAH         0.4470   -4.4040   -4.9920 ha        1 HIZ      0.186000
     33 HAI        -1.0160   -0.6910   -3.9380 hc        1 HIZ      0.219500
     34 HAJ         3.6170    1.1160   10.9870 ha        1 HIZ      0.144000
     35 HAK         3.0810    0.1490   12.4870 ha        1 HIZ      0.144000
     36 HAL        -0.2480   -1.5630    3.1540 hs        1 HIZ     -0.091000
     37 HAM         1.5380   -1.7280    7.4890 h4        1 HIZ      0.194000
     38 HAN         4.0750   -0.8230   -4.1880 h1        1 HIZ      0.119500
     39 HANA        3.8260   -1.9410   -2.7490 h1        1 HIZ      0.119500
     40 HAO         3.8690   -0.7150   -0.7760 h1        1 HIZ      0.122000
     41 HAOA        3.0250    0.9210   -0.7920 h1        1 HIZ      0.122000
     42 HNAQ        4.0410   -2.6150    6.0770 hn        1 HIZ      0.250000
     43 HNAR        3.9070   -2.3370    3.6780 hn        1 HIZ      0.248000
     44 HBB         1.7540   -1.8990   -1.2680 h1        1 HIZ      0.098000
     45 NAR         3.0030   -1.9290    3.7820 n         1 HIZ     -0.278000
     46 HAA3        1.2700    0.4620   -4.0110 ha        1 HIZ      0.202000
     47 FAC         5.8750   -2.4270   10.7040 f         1 HIZ     -0.085000
@<TRIPOS>BOND
     1    1   26 1   
     2    1   27 1   
     3    1   28 1   
     4    2   19 1   
     5    3   23 1   
     6    4    5 1   
     7    4    6 1   
     8    4   31 1   
     9    5    7 1   
    10    5   32 1   
    11    6    8 1   
    12    6   29 1   
    13    6   33 1   
    14    7   20 1   
    15    7   30 1   
    16    8   20 1   
    17    8   46 1   
    18    9   10 1   
    19    9   21 1   
    20   10   34 1   
    21   10   35 1   
    22   11   18 1   
    23   11   24 1   
    24   12   22 1   
    25   12   23 1   
    26   13   17 1   
    27   13   20 1   
    28   13   38 1   
    29   13   39 1   
    30   14   17 1   
    31   14   26 1   
    32   14   40 1   
    33   14   41 1   
    34   15   24 1   
    35   15   25 1   
    36   16   19 1   
    37   16   22 1   
    38   16   42 1   
    39   18   36 1   
    40   19   45 1   
    41   21   23 1   
    42   21   47 1   
    43   22   37 1   
    44   24   26 1   
    45   25   45 1   
    46   26   44 1   
    47   43   45 1   
@<TRIPOS>SUBSTRUCTURE
     1 HIZ         1 TEMP              0 ****  ****    0 ROOT
