@<TRIPOS>MOLECULE
HIZ
   46    48     1     0     0
SMALL
bcc


@<TRIPOS>ATOM
      1 NAA         2.9630   -0.6300    1.7120 n3        1 HIZ     -0.889800
      2 OAB        -2.4700   -1.3380   -0.0890 o         1 HIZ     -0.588100
      3 CLAD       -8.6380    1.3780    0.1450 cl        1 HIZ     -0.066400
      4 CAE        10.2870    0.0860    0.4140 ca        1 HIZ     -0.129000
      5 CAF        10.0020    1.0800   -0.5220 ca        1 HIZ     -0.133000
      6 CAG         9.2480   -0.5430    1.0990 ca        1 HIZ     -0.133000
      7 CAH         8.6810    1.4460   -0.7740 ca        1 HIZ     -0.114500
      8 CAI         7.9250   -0.1770    0.8540 ca        1 HIZ     -0.114500
      9 CAJ        -6.1600   -1.3650    1.6880 ca        1 HIZ     -0.137000
     10 CAK        -4.9300   -0.9490    1.2020 ca        1 HIZ     -0.111000
     11 CAL         1.7080   -1.5720   -1.6360 cc        1 HIZ     -0.270400
     12 CAM        -6.0200    0.8990    0.0570 ca        1 HIZ     -0.157000
     13 CAN         6.2340    1.2560   -0.3450 c3        1 HIZ      0.175700
     14 CAO         3.9880    0.5250   -0.2390 c3        1 HIZ      0.138400
     15 NAP         0.7940    0.0640   -0.2350 nd        1 HIZ     -0.654000
     16 NAQ        -3.6070    0.6940   -0.0890 n         1 HIZ     -0.457100
     17 OAS         5.3530    0.1760   -0.0290 os        1 HIZ     -0.412600
     18 SAT         0.2030   -1.3880   -2.2990 ss        1 HIZ      0.034700
     19 CAU        -2.5120   -0.1330   -0.4080 c         1 HIZ      0.748100
     20 CAV         7.6370    0.8200   -0.0830 ca        1 HIZ     -0.089300
     21 CAW        -7.3370   -0.6590    1.3770 ca        1 HIZ      0.114900
     22 CAX        -4.8390    0.1930    0.3770 ca        1 HIZ      0.056600
     23 CAY        -7.2550    0.4840    0.5550 ca        1 HIZ      0.000400
     24 CAZ         1.8850   -0.7280   -0.5390 cd        1 HIZ      0.299600
     25 CBA        -0.1980   -0.1900   -1.1190 cc        1 HIZ      0.441300
     26 CBB         3.1570   -0.6700    0.2810 c3        1 HIZ      0.149200
     27 HNAA        2.5520    0.2370    1.9990 hn        1 HIZ      0.357800
     28 HNAB        2.3740   -1.3850    2.0040 hn        1 HIZ      0.357800
     29 HAE        11.3300   -0.2030    0.6100 ha        1 HIZ      0.130000
     30 HAF        10.8200    1.5760   -1.0640 ha        1 HIZ      0.131000
     31 HAG         9.4700   -1.3290    1.8350 ha        1 HIZ      0.131000
     32 HAH         8.4590    2.2270   -1.5160 ha        1 HIZ      0.141500
     33 HAI         7.0980   -0.6720    1.3890 ha        1 HIZ      0.141500
     34 HAJ        -6.2270   -2.2590    2.3280 ha        1 HIZ      0.159000
     35 HAK        -4.0250   -1.5270    1.4590 ha        1 HIZ      0.180000
     36 HAL         2.4620   -2.2680   -2.0030 h4        1 HIZ      0.190000
     37 HAM        -5.9830    1.7930   -0.5870 ha        1 HIZ      0.149000
     38 HAN         6.0980    1.5400   -1.4250 h1        1 HIZ      0.034200
     39 HANA        5.9820    2.1440    0.2990 h1        1 HIZ      0.034200
     40 HAO         3.7380    1.4760    0.3010 h1        1 HIZ      0.035200
     41 HAOA        3.8100    0.6660   -1.3380 h1        1 HIZ      0.035200
     42 HNAQ       -3.6650    1.5840   -0.5370 hn        1 HIZ      0.314500
     43 HNAR       -1.3620    1.4590   -1.0670 hn        1 HIZ      0.302500
     44 HBB         3.7430   -1.6150    0.0580 h1        1 HIZ      0.087700
     45 NAR        -1.4480    0.4640   -1.1660 n         1 HIZ     -0.489400
     46 FAC        -8.5200   -1.0910    1.8730 f         1 HIZ     -0.124900
@<TRIPOS>BOND
     1    1   26 1   
     2    1   27 1   
     3    1   28 1   
     4    2   19 2   
     5    3   23 1   
     6    4    5 ar  
     7    4    6 ar  
     8    4   29 1   
     9    5    7 ar  
    10    5   30 1   
    11    6    8 ar  
    12    6   31 1   
    13    7   20 ar  
    14    7   32 1   
    15    8   20 ar  
    16    8   33 1   
    17    9   10 ar  
    18    9   21 ar  
    19    9   34 1   
    20   10   22 ar  
    21   10   35 1   
    22   11   18 1   
    23   11   24 2   
    24   11   36 1   
    25   12   22 ar  
    26   12   23 ar  
    27   12   37 1   
    28   13   17 1   
    29   13   20 1   
    30   13   38 1   
    31   13   39 1   
    32   14   17 1   
    33   14   26 1   
    34   14   40 1   
    35   14   41 1   
    36   15   24 1   
    37   15   25 2   
    38   16   19 1   
    39   16   22 1   
    40   16   42 1   
    41   18   25 1   
    42   19   45 1   
    43   21   23 ar  
    44   21   46 1   
    45   24   26 1   
    46   25   45 1   
    47   26   44 1   
    48   43   45 1   
@<TRIPOS>SUBSTRUCTURE
     1 HIZ         1 TEMP              0 ****  ****    0 ROOT
