@<TRIPOS>MOLECULE
HIZ
   46    47     1     0     0
SMALL
bcc


@<TRIPOS>ATOM
      1 NAA         0.6980    1.4480   -0.9910 n3        1 HIZ     -0.350000
      2 OAB         4.0420   -0.5010    4.6110 o         1 HIZ     -0.349000
      3 CLAD        3.9820   -5.6010    8.5350 cl        1 HIZ     -0.008000
      4 CAE         1.1360   -3.3310   -6.2480 c2        1 HIZ     -0.119000
      5 CAF         1.9720   -2.3130   -5.9420 c2        1 HIZ     -0.189000
      6 CAG         0.3660   -4.0230   -5.1910 c3        1 HIZ     -0.209000
      7 CAH         2.1320   -1.8830   -4.5790 c2        1 HIZ      0.005000
      8 CAI         0.5360   -3.5650   -3.8170 c1        1 HIZ     -0.092000
      9 CAJ         3.5630   -2.4530   10.6290 c1        1 HIZ     -0.203000
     10 CAK         2.8390   -1.4860   11.0930 c2        1 HIZ     -0.113000
     11 CAL         1.8330    2.0380    1.6220 c2        1 HIZ     -0.447000
     12 CAM         4.0300   -3.1050    7.7260 c1        1 HIZ     -0.278000
     13 CAN         1.5890   -2.0900   -2.1380 c3        1 HIZ      0.029000
     14 CAO         2.4270   -0.3320   -0.7630 c3        1 HIZ     -0.023000
     15 NAP         1.3980   -0.1700    2.2640 n2        1 HIZ     -0.123000
     16 NAQ         2.8530   -1.7730    6.1260 n         1 HIZ     -0.330000
     17 OAS         2.2020   -0.7970   -2.0860 os        1 HIZ     -0.301000
     18 SAT         2.1050    2.1190    3.2540 ss        1 HIZ      0.598000
     19 CAU         2.9360   -0.8130    5.0970 c2        1 HIZ      0.379000
     20 CAV         1.4400   -2.4920   -3.5680 c2        1 HIZ     -0.192000
     21 CAW         4.2880   -3.4390   10.1370 c2        1 HIZ      0.139000
     22 CAX         4.0120   -2.3220    6.6700 c2        1 HIZ      0.103000
     23 CAY         4.1070   -3.9090    8.7460 c2        1 HIZ      0.039000
     24 CAZ         1.4580    0.7510    1.2310 c2        1 HIZ     -0.081000
     25 CBA         1.7230    0.4410    3.4240 c2        1 HIZ     -0.224000
     26 CBB         1.1510    0.3270   -0.1860 c3        1 HIZ      0.014000
     27 HNAA        0.8850    1.2700   -1.9590 hn        1 HIZ      0.158000
     28 HNAB       -0.2810    1.5980   -0.8570 hn        1 HIZ      0.158000
     29 HAE        -0.7400   -3.9590   -5.4230 hc        1 HIZ      0.164000
     30 HAF         2.8250   -1.0470   -4.3760 ha        1 HIZ      0.152000
     31 HAG         1.0010   -3.6770   -7.2840 ha        1 HIZ      0.130000
     32 HAH         2.5510   -1.7880   -6.7160 ha        1 HIZ      0.137000
     33 HAI         0.6170   -5.1270   -5.1990 hc        1 HIZ      0.164000
     34 HAJ         3.1450   -0.4310   11.0110 ha        1 HIZ      0.136500
     35 HAK         1.8770   -1.6630   11.5990 ha        1 HIZ      0.136500
     36 HAL         1.9340    2.8800    0.9360 h4        1 HIZ      0.201000
     37 HAM         4.9510   -2.0540    6.1340 h4        1 HIZ      0.195000
     38 HAN         2.2380   -2.8320   -1.5970 h1        1 HIZ      0.088500
     39 HANA        0.5830   -2.0530   -1.6400 h1        1 HIZ      0.088500
     40 HAO         3.2510    0.4230   -0.8740 h1        1 HIZ      0.106500
     41 HAOA        2.7530   -1.1640   -0.0870 h1        1 HIZ      0.106500
     42 HNAQ        1.9860   -1.9570    6.5750 hn        1 HIZ      0.238000
     43 HNAR        0.8840   -0.6830    4.8780 hn        1 HIZ      0.217000
     44 HBB         0.3540   -0.4830   -0.1400 h1        1 HIZ      0.083000
     45 NAR         1.7250   -0.1620    4.7010 n         1 HIZ     -0.248000
     46 FAC         5.2350   -4.0730   10.8770 f         1 HIZ     -0.089000
@<TRIPOS>BOND
     1    1   26 1   
     2    1   27 1   
     3    1   28 1   
     4    2   19 1   
     5    3   23 1   
     6    4    5 1   
     7    4    6 1   
     8    4   31 1   
     9    5    7 1   
    10    5   32 1   
    11    6    8 1   
    12    6   29 1   
    13    6   33 1   
    14    7   20 1   
    15    7   30 1   
    16    8   20 1   
    17    9   10 1   
    18    9   21 1   
    19   10   34 1   
    20   10   35 1   
    21   11   18 1   
    22   11   24 1   
    23   11   36 1   
    24   12   22 1   
    25   12   23 1   
    26   13   17 1   
    27   13   20 1   
    28   13   38 1   
    29   13   39 1   
    30   14   17 1   
    31   14   26 1   
    32   14   40 1   
    33   14   41 1   
    34   15   24 1   
    35   15   25 1   
    36   16   19 1   
    37   16   22 1   
    38   16   42 1   
    39   18   25 1   
    40   19   45 1   
    41   21   23 1   
    42   21   46 1   
    43   22   37 1   
    44   24   26 1   
    45   25   45 1   
    46   26   44 1   
    47   43   45 1   
@<TRIPOS>SUBSTRUCTURE
     1 HIZ         1 TEMP              0 ****  ****    0 ROOT
