@<TRIPOS>MOLECULE
HJ2
   46    46     1     0     0
SMALL
bcc


@<TRIPOS>ATOM
      1 C7          1.5080   -0.7430    0.8800 c3        1 HJ2     -0.037300
      2 H7          1.3370   -1.7480    0.3880 h1        1 HJ2      0.081700
      3 C6          2.6200   -0.0400    0.0570 c3        1 HJ2      0.369600
      4 S1          2.7670    1.7330    0.5650 ss        1 HJ2     -0.480200
      5 C2          3.9740    2.2060   -0.6450 c3        1 HJ2      0.100900
      6 N5          3.8680   -0.7280    0.0280 nh        1 HJ2     -0.716000
      7 C4          4.9870   -0.1000   -0.5140 ce        1 HJ2      0.113800
      8 C13         6.2260   -1.0030   -0.7120 c         1 HJ2      0.919800
      9 O14         6.9140   -1.2970    0.3020 o         1 HJ2     -0.836800
     10 O15         6.5040   -1.3780   -1.8870 o         1 HJ2     -0.836800
     11 C3          5.0370    1.2100   -0.8980 c2        1 HJ2     -0.313400
     12 N2          0.2730    0.0120    0.8310 n         1 HJ2     -0.512900
     13 H6          2.2660    0.0530   -1.0120 h2        1 HJ2      0.051700
     14 H2          3.4460    2.4510   -1.6020 h1        1 HJ2      0.026700
     15 HN5         4.0490   -1.3490    0.8000 hn        1 HJ2      0.469800
     16 C81         6.2170    1.7690   -1.5970 c3        1 HJ2     -0.002900
     17 H4          4.4260    3.1540   -0.2550 h1        1 HJ2      0.026700
     18 H5          0.1600    0.6230    1.6140 hn        1 HJ2      0.321500
     19 C9         -0.8630   -0.4110    0.1820 c         1 HJ2      0.646100
     20 C10        -2.1400    0.3620    0.4980 c3        1 HJ2     -0.153400
     21 O5         -0.8610   -1.3390   -0.6590 o         1 HJ2     -0.656100
     22 C11        -3.3190   -0.1010   -0.3310 c3        1 HJ2     -0.070400
     23 H61        -2.3720    0.2310    1.5880 hc        1 HJ2      0.051700
     24 H71        -1.9620    1.4550    0.3170 hc        1 HJ2      0.051700
     25 C12        -4.5840    0.6330    0.0700 c3        1 HJ2     -0.078400
     26 H8         -3.1020    0.0670   -1.4180 hc        1 HJ2      0.048200
     27 H9         -3.4550   -1.2060   -0.1970 hc        1 HJ2      0.048200
     28 C131       -5.7870    0.1800   -0.7310 c3        1 HJ2     -0.066400
     29 H10        -4.7720    0.4690    1.1640 hc        1 HJ2      0.030200
     30 H11        -4.4370    1.7360   -0.0750 hc        1 HJ2      0.030200
     31 C14        -7.0700    0.9160   -0.3350 c3        1 HJ2      0.027500
     32 H12        -5.6150    0.3760   -1.8230 hc        1 HJ2      0.044200
     33 H13        -5.9260   -0.9250   -0.6080 hc        1 HJ2      0.044200
     34 C15        -8.1770    0.6030   -1.3930 c         1 HJ2      0.887600
     35 N3         -7.4840    0.6800    1.0430 n3        1 HJ2     -0.895800
     36 H14        -6.8700    2.0260   -0.4110 h1        1 HJ2      0.040700
     37 O6         -7.9630    0.9380   -2.5920 o         1 HJ2     -0.856300
     38 O7         -9.2540    0.0600   -1.0010 o         1 HJ2     -0.856300
     39 H15         6.7970    2.4410   -0.9140 hc        1 HJ2      0.011367
     40 H16         6.8960    0.9580   -1.9610 hc        1 HJ2      0.011367
     41 H17         5.8940    2.3820   -2.4780 hc        1 HJ2      0.011367
     42 H18        -8.4900    0.7430    1.0740 hn        1 HJ2      0.327800
     43 H19        -7.2500   -0.2630    1.2980 hn        1 HJ2      0.327800
     44 C8          1.9480   -1.0460    2.3580 c         1 HJ2      0.913600
     45 O4          2.8460   -1.9180    2.5090 o         1 HJ2     -0.833300
     46 O9          1.3510   -0.4630    3.3080 o         1 HJ2     -0.833300
@<TRIPOS>BOND
     1    1    2 1   
     2    1    3 1   
     3    1   12 1   
     4    1   44 1   
     5    3    4 1   
     6    3    6 1   
     7    3   13 1   
     8    4    5 1   
     9    5   11 1   
    10    5   14 1   
    11    5   17 1   
    12    6    7 1   
    13    6   15 1   
    14    7    8 1   
    15    7   11 2   
    16    8    9 1   
    17    8   10 1   
    18   11   16 1   
    19   12   18 1   
    20   12   19 1   
    21   16   39 1   
    22   16   40 1   
    23   16   41 1   
    24   19   20 1   
    25   19   21 2   
    26   20   22 1   
    27   20   23 1   
    28   20   24 1   
    29   22   25 1   
    30   22   26 1   
    31   22   27 1   
    32   25   28 1   
    33   25   29 1   
    34   25   30 1   
    35   28   31 1   
    36   28   32 1   
    37   28   33 1   
    38   31   34 1   
    39   31   35 1   
    40   31   36 1   
    41   34   37 1   
    42   34   38 1   
    43   35   42 1   
    44   35   43 1   
    45   44   45 1   
    46   44   46 1   
@<TRIPOS>SUBSTRUCTURE
     1 HJ2         1 TEMP              0 ****  ****    0 ROOT
