@<TRIPOS>MOLECULE
HJ2
   48    47     1     0     0
SMALL
bcc


@<TRIPOS>ATOM
      1 C7          1.0520   -0.5210    1.2900 c2        1 HJ2     -0.410000
      2 H7          0.0180   -2.3410    0.8210 h4        1 HJ2      0.124000
      3 C6          0.0650   -1.2610    0.5230 c2        1 HJ2      0.067000
      4 S1         -0.9250    3.4730    0.4750 sh        1 HJ2     -0.086000
      5 C2         -1.5650    1.8710    0.8950 c3        1 HJ2     -0.246000
      6 N5         -0.7970   -1.0060   -0.3940 n2        1 HJ2     -0.275000
      7 C4         -1.0640    0.2680   -1.0080 c3        1 HJ2     -0.016000
      8 C13        -1.5760   -0.0120   -2.4130 c2        1 HJ2      0.255000
      9 O14        -0.9800   -0.0190   -3.4820 o         1 HJ2     -0.308000
     10 O15        -2.9740   -0.2760   -2.5020 os        1 HJ2     -0.140000
     11 C3         -2.1250    1.1210   -0.2830 c3        1 HJ2     -0.160000
     12 N2          1.4480   -1.0000    2.5710 n3        1 HJ2     -0.276000
     13 H6          0.2510    3.1150   -0.0420 hs        1 HJ2      0.075000
     14 H2         -2.3820    2.0880    1.6280 h1        1 HJ2      0.120000
     15 HN5        -0.1330    0.9020   -1.1530 h1        1 HJ2      0.138000
     16 C81        -3.5470   -0.7430   -3.5540 c1        1 HJ2      0.003000
     17 H4         -0.7790    1.2660    1.4130 h1        1 HJ2      0.120000
     18 H5          1.8750   -1.9040    2.4790 hn        1 HJ2      0.136500
     19 C9          3.6530    0.8270    2.2530 c2        1 HJ2      0.390000
     20 C10         4.3250    1.4560    3.4120 c3        1 HJ2     -0.249000
     21 O5          4.0900   -0.2310    1.5720 os        1 HJ2     -0.203000
     22 C11         5.2790   -0.9270    2.0370 c3        1 HJ2     -0.021000
     23 H61         4.4180    0.7050    4.2440 hc        1 HJ2      0.151333
     24 H71         3.7390    2.3390    3.7660 hc        1 HJ2      0.151333
     25 C12         4.9390   -1.8650    3.1760 c3        1 HJ2     -0.183000
     26 H8          5.3610    1.7780    3.1270 hc        1 HJ2      0.151333
     27 H9          5.5840   -1.4880    1.1120 h1        1 HJ2      0.123500
     28 C131        6.1520   -2.1910    4.0230 c3        1 HJ2     -0.151000
     29 H10         4.5110   -2.8090    2.7480 hc        1 HJ2      0.088500
     30 H11         4.1360   -1.4090    3.8150 hc        1 HJ2      0.088500
     31 C14         6.4500   -1.1510    5.1020 c3        1 HJ2     -0.149000
     32 H12         5.9600   -3.1610    4.5630 hc        1 HJ2      0.104000
     33 H13         7.0460   -2.3440    3.3660 hc        1 HJ2      0.104000
     34 C15         7.3060   -1.8390    6.2290 c2        1 HJ2      0.314000
     35 N3          7.0400    0.0800    4.5860 n3        1 HJ2     -0.351000
     36 H14         5.4760   -0.8600    5.5950 h1        1 HJ2      0.075000
     37 O6          6.9130   -2.9600    6.6450 o         1 HJ2     -0.563000
     38 O7          8.3150   -1.2110    6.6550 o         1 HJ2     -0.563000
     39 H15        -2.9140   -0.9650   -4.4460 ha        1 HJ2      0.027000
     40 H16        -2.9670    0.4580    0.0520 hc        1 HJ2      0.107000
     41 H17        -2.5560    1.8480   -1.0230 hc        1 HJ2      0.107000
     42 H18         6.0630   -0.1760    2.3090 h1        1 HJ2      0.123500
     43 H19         7.3160    0.6300    5.3840 hn        1 HJ2      0.135500
     44 C8          1.6850    0.5960    0.7640 c2        1 HJ2      0.389000
     45 O4          1.7400    1.2680   -0.2630 o         1 HJ2     -0.368000
     46 O9          2.5790    1.3460    1.7590 os        1 HJ2     -0.222000
     47 H22         0.6430   -1.0850    3.1630 hn        1 HJ2      0.136500
     48 H33         7.8940   -0.1590    4.1090 hn        1 HJ2      0.135500
@<TRIPOS>BOND
     1    1    3 1   
     2    1   12 1   
     3    1   44 1   
     4    2    3 1   
     5    3    6 1   
     6    4    5 1   
     7    4   13 1   
     8    5   11 1   
     9    5   14 1   
    10    5   17 1   
    11    6    7 1   
    12    7    8 1   
    13    7   11 1   
    14    7   15 1   
    15    8    9 1   
    16    8   10 1   
    17   10   16 1   
    18   11   40 1   
    19   11   41 1   
    20   12   18 1   
    21   12   47 1   
    22   16   39 1   
    23   19   20 1   
    24   19   21 1   
    25   19   46 1   
    26   20   23 1   
    27   20   24 1   
    28   20   26 1   
    29   21   22 1   
    30   22   25 1   
    31   22   27 1   
    32   22   42 1   
    33   25   28 1   
    34   25   29 1   
    35   25   30 1   
    36   28   31 1   
    37   28   32 1   
    38   28   33 1   
    39   31   34 1   
    40   31   35 1   
    41   31   36 1   
    42   34   37 1   
    43   34   38 1   
    44   35   43 1   
    45   35   48 1   
    46   44   45 1   
    47   44   46 1   
@<TRIPOS>SUBSTRUCTURE
     1 HJ2         1 TEMP              0 ****  ****    0 ROOT
