@<TRIPOS>MOLECULE
HJ2
   48    46     1     0     0
SMALL
bcc


@<TRIPOS>ATOM
      1 C7          2.9800   -0.6860    0.9230 c3        1 HJ2     -0.030500
      2 H7          2.8880   -1.7830    0.6740 hx        1 HJ2      0.100700
      3 C6          1.6210   -0.0120    0.6930 c3        1 HJ2      0.358600
      4 S1          1.6920    1.7080    1.3770 ss        1 HJ2     -0.551200
      5 C2         -0.0260    2.1170    1.1090 c3        1 HJ2      0.121900
      6 N5          1.0960   -0.1250   -0.6130 nu        1 HJ2     -0.696000
      7 C4         -0.1080    0.5510   -0.8800 ce        1 HJ2      0.068800
      8 C13        -0.8140    0.0600   -2.1790 c         1 HJ2      0.929800
      9 O14        -0.2390    0.3140   -3.2650 o         1 HJ2     -0.802800
     10 O15        -1.8980   -0.5590   -2.0280 o         1 HJ2     -0.802800
     11 C3         -0.6520    1.5120   -0.0880 c2        1 HJ2     -0.266400
     12 N2          3.3850   -0.5700    2.3690 ny        1 HJ2     -0.664800
     13 H6          0.8590   -0.4860    1.3860 h2        1 HJ2      0.036700
     14 H2         -0.5950    1.8300    2.0290 h1        1 HJ2      0.051200
     15 HN5         1.7550   -0.1230   -1.3760 hn        1 HJ2      0.473800
     16 C81        -1.9780    2.1040   -0.4010 c3        1 HJ2     -0.026900
     17 H4         -0.0380    3.2330    1.0200 h1        1 HJ2      0.051200
     18 H5          4.4350   -0.5330    2.3650 hn        1 HJ2      0.488300
     19 C9          2.9090   -1.6950    3.2060 c         1 HJ2      0.547100
     20 C10         1.5140   -1.6370    3.7610 c3        1 HJ2     -0.159400
     21 O5          3.6940   -2.6250    3.3880 o         1 HJ2     -0.477100
     22 C11         1.1430   -0.2940    4.3530 c3        1 HJ2     -0.109400
     23 H61         0.7980   -1.9060    2.9340 hc        1 HJ2      0.100700
     24 H71         1.4380   -2.4390    4.5470 hc        1 HJ2      0.100700
     25 C12        -0.1660   -0.3890    5.0950 c3        1 HJ2     -0.092100
     26 H8          1.9490    0.0490    5.0550 hc        1 HJ2      0.068700
     27 H9          1.0480    0.4820    3.5360 hc        1 HJ2      0.068700
     28 C131        8.1730   -3.2700    3.3430 c2        1 HJ2     -0.354000
     29 H10        -0.9840   -0.7170    4.4090 hc        1 HJ2      0.042700
     30 H11        -0.0960   -1.1200    5.9370 hc        1 HJ2      0.042700
     31 C14         7.2000   -2.5130    2.8040 c2        1 HJ2      0.046000
     32 H12         9.2310   -2.9900    3.3370 ha        1 HJ2      0.108500
     33 H13         7.9390   -4.2210    3.8310 ha        1 HJ2      0.108500
     34 C15         6.4150    1.4470    2.3400 c1        1 HJ2      0.954000
     35 N3          7.3490   -1.2420    2.2660 nv        1 HJ2     -0.854600
     36 H14         6.1440   -2.8560    2.8340 h4        1 HJ2      0.132000
     37 O6          5.4890    1.2330    3.0660 o         1 HJ2     -0.478500
     38 O7          7.3780    1.6980    1.6940 o         1 HJ2     -0.478500
     39 H15        -2.5900    2.2000    0.5310 hc        1 HJ2      0.034367
     40 H16        -1.8500    3.1250   -0.8390 hc        1 HJ2      0.034367
     41 H17        -2.5380    1.4660   -1.1310 hc        1 HJ2      0.034367
     42 H18        -0.4370    0.6100    5.5140 hc        1 HJ2      0.042700
     43 H19         6.7180   -1.0290    1.5150 hn        1 HJ2      0.403300
     44 C8          4.1660   -0.1500    0.0020 c         1 HJ2      0.953600
     45 O4          3.9520   -0.1270   -1.2180 o         1 HJ2     -0.776800
     46 O9          5.2450    0.1210    0.6110 o         1 HJ2     -0.776800
     47 H22         3.0450    0.3350    2.7370 hn        1 HJ2      0.488300
     48 H33         8.2870   -0.9800    2.0530 hn        1 HJ2      0.403300
@<TRIPOS>BOND
     1    1    2 1   
     2    1    3 1   
     3    1   12 1   
     4    1   44 1   
     5    3    4 1   
     6    3    6 1   
     7    3   13 1   
     8    4    5 1   
     9    5   11 1   
    10    5   14 1   
    11    5   17 1   
    12    6    7 1   
    13    6   15 1   
    14    7    8 1   
    15    7   11 2   
    16    8    9 1   
    17    8   10 1   
    18   11   16 1   
    19   12   18 1   
    20   12   19 1   
    21   12   47 1   
    22   16   39 1   
    23   16   40 1   
    24   16   41 1   
    25   19   20 1   
    26   19   21 2   
    27   20   22 1   
    28   20   23 1   
    29   20   24 1   
    30   22   25 1   
    31   22   26 1   
    32   22   27 1   
    33   25   29 1   
    34   25   30 1   
    35   25   42 1   
    36   28   31 2   
    37   28   32 1   
    38   28   33 1   
    39   31   35 1   
    40   31   36 1   
    41   34   37 2   
    42   34   38 2   
    43   35   43 1   
    44   35   48 1   
    45   44   45 1   
    46   44   46 1   
@<TRIPOS>SUBSTRUCTURE
     1 HJ2         1 TEMP              0 ****  ****    0 ROOT
