@<TRIPOS>MOLECULE
HJ3
   50    41     1     0     0
SMALL
bcc


@<TRIPOS>ATOM
      1 O11        -0.9700   -0.8090   -0.3220 o         1 HJ3     -0.411000
      2 C10        -0.2380   -0.6880    0.6880 c2        1 HJ3      0.268000
      3 CA1        -0.8130   -0.2450    2.0230 c3        1 HJ3     -0.273000
      4 CB1        -1.0610   -1.2640    3.0120 c1        1 HJ3     -0.049000
      5 N9          1.0930   -0.9930    0.6270 nt        1 HJ3     -0.440000
      6 C6          0.1620   -1.6430   -4.2440 c2        1 HJ3     -0.380000
      7 C7          0.5560   -1.5340   -5.4960 c1        1 HJ3      0.279000
      8 O8          0.9040   -1.4610   -6.6320 o         1 HJ3     -0.150000
      9 C5          0.8330   -0.9850   -3.1220 c3        1 HJ3     -0.161000
     10 S1          2.1550   -1.9700   -2.4220 sh        1 HJ3     -0.104000
     11 N4          2.1240    4.6210   -6.4930 n1        1 HJ3      0.048000
     12 C3          2.5660    3.7340   -5.8880 c1        1 HJ3     -0.138000
     13 C12         3.0930    2.6240   -5.1330 c2        1 HJ3      0.416000
     14 O14         4.4620    2.6260   -5.1260 os        1 HJ3     -0.207000
     15 O13         2.4490    1.7690   -4.5330 o         1 HJ3     -0.297000
     16 C2          4.8780    0.3150   -4.6440 c1        1 HJ3     -0.204000
     17 C16         4.6140   -0.9520   -4.7260 c2        1 HJ3     -0.114000
     18 C15         5.1510    1.5820   -4.4990 c2        1 HJ3      0.002000
     19 HA1        -1.8040    0.2650    1.8290 hc        1 HJ3      0.175500
     20 HA1A       -0.8450   -2.3080    2.7380 ha        1 HJ3      0.049000
     21 C121        1.7030   -1.3450    4.9320 c3        1 HJ3     -0.285000
     22 HB1         1.5130   -2.4350    5.0530 hc        1 HJ3      0.077750
     23 HB1A        3.8310   -1.8100    1.9710 ha        1 HJ3      0.000500
     24 HN9         1.6890   -0.7810    1.3930 hn        1 HJ3      0.240000
     25 H6          1.5020   -1.2550   -0.2470 hn        1 HJ3      0.240000
     26 H7         -0.7380   -2.2410   -4.0260 ha        1 HJ3      0.185000
     27 H5          0.0870   -0.7640   -2.3110 h1        1 HJ3      0.147500
     28 HN4         1.3380   -0.0290   -3.4180 h1        1 HJ3      0.147500
     29 H3          3.9720   -1.4680   -3.9820 ha        1 HJ3      0.154000
     30 H16         5.0030   -1.5810   -5.5420 ha        1 HJ3      0.154000
     31 H16A        3.0820   -1.5270   -7.7640 ha        1 HJ3      0.000500
     32 H16B        3.3580   -1.4590   -7.1490 ha        1 HJ3      0.000500
     33 H15         3.7180    2.9380   -1.9940 ha        1 HJ3      0.000500
     34 H15A        3.8500    2.7070   -2.6170 ha        1 HJ3      0.000500
     35 H15B        6.0090    2.0100   -3.9540 h4        1 HJ3      0.180000
     36 C13         2.2360    0.6340    3.1520 c1        1 HJ3      0.073000
     37 H18         3.6510   -1.2810    2.3550 ha        1 HJ3      0.000500
     38 H19        -0.1380    0.5280    2.5030 hc        1 HJ3      0.175500
     39 H20         0.8800   -0.9000    4.3230 hc        1 HJ3      0.077750
     40 H21         1.7260   -0.8610    5.9340 hc        1 HJ3      0.077750
     41 C14         2.9020    1.5550    3.8410 c2        1 HJ3     -0.342000
     42 N3          3.2490    1.6570    5.1930 n8        1 HJ3     -0.286000
     43 H22         3.1370    2.4710    3.2390 h4        1 HJ3      0.191000
     44 C151        1.2840    2.0630    7.2700 c1        1 HJ3      0.430000
     45 O6          0.9060    3.1600    7.0140 o         1 HJ3     -0.215000
     46 H24         2.6840   -1.2100    4.4190 hc        1 HJ3      0.077750
     47 H25         4.1300    2.1170    5.3160 hn        1 HJ3      0.174500
     48 O5          1.6570    0.9660    7.5450 o         1 HJ3     -0.215000
     49 H92         1.5360   -3.1340   -2.3020 hs        1 HJ3      0.052000
     50 H33         3.2480    0.7660    5.6550 hn        1 HJ3      0.174500
@<TRIPOS>BOND
     1    1    2 1   
     2    2    3 1   
     3    2    5 1   
     4    3    4 1   
     5    3   19 1   
     6    3   38 1   
     7    4   20 1   
     8    5   24 1   
     9    5   25 1   
    10    6    7 1   
    11    6    9 1   
    12    6   26 1   
    13    7    8 1   
    14    9   10 1   
    15    9   27 1   
    16    9   28 1   
    17   10   49 1   
    18   11   12 1   
    19   12   13 1   
    20   13   14 1   
    21   13   15 1   
    22   14   18 1   
    23   16   17 1   
    24   16   18 1   
    25   17   29 1   
    26   17   30 1   
    27   18   35 1   
    28   21   22 1   
    29   21   39 1   
    30   21   40 1   
    31   21   46 1   
    32   23   37 1   
    33   31   32 1   
    34   33   34 1   
    35   36   41 1   
    36   41   42 1   
    37   41   43 1   
    38   42   47 1   
    39   42   50 1   
    40   44   45 1   
    41   44   48 1   
@<TRIPOS>SUBSTRUCTURE
     1 HJ3         1 TEMP              0 ****  ****    0 ROOT
