@<TRIPOS>MOLECULE
HJ3
   48    47     1     0     0
SMALL
bcc


@<TRIPOS>ATOM
      1 O11        -1.0210   -0.8310    0.8630 o         1 HJ3     -0.391000
      2 C10         0.0900   -0.3770    0.6790 c1        1 HJ3      0.304000
      3 CA1         1.1310   -0.4590    1.7740 c2        1 HJ3     -0.173000
      4 CB1         0.4590   -0.3140    3.1210 c3        1 HJ3     -0.147000
      5 N9          0.4230    0.2000   -0.5730 n3        1 HJ3     -0.363000
      6 C6         -0.3620   -0.0620   -1.6890 c3        1 HJ3     -0.065000
      7 C7         -0.1730   -1.4740   -2.1060 c2        1 HJ3      0.174000
      8 O8          0.9050   -1.8440   -2.5310 o         1 HJ3     -0.300000
      9 C5          0.0680    0.9090   -2.8840 c3        1 HJ3     -0.083000
     10 S1          0.2140    0.0560   -4.2810 ss        1 HJ3     -0.116000
     11 N4         -0.8990    1.8130   -3.1150 n3        1 HJ3     -0.284000
     12 C3         -1.9700    1.1300   -4.3290 c3        1 HJ3     -0.114000
     13 C12        -2.7660    2.1240   -4.9560 c2        1 HJ3      0.361000
     14 O14        -3.8830    1.8170   -5.4480 o         1 HJ3     -0.563500
     15 O13        -2.3560    3.3130   -5.0180 o         1 HJ3     -0.563500
     16 C2         -1.1050    0.4680   -5.1920 c3        1 HJ3     -0.045000
     17 C16        -0.6930    1.3850   -6.3220 c3        1 HJ3     -0.202000
     18 C15        -1.7690   -0.7750   -5.7420 c3        1 HJ3     -0.202000
     19 HA1         1.5850   -1.3250    1.7280 ha        1 HJ3      0.104500
     20 HA1A        1.7850    0.2580    1.6570 ha        1 HJ3      0.104500
     21 C121        1.3940   -0.8000    4.2070 c3        1 HJ3     -0.169000
     22 HB1        -0.3620   -0.8470    3.1350 hc        1 HJ3      0.084500
     23 HB1A        0.2390    0.6260    3.2770 hc        1 HJ3      0.084500
     24 HN9         1.1660    0.7230   -0.6510 hn        1 HJ3      0.235000
     25 H6         -1.3020    0.0890   -1.4690 h1        1 HJ3      0.143000
     26 H7         -0.9100   -2.1110   -2.0200 h4        1 HJ3      0.104000
     27 H5          0.9090    1.3590   -2.6720 h2        1 HJ3      0.124000
     28 HN4        -1.3680    1.9610   -2.3450 hn        1 HJ3      0.188000
     29 H3         -2.6520    0.5300   -3.9650 h1        1 HJ3      0.050000
     30 H16         0.0070    0.9520   -6.8550 hc        1 HJ3      0.085167
     31 H16A       -0.3500    2.2250   -5.9530 hc        1 HJ3      0.085167
     32 H16B       -1.4690    1.5710   -6.8910 hc        1 HJ3      0.085167
     33 H15        -2.2800   -1.2150   -5.0310 hc        1 HJ3      0.085167
     34 H15A       -1.0830   -1.3890   -6.0800 hc        1 HJ3      0.085167
     35 H15B       -2.3730   -0.5270   -6.4730 hc        1 HJ3      0.085167
     36 C13         0.8840   -0.3390    5.5550 c3        1 HJ3     -0.128000
     37 H18         2.2890   -0.4340    4.0540 hc        1 HJ3      0.098500
     38 H19         1.4340   -1.7770    4.1900 hc        1 HJ3      0.098500
     39 H20         0.9280    0.6370    5.6040 hc        1 HJ3      0.063500
     40 H21        -0.0420   -0.6300    5.6710 hc        1 HJ3      0.063500
     41 C14         1.7400   -0.9360    6.6490 c3        1 HJ3     -0.128000
     42 O5          1.8490    1.0520    7.9930 o         1 HJ3     -0.583500
     43 N3          0.9110   -1.6270    7.5760 n3        1 HJ3     -0.322000
     44 H22         2.3810   -1.5610    6.2560 h1        1 HJ3      0.081000
     45 C151        2.4860    0.1670    7.3640 c2        1 HJ3      0.306000
     46 O6          3.7440    0.1990    7.3330 o         1 HJ3     -0.583500
     47 H24         1.1340   -1.3790    8.4290 hn        1 HJ3      0.122000
     48 H25         1.0320   -2.5300    7.4790 hn        1 HJ3      0.122000
@<TRIPOS>BOND
     1    1    2 1   
     2    2    5 1   
     3    3    4 1   
     4    3   19 1   
     5    3   20 1   
     6    4   21 1   
     7    4   22 1   
     8    4   23 1   
     9    5    6 1   
    10    5   24 1   
    11    6    7 1   
    12    6    9 1   
    13    6   25 1   
    14    7    8 1   
    15    7   26 1   
    16    9   10 1   
    17    9   11 1   
    18    9   27 1   
    19   10   16 1   
    20   11   12 1   
    21   11   28 1   
    22   12   13 1   
    23   12   16 1   
    24   12   29 1   
    25   13   14 1   
    26   13   15 1   
    27   16   17 1   
    28   16   18 1   
    29   17   30 1   
    30   17   31 1   
    31   17   32 1   
    32   18   33 1   
    33   18   34 1   
    34   18   35 1   
    35   21   36 1   
    36   21   37 1   
    37   21   38 1   
    38   36   39 1   
    39   36   40 1   
    40   36   41 1   
    41   41   43 1   
    42   41   44 1   
    43   41   45 1   
    44   42   45 1   
    45   43   47 1   
    46   43   48 1   
    47   45   46 1   
@<TRIPOS>SUBSTRUCTURE
     1 HJ3         1 TEMP              0 ****  ****    0 ROOT
