@<TRIPOS>MOLECULE
HJ3
   50    45     1     0     0
SMALL
bcc


@<TRIPOS>ATOM
      1 O11         4.0570   -0.2150    2.3640 o         1 HJ3     -0.530000
      2 C10         4.6640    0.7200    1.7610 c2        1 HJ3      0.235000
      3 CA1         4.6560    0.9230    0.3790 c2        1 HJ3     -0.641000
      4 CB1         1.2330    1.9100    2.4370 c3        1 HJ3     -0.196000
      5 N9          3.9300    0.0420   -0.4870 n4        1 HJ3      0.092000
      6 C6          2.7920    0.7260   -1.1820 c3        1 HJ3      0.026000
      7 C7          3.7670   -2.3720    1.4020 c1        1 HJ3      0.167000
      8 O8          3.7240   -2.8390    2.4740 o         1 HJ3     -0.177000
      9 C5          1.9740   -0.2240   -1.9590 c2        1 HJ3     -1.415000
     10 S1          1.8570   -0.3910   -3.4000 s6        1 HJ3      3.123000
     11 N4         -2.4860    1.9920   -4.8270 n1        1 HJ3      0.036000
     12 C3         -1.3780    1.8150   -4.5290 c1        1 HJ3     -0.140000
     13 C12         0.0020    1.6050   -4.1590 c2        1 HJ3      0.481000
     14 O14         0.8730    2.4730   -4.0700 o         1 HJ3     -0.338000
     15 O13         0.3220    0.3340   -3.9070 os        1 HJ3     -0.689000
     16 C2          3.7740    0.2340   -5.1770 c2        1 HJ3      0.339000
     17 C16         2.8520   -0.0990   -4.2980 c1        1 HJ3     -1.596000
     18 C15         3.6790    1.3990   -6.0760 c3        1 HJ3     -0.266000
     19 HA1         5.1700    1.7510   -0.1120 hx        1 HJ3      0.149000
     20 HA1A        2.2820    1.5170    2.4770 hc        1 HJ3      0.080667
     21 C121        0.8760    0.4990    4.5780 cx        1 HJ3     -0.244000
     22 HB1         3.3360   -1.6580    4.8260 ha        1 HJ3      0.000500
     23 HB1A        1.2560    2.9890    2.7300 hc        1 HJ3      0.080667
     24 HN9         5.2610    1.4520    2.3500 h4        1 HJ3      0.083000
     25 H6          3.2280    1.5350   -1.8340 hx        1 HJ3      0.121000
     26 H7          2.1740    1.2200   -0.3760 hx        1 HJ3      0.121000
     27 H5          4.5590   -0.3490   -1.1900 hn        1 HJ3      0.221000
     28 HN4         1.3190   -0.8040   -1.2680 h4        1 HJ3      0.242000
     29 H3          1.3310   -1.4900   -3.6290 hs        1 HJ3     -0.312000
     30 H16         4.6990   -0.3710   -5.2850 ha        1 HJ3      0.104000
     31 H16A        0.6130   -3.6370   -4.1330 ha        1 HJ3      0.000500
     32 H16B        0.2650   -4.2130   -4.2060 ha        1 HJ3      0.000500
     33 H15         4.6340    1.9830   -6.0510 hc        1 HJ3      0.115333
     34 H15A        2.8340    2.0770   -5.7930 hc        1 HJ3      0.115333
     35 H15B        3.5170    1.0420   -7.1260 hc        1 HJ3      0.115333
     36 C13         0.3260    1.1570    3.3430 cx        1 HJ3     -0.160000
     37 H18         1.9640    0.5510    4.7660 hc        1 HJ3      0.116000
     38 H19         3.7060   -1.3100    4.3770 ha        1 HJ3      0.000500
     39 H20         0.8700    1.8400    1.3820 hc        1 HJ3      0.080667
     40 H21        -0.6830    1.6150    3.4100 hc        1 HJ3      0.112000
     41 C14         0.3740   -0.3600    3.4340 cx        1 HJ3     -0.094000
     42 N3          1.2130   -1.1710    2.6120 n3        1 HJ3     -0.345000
     43 H22        -0.6010   -0.8820    3.5860 h1        1 HJ3      0.128000
     44 C151       -0.5910   -2.4340    0.9530 c1        1 HJ3      0.452000
     45 O6         -1.3190   -2.6240    1.8730 o         1 HJ3     -0.228500
     46 H24         0.2890    0.5330    5.5120 hc        1 HJ3      0.116000
     47 H25         1.9260   -0.6190    2.1630 hn        1 HJ3      0.161500
     48 O5          0.0960   -2.2770   -0.0090 o         1 HJ3     -0.228500
     49 H92         3.5540   -0.7430    0.0750 hn        1 HJ3      0.221000
     50 H33         1.6780   -1.8530    3.1880 hn        1 HJ3      0.161500
@<TRIPOS>BOND
     1    1    2 1   
     2    2    3 1   
     3    2   24 1   
     4    3    5 1   
     5    3   19 1   
     6    4   20 1   
     7    4   23 1   
     8    4   36 1   
     9    4   39 1   
    10    5    6 1   
    11    5   27 1   
    12    5   49 1   
    13    6    9 1   
    14    6   25 1   
    15    6   26 1   
    16    7    8 1   
    17    9   10 1   
    18    9   28 1   
    19   10   15 1   
    20   10   17 1   
    21   10   29 1   
    22   11   12 1   
    23   12   13 1   
    24   13   14 1   
    25   13   15 1   
    26   16   17 1   
    27   16   18 1   
    28   16   30 1   
    29   18   33 1   
    30   18   34 1   
    31   18   35 1   
    32   21   36 1   
    33   21   37 1   
    34   21   41 1   
    35   21   46 1   
    36   22   38 1   
    37   31   32 1   
    38   36   40 1   
    39   36   41 1   
    40   41   42 1   
    41   41   43 1   
    42   42   47 1   
    43   42   50 1   
    44   44   45 1   
    45   44   48 1   
@<TRIPOS>SUBSTRUCTURE
     1 HJ3         1 TEMP              0 ****  ****    0 ROOT
