@<TRIPOS>MOLECULE
HJ3
   48    48     1     0     0
SMALL
bcc


@<TRIPOS>ATOM
      1 O11         0.4130    2.8130    0.3770 o         1 HJ3     -0.635100
      2 C10         0.5310    1.5870    0.1670 c         1 HJ3      0.672100
      3 CA1         1.6880    1.0350   -0.6450 c3        1 HJ3     -0.148400
      4 CB1         2.7770    0.4550    0.2330 c3        1 HJ3     -0.079400
      5 N9         -0.4060    0.6860    0.6340 n         1 HJ3     -0.549900
      6 C6         -1.5710    1.0910    1.3710 c3        1 HJ3     -0.004300
      7 C7         -1.5820    0.6460    2.8320 c         1 HJ3      0.566900
      8 O8         -0.6700    0.0330    3.3850 o         1 HJ3     -0.541100
      9 C5         -2.9130    0.6230    0.7700 c3        1 HJ3      0.271600
     10 S1         -3.1680    1.2480   -0.9480 ss        1 HJ3     -0.486200
     11 N4         -3.1420   -0.8020    0.7470 n3        1 HJ3     -0.752200
     12 C3         -4.3060   -1.0570   -0.1010 c3        1 HJ3      0.023500
     13 C12        -5.6640   -0.8710    0.6730 c         1 HJ3      0.938600
     14 O14        -6.5340   -1.7580    0.4530 o         1 HJ3     -0.830300
     15 O13        -5.8160    0.1210    1.4330 o         1 HJ3     -0.830300
     16 C2         -4.2640   -0.1460   -1.3680 c3        1 HJ3      0.068100
     17 C16        -3.6460   -0.8820   -2.5330 c3        1 HJ3     -0.079600
     18 C15        -5.6300    0.3780   -1.7280 c3        1 HJ3     -0.079600
     19 HA1         1.3220    0.2580   -1.3650 hc        1 HJ3      0.063700
     20 HA1A        2.1040    1.8870   -1.2470 hc        1 HJ3      0.063700
     21 C121        3.9320   -0.0430   -0.6140 c3        1 HJ3     -0.076400
     22 HB1         3.1420    1.2390    0.9480 hc        1 HJ3      0.046700
     23 HB1A        2.3660   -0.3890    0.8470 hc        1 HJ3      0.046700
     24 HN9        -0.2140   -0.2850    0.5810 hn        1 HJ3      0.316500
     25 H6         -1.5970    2.2270    1.3790 h1        1 HJ3      0.114700
     26 H7         -2.5140    0.9310    3.3710 h4        1 HJ3      0.014200
     27 H5         -3.7600    1.0750    1.3720 h2        1 HJ3      0.143700
     28 HN4        -2.3420   -1.2840    0.3720 hn        1 HJ3      0.330800
     29 H3         -4.2770   -2.1350   -0.4290 h1        1 HJ3      0.063700
     30 H16        -2.6540   -1.3090   -2.2470 hc        1 HJ3      0.038700
     31 H16A       -4.3140   -1.7180   -2.8540 hc        1 HJ3      0.038700
     32 H16B       -3.4990   -0.1940   -3.4000 hc        1 HJ3      0.038700
     33 H15        -5.5930    0.9480   -2.6880 hc        1 HJ3      0.038700
     34 H15A       -6.3450   -0.4780   -1.8350 hc        1 HJ3      0.038700
     35 H15B       -6.0130    1.0460   -0.9160 hc        1 HJ3      0.038700
     36 C13         5.0900   -0.5210    0.2340 c3        1 HJ3     -0.064400
     37 H18         3.5740   -0.8750   -1.2760 hc        1 HJ3      0.035700
     38 H19         4.2840    0.7850   -1.2860 hc        1 HJ3      0.035700
     39 H20         5.4650    0.3170    0.8820 hc        1 HJ3      0.047700
     40 H21         4.7470   -1.3430    0.9140 hc        1 HJ3      0.047700
     41 C14         6.2700   -0.9950   -0.6160 c3        1 HJ3      0.021500
     42 N3          5.9820   -2.1980   -1.3890 n3        1 HJ3     -0.893800
     43 H22         6.5030   -0.1870   -1.3710 h1        1 HJ3      0.039700
     44 C151        7.5360   -1.1060    0.2970 c         1 HJ3      0.887600
     45 O6          8.1880   -2.1920    0.2870 o         1 HJ3     -0.848800
     46 H24         6.8670   -2.6030   -1.6500 hn        1 HJ3      0.329300
     47 H25         5.5350   -2.8670   -0.7860 hn        1 HJ3      0.329300
     48 O5          7.8620   -0.0930    0.9750 o         1 HJ3     -0.848800
@<TRIPOS>BOND
     1    1    2 2   
     2    2    3 1   
     3    2    5 1   
     4    3    4 1   
     5    3   19 1   
     6    3   20 1   
     7    4   21 1   
     8    4   22 1   
     9    4   23 1   
    10    5    6 1   
    11    5   24 1   
    12    6    7 1   
    13    6    9 1   
    14    6   25 1   
    15    7    8 2   
    16    7   26 1   
    17    9   10 1   
    18    9   11 1   
    19    9   27 1   
    20   10   16 1   
    21   11   12 1   
    22   11   28 1   
    23   12   13 1   
    24   12   16 1   
    25   12   29 1   
    26   13   14 1   
    27   13   15 1   
    28   16   17 1   
    29   16   18 1   
    30   17   30 1   
    31   17   31 1   
    32   17   32 1   
    33   18   33 1   
    34   18   34 1   
    35   18   35 1   
    36   21   36 1   
    37   21   37 1   
    38   21   38 1   
    39   36   39 1   
    40   36   40 1   
    41   36   41 1   
    42   41   42 1   
    43   41   43 1   
    44   41   44 1   
    45   42   46 1   
    46   42   47 1   
    47   44   45 1   
    48   44   48 1   
@<TRIPOS>SUBSTRUCTURE
     1 HJ3         1 TEMP              0 ****  ****    0 ROOT
