@<TRIPOS>MOLECULE
HJZ
   50    53     1     0     0
SMALL
bcc


@<TRIPOS>ATOM
      1 S1          0.1460   -0.5650    0.0510 ss        1 HJZ      0.028200
      2 C2          1.7560   -0.0560    0.0510 cc        1 HJZ     -0.152100
      3 C3          2.1840    0.1720    1.3490 cd        1 HJZ     -0.114000
      4 C4          1.1600   -0.0830    2.3180 cd        1 HJZ     -0.120000
      5 C5         -0.0120   -0.5150    1.7110 cc        1 HJZ     -0.063700
      6 C6          2.5330    0.1030   -1.1480 ca        1 HJZ      0.052000
      7 C7         -1.3120   -0.9330    2.3810 c         1 HJZ      0.931200
      8 C8          1.3950    0.0450    3.7480 ca        1 HJZ      0.026000
      9 O9         -2.2900   -0.1470    2.3000 o         1 HJZ     -0.805300
     10 O10        -1.3270   -2.0600    2.9500 o         1 HJZ     -0.805300
     11 C11         1.9500    1.1980    4.3350 ca        1 HJZ     -0.074300
     12 C12         1.9370    0.0940    6.5030 ca        1 HJZ     -0.150000
     13 C13         1.3370   -1.0270    5.9310 ca        1 HJZ     -0.142000
     14 C14         2.2290    1.1980    5.7100 ca        1 HJZ     -0.146000
     15 C15         1.0640   -1.0500    4.5680 ca        1 HJZ     -0.102000
     16 C16         1.8990    0.1680   -2.4030 ca        1 HJZ     -0.142500
     17 C17         4.0350    0.4140   -3.5070 ca        1 HJZ     -0.161000
     18 C18         4.6750    0.3500   -2.2700 ca        1 HJZ     -0.127500
     19 C19         2.6440    0.3210   -3.5680 ca        1 HJZ     -0.127500
     20 C20         3.9350    0.1940   -1.1010 ca        1 HJZ     -0.142500
     21 C21         2.2110    2.4440    3.5470 c3        1 HJZ     -0.022400
     22 C22         1.4020    3.6150    4.0980 c3        1 HJZ     -0.069900
     23 C23         1.6640    4.8780    3.3040 c3        1 HJZ     -0.073400
     24 C24         3.1460    5.2250    3.2860 c3        1 HJZ     -0.066700
     25 C25         3.9540    4.0560    2.7410 c3        1 HJZ     -0.073400
     26 C26         3.6960    2.7900    3.5310 c3        1 HJZ     -0.069900
     27 C27         3.3930    6.4720    2.4660 c3        1 HJZ     -0.088100
     28 H3          3.1850    0.5080    1.6300 ha        1 HJZ      0.137000
     29 H12         2.1660    0.1130    7.5780 ha        1 HJZ      0.109000
     30 H13         1.0700   -1.8910    6.5560 ha        1 HJZ      0.120000
     31 H14         2.6780    2.0910    6.1690 ha        1 HJZ      0.112000
     32 H15         0.5420   -1.9130    4.1100 ha        1 HJZ      0.193000
     33 H16         0.8010    0.0980   -2.4560 ha        1 HJZ      0.134500
     34 H17         4.6210    0.5360   -4.4280 ha        1 HJZ      0.116000
     35 H18         5.7710    0.4200   -2.2160 ha        1 HJZ      0.118000
     36 H19         2.1330    0.3690   -4.5400 ha        1 HJZ      0.118000
     37 H20         4.4490    0.1370   -0.1300 ha        1 HJZ      0.134500
     38 H21         1.8790    2.2850    2.4800 hc        1 HJZ      0.077700
     39 H22         1.6660    3.7870    5.1740 hc        1 HJZ      0.041950
     40 H22A        0.3110    3.3610    4.0520 hc        1 HJZ      0.041950
     41 H23         1.0880    5.7290    3.7510 hc        1 HJZ      0.035950
     42 H23A        1.3020    4.7410    2.2510 hc        1 HJZ      0.035950
     43 H24         3.4760    5.4190    4.3460 hc        1 HJZ      0.039700
     44 H25         5.0460    4.3070    2.7800 hc        1 HJZ      0.035950
     45 H25A        3.6840    3.8880    1.6650 hc        1 HJZ      0.035950
     46 H26         4.2690    1.9410    3.0760 hc        1 HJZ      0.041950
     47 H26A        4.0630    2.9200    4.5830 hc        1 HJZ      0.041950
     48 H27         3.0760    6.3150    1.4070 hc        1 HJZ      0.027367
     49 H27A        4.4790    6.7340    2.4740 hc        1 HJZ      0.027367
     50 H27B        2.8160    7.3320    2.8840 hc        1 HJZ      0.027367
@<TRIPOS>BOND
     1    1    2 1   
     2    1    5 1   
     3    2    3 2   
     4    2    6 1   
     5    3    4 1   
     6    3   28 1   
     7    4    5 2   
     8    4    8 1   
     9    5    7 1   
    10    6   16 ar  
    11    6   20 ar  
    12    7    9 1   
    13    7   10 1   
    14    8   11 ar  
    15    8   15 ar  
    16   11   14 ar  
    17   11   21 1   
    18   12   13 ar  
    19   12   14 ar  
    20   12   29 1   
    21   13   15 ar  
    22   13   30 1   
    23   14   31 1   
    24   15   32 1   
    25   16   19 ar  
    26   16   33 1   
    27   17   18 ar  
    28   17   19 ar  
    29   17   34 1   
    30   18   20 ar  
    31   18   35 1   
    32   19   36 1   
    33   20   37 1   
    34   21   22 1   
    35   21   26 1   
    36   21   38 1   
    37   22   23 1   
    38   22   39 1   
    39   22   40 1   
    40   23   24 1   
    41   23   41 1   
    42   23   42 1   
    43   24   25 1   
    44   24   27 1   
    45   24   43 1   
    46   25   26 1   
    47   25   44 1   
    48   25   45 1   
    49   26   46 1   
    50   26   47 1   
    51   27   48 1   
    52   27   49 1   
    53   27   50 1   
@<TRIPOS>SUBSTRUCTURE
     1 HJZ         1 TEMP              0 ****  ****    0 ROOT
