@<TRIPOS>MOLECULE
HJZ
   50    53     1     0     0
SMALL
bcc


@<TRIPOS>ATOM
      1 S1         -1.9980   -1.9750    0.8780 ss        1 HJZ      0.028200
      2 C2         -2.0910   -0.6040   -0.1030 cc        1 HJZ     -0.152100
      3 C3         -0.8650   -0.3610   -0.7020 cd        1 HJZ     -0.114000
      4 C4          0.1280   -1.3250   -0.3300 cd        1 HJZ     -0.120000
      5 C5         -0.3950   -2.2810    0.5320 cc        1 HJZ     -0.063700
      6 C6         -3.2920    0.1700   -0.2650 ca        1 HJZ      0.052000
      7 C7          0.3100   -3.4940    1.1180 c         1 HJZ      0.931200
      8 C8          1.4780   -1.2970   -0.8720 ca        1 HJZ      0.026000
      9 O9          0.6180   -3.4570    2.3380 o         1 HJZ     -0.805300
     10 O10         0.5120   -4.4700    0.3450 o         1 HJZ     -0.805300
     11 C11         2.2910   -0.1470   -0.8520 ca        1 HJZ     -0.074300
     12 C12         4.0060   -1.3440   -2.0940 ca        1 HJZ     -0.150000
     13 C13         3.2240   -2.4990   -2.0670 ca        1 HJZ     -0.142000
     14 C14         3.5430   -0.1850   -1.4820 ca        1 HJZ     -0.146000
     15 C15         1.9740   -2.4770   -1.4580 ca        1 HJZ     -0.102000
     16 C16        -4.3600    0.0240    0.6400 ca        1 HJZ     -0.142500
     17 C17        -5.6510    1.6740   -0.5630 ca        1 HJZ     -0.161000
     18 C18        -4.6010    1.8280   -1.4670 ca        1 HJZ     -0.127500
     19 C19        -5.5250    0.7680    0.4900 ca        1 HJZ     -0.127500
     20 C20        -3.4330    1.0840   -1.3230 ca        1 HJZ     -0.142500
     21 C21         1.8790    1.1030   -0.1380 c3        1 HJZ     -0.022400
     22 C22         2.8710    1.4480    0.9690 c3        1 HJZ     -0.069900
     23 C23         2.4590    2.7140    1.6920 c3        1 HJZ     -0.073400
     24 C24         2.3200    3.8830    0.7280 c3        1 HJZ     -0.066700
     25 C25         1.3350    3.5390   -0.3800 c3        1 HJZ     -0.073400
     26 C26         1.7420    2.2740   -1.1060 c3        1 HJZ     -0.069900
     27 C27         1.8830    5.1320    1.4620 c3        1 HJZ     -0.088100
     28 H3         -0.6520    0.4650   -1.3840 ha        1 HJZ      0.137000
     29 H12         4.9890   -1.3530   -2.5840 ha        1 HJZ      0.109000
     30 H13         3.5960   -3.4300   -2.5170 ha        1 HJZ      0.120000
     31 H14         4.1740    0.7170   -1.4820 ha        1 HJZ      0.112000
     32 H15         1.3640   -3.3990   -1.3840 ha        1 HJZ      0.193000
     33 H16        -4.2640   -0.6890    1.4750 ha        1 HJZ      0.134500
     34 H17        -6.5720    2.2620   -0.6790 ha        1 HJZ      0.116000
     35 H18        -4.6950    2.5390   -2.3000 ha        1 HJZ      0.118000
     36 H19        -6.3500    0.6410    1.2060 ha        1 HJZ      0.118000
     37 H20        -2.6130    1.2060   -2.0460 ha        1 HJZ      0.134500
     38 H21         0.8770    0.9380    0.3530 hc        1 HJZ      0.077700
     39 H22         2.9180    0.5970    1.6970 hc        1 HJZ      0.041950
     40 H22A        3.8960    1.5810    0.5340 hc        1 HJZ      0.041950
     41 H23         1.4810    2.5460    2.2150 hc        1 HJZ      0.035950
     42 H23A        3.2220    2.9640    2.4740 hc        1 HJZ      0.035950
     43 H24         3.3260    4.0760    0.2590 hc        1 HJZ      0.039700
     44 H25         0.3130    3.4060    0.0620 hc        1 HJZ      0.035950
     45 H25A        1.2810    4.3890   -1.1080 hc        1 HJZ      0.035950
     46 H26         2.7150    2.4400   -1.6370 hc        1 HJZ      0.041950
     47 H26A        0.9720    2.0240   -1.8820 hc        1 HJZ      0.041950
     48 H27         2.6200    5.3930    2.2580 hc        1 HJZ      0.027367
     49 H27A        1.8030    5.9920    0.7540 hc        1 HJZ      0.027367
     50 H27B        0.8860    4.9760    1.9410 hc        1 HJZ      0.027367
@<TRIPOS>BOND
     1    1    2 1   
     2    1    5 1   
     3    2    3 2   
     4    2    6 1   
     5    3    4 1   
     6    3   28 1   
     7    4    5 2   
     8    4    8 1   
     9    5    7 1   
    10    6   16 ar  
    11    6   20 ar  
    12    7    9 1   
    13    7   10 1   
    14    8   11 ar  
    15    8   15 ar  
    16   11   14 ar  
    17   11   21 1   
    18   12   13 ar  
    19   12   14 ar  
    20   12   29 1   
    21   13   15 ar  
    22   13   30 1   
    23   14   31 1   
    24   15   32 1   
    25   16   19 ar  
    26   16   33 1   
    27   17   18 ar  
    28   17   19 ar  
    29   17   34 1   
    30   18   20 ar  
    31   18   35 1   
    32   19   36 1   
    33   20   37 1   
    34   21   22 1   
    35   21   26 1   
    36   21   38 1   
    37   22   23 1   
    38   22   39 1   
    39   22   40 1   
    40   23   24 1   
    41   23   41 1   
    42   23   42 1   
    43   24   25 1   
    44   24   27 1   
    45   24   43 1   
    46   25   26 1   
    47   25   44 1   
    48   25   45 1   
    49   26   46 1   
    50   26   47 1   
    51   27   48 1   
    52   27   49 1   
    53   27   50 1   
@<TRIPOS>SUBSTRUCTURE
     1 HJZ         1 TEMP              0 ****  ****    0 ROOT
