@<TRIPOS>MOLECULE
HJZ
   50    45     1     0     0
SMALL
bcc


@<TRIPOS>ATOM
      1 S1          0.5840   -2.4760   -2.4150 ss        1 HJZ      0.568000
      2 C2         -0.8440   -1.8700   -2.3800 c2        1 HJZ     -0.422000
      3 C3         -1.1480   -1.5230   -1.0040 c1        1 HJZ     -0.114000
      4 C4          0.1080   -1.9060   -0.1020 c2        1 HJZ     -0.120000
      5 C5          1.1300   -2.4730   -0.9620 c1        1 HJZ     -0.313000
      6 C6         -1.6540   -1.6280   -3.4790 c1        1 HJZ      0.052000
      7 C7          2.5120   -2.9100   -0.5310 c1        1 HJZ      0.380000
      8 C8          0.2090   -1.7250    1.2690 c1        1 HJZ      0.026000
      9 O9          3.3970   -2.0480   -0.2870 o         1 HJZ     -0.540000
     10 O10         2.7880   -4.1350   -0.4490 o         1 HJZ     -0.540000
     11 C11         0.4250   -0.6430    2.1070 c1        1 HJZ     -0.067000
     12 C12         0.2060   -2.0790    4.0180 c1        1 HJZ     -0.150000
     13 C13        -0.0110   -3.1610    3.1800 c1        1 HJZ     -0.134500
     14 C14         0.4240   -0.8190    3.4820 c2        1 HJZ     -0.146000
     15 C15        -0.0090   -2.9840    1.8050 c1        1 HJZ     -0.134500
     16 C16        -2.1840   -0.3780   -3.7590 c1        1 HJZ     -0.138000
     17 C17        -2.9610   -1.1830   -5.8830 c1        1 HJZ     -0.134500
     18 C18        -2.4310   -2.4330   -5.6030 c1        1 HJZ     -0.134500
     19 C19        -2.8370   -0.1550   -4.9610 c1        1 HJZ     -0.134500
     20 C20        -1.7780   -2.6550   -4.4000 c1        1 HJZ     -0.134500
     21 C21         0.6810    0.8530    1.4700 c2        1 HJZ     -0.069000
     22 C22        -0.4630    1.6520    1.7380 c3        1 HJZ     -0.148500
     23 C23        -0.2920    3.1090    1.3630 c3        1 HJZ     -0.152000
     24 C24         0.9800    3.8120    2.0210 c3        1 HJZ     -0.106000
     25 C25         2.1740    2.8000    1.6470 c3        1 HJZ     -0.152000
     26 C26         1.9070    1.3680    2.0120 c3        1 HJZ     -0.148500
     27 C27         1.1950    5.0460    1.4710 c3        1 HJZ     -0.206000
     28 H3         -1.9800   -1.1240   -0.6850 DU        1 HJZ      0.137000
     29 H12         0.2040   -2.2030    4.9860 ha        1 HJZ      0.109000
     30 H13        -0.1640   -4.0480    3.5580 ha        1 HJZ      0.133667
     31 H14         0.5760   -0.0570    4.0720 ha        1 HJZ      0.112000
     32 H15        -0.1360   -3.7510    1.2140 ha        1 HJZ      0.133667
     33 H16        -2.0970    0.3460   -3.1100 ha        1 HJZ      0.132000
     34 H17        -3.4210   -1.0260   -6.7290 ha        1 HJZ      0.133667
     35 H18        -2.5180   -3.1570   -6.2520 ha        1 HJZ      0.133667
     36 H19        -3.2100    0.7250   -5.1580 ha        1 HJZ      0.133667
     37 H20        -1.4050   -3.5350   -4.2030 ha        1 HJZ      0.133667
     38 H21         0.7810    0.7660    0.5000 ha        1 HJZ      0.117000
     39 H22        -1.2220    1.2890    1.2370 hc        1 HJZ      0.081250
     40 H22A       -0.6640    1.5980    2.6950 hc        1 HJZ      0.081250
     41 H23        -1.0930    3.5970    1.6400 hc        1 HJZ      0.075250
     42 H23A       -0.2110    3.1710    0.3900 hc        1 HJZ      0.075250
     43 H24         0.8750    3.8780    2.9910 hc        1 HJZ      0.079000
     44 H25         2.3320    2.8490    0.6830 hc        1 HJZ      0.075250
     45 H25A        2.9850    3.0910    2.1100 hc        1 HJZ      0.075250
     46 H26         1.8720    1.2960    2.9880 hc        1 HJZ      0.081250
     47 H26A        2.6480    0.8190    1.6830 hc        1 HJZ      0.081250
     48 H27         2.0040    5.4420    1.8620 hc        1 HJZ      0.066667
     49 H27A        0.4250    5.6250    1.6560 hc        1 HJZ      0.066667
     50 H27B        1.3120    4.9550    0.5000 hc        1 HJZ      0.066667
@<TRIPOS>BOND
     1    1    2 1   
     2    1    5 1   
     3    2    3 1   
     4    2    6 1   
     5    3    4 1   
     6    4    5 1   
     7    4    8 1   
     8    6   16 1   
     9    7    9 1   
    10    7   10 1   
    11    8   11 1   
    12   11   14 1   
    13   12   14 1   
    14   12   29 1   
    15   13   15 1   
    16   13   30 1   
    17   14   31 1   
    18   15   32 1   
    19   16   33 1   
    20   17   19 1   
    21   17   34 1   
    22   18   20 1   
    23   18   35 1   
    24   19   36 1   
    25   20   37 1   
    26   21   22 1   
    27   21   26 1   
    28   21   38 1   
    29   22   23 1   
    30   22   39 1   
    31   22   40 1   
    32   23   24 1   
    33   23   41 1   
    34   23   42 1   
    35   24   25 1   
    36   24   27 1   
    37   24   43 1   
    38   25   26 1   
    39   25   44 1   
    40   25   45 1   
    41   26   46 1   
    42   26   47 1   
    43   27   48 1   
    44   27   49 1   
    45   27   50 1   
@<TRIPOS>SUBSTRUCTURE
     1 HJZ         1 TEMP              0 ****  ****    0 ROOT
