@<TRIPOS>MOLECULE
HJZ
   50    53     1     0     0
SMALL
bcc


@<TRIPOS>ATOM
      1 S1          0.1710   -0.6220    0.0890 ss        1 HJZ      0.028200
      2 C2          1.7740   -0.0930    0.0790 cc        1 HJZ     -0.152100
      3 C3          2.2020    0.1600    1.3730 cd        1 HJZ     -0.114000
      4 C4          1.1830   -0.0930    2.3470 cd        1 HJZ     -0.120000
      5 C5          0.0150   -0.5500    1.7480 cc        1 HJZ     -0.063700
      6 C6          2.5480    0.0580   -1.1240 ca        1 HJZ      0.052000
      7 C7         -1.2780   -0.9740    2.4280 c         1 HJZ      0.931200
      8 C8          1.4180    0.0590    3.7750 ca        1 HJZ      0.026000
      9 O9         -1.2780   -2.0920    3.0120 o         1 HJZ     -0.805300
     10 O10        -2.2660   -0.2010    2.3370 o         1 HJZ     -0.805300
     11 C11         1.9600    1.2270    4.3440 ca        1 HJZ     -0.074300
     12 C12         1.9650    0.1550    6.5280 ca        1 HJZ     -0.150000
     13 C13         1.3780   -0.9820    5.9730 ca        1 HJZ     -0.142000
     14 C14         2.2420    1.2510    5.7180 ca        1 HJZ     -0.146000
     15 C15         1.1030   -1.0280    4.6120 ca        1 HJZ     -0.102000
     16 C16         1.9110    0.0940   -2.3790 ca        1 HJZ     -0.142500
     17 C17         4.0420    0.3520   -3.4900 ca        1 HJZ     -0.161000
     18 C18         4.6840    0.3170   -2.2540 ca        1 HJZ     -0.127500
     19 C19         2.6520    0.2390   -3.5470 ca        1 HJZ     -0.127500
     20 C20         3.9480    0.1690   -1.0810 ca        1 HJZ     -0.142500
     21 C21         2.2040    2.4650    3.5360 c3        1 HJZ     -0.022400
     22 C22         1.3820    3.6340    4.0720 c3        1 HJZ     -0.069900
     23 C23         1.6270    4.8870    3.2580 c3        1 HJZ     -0.073400
     24 C24         3.1040    5.2520    3.2330 c3        1 HJZ     -0.066700
     25 C25         3.9260    4.0850    2.7040 c3        1 HJZ     -0.073400
     26 C26         3.6840    2.8290    3.5130 c3        1 HJZ     -0.069900
     27 C27         3.3350    6.4900    2.3940 c3        1 HJZ     -0.088100
     28 H3          3.1990    0.5130    1.6470 ha        1 HJZ      0.137000
     29 H12         2.1950    0.1930    7.6010 ha        1 HJZ      0.109000
     30 H13         1.1220   -1.8390    6.6120 ha        1 HJZ      0.120000
     31 H14         2.6800    2.1570    6.1630 ha        1 HJZ      0.112000
     32 H15         0.5910   -1.9050    4.1670 ha        1 HJZ      0.193000
     33 H16         0.8140    0.0080   -2.4290 ha        1 HJZ      0.134500
     34 H17         4.6250    0.4680   -4.4140 ha        1 HJZ      0.116000
     35 H18         5.7790    0.4030   -2.2020 ha        1 HJZ      0.118000
     36 H19         2.1390    0.2650   -4.5190 ha        1 HJZ      0.118000
     37 H20         4.4650    0.1350   -0.1100 ha        1 HJZ      0.134500
     38 H21         1.8720    2.2850    2.4720 hc        1 HJZ      0.077700
     39 H22         1.6450    3.8240    5.1440 hc        1 HJZ      0.041950
     40 H22A        0.2940    3.3650    4.0310 hc        1 HJZ      0.041950
     41 H23         1.0410    5.7370    3.6940 hc        1 HJZ      0.035950
     42 H23A        1.2650    4.7300    2.2080 hc        1 HJZ      0.035950
     43 H24         3.4340    5.4660    4.2890 hc        1 HJZ      0.039700
     44 H25         5.0140    4.3510    2.7370 hc        1 HJZ      0.035950
     45 H25A        3.6560    3.8990    1.6310 hc        1 HJZ      0.035950
     46 H26         4.2680    1.9800    3.0690 hc        1 HJZ      0.041950
     47 H26A        4.0520    2.9790    4.5620 hc        1 HJZ      0.041950
     48 H27         4.4170    6.7660    2.3970 hc        1 HJZ      0.027367
     49 H27A        2.7470    7.3490    2.8000 hc        1 HJZ      0.027367
     50 H27B        3.0170    6.3140    1.3380 hc        1 HJZ      0.027367
@<TRIPOS>BOND
     1    1    2 1   
     2    1    5 1   
     3    2    3 2   
     4    2    6 1   
     5    3    4 1   
     6    3   28 1   
     7    4    5 2   
     8    4    8 1   
     9    5    7 1   
    10    6   16 ar  
    11    6   20 ar  
    12    7    9 1   
    13    7   10 1   
    14    8   11 ar  
    15    8   15 ar  
    16   11   14 ar  
    17   11   21 1   
    18   12   13 ar  
    19   12   14 ar  
    20   12   29 1   
    21   13   15 ar  
    22   13   30 1   
    23   14   31 1   
    24   15   32 1   
    25   16   19 ar  
    26   16   33 1   
    27   17   18 ar  
    28   17   19 ar  
    29   17   34 1   
    30   18   20 ar  
    31   18   35 1   
    32   19   36 1   
    33   20   37 1   
    34   21   22 1   
    35   21   26 1   
    36   21   38 1   
    37   22   23 1   
    38   22   39 1   
    39   22   40 1   
    40   23   24 1   
    41   23   41 1   
    42   23   42 1   
    43   24   25 1   
    44   24   27 1   
    45   24   43 1   
    46   25   26 1   
    47   25   44 1   
    48   25   45 1   
    49   26   46 1   
    50   26   47 1   
    51   27   48 1   
    52   27   49 1   
    53   27   50 1   
@<TRIPOS>SUBSTRUCTURE
     1 HJZ         1 TEMP              0 ****  ****    0 ROOT
