@<TRIPOS>MOLECULE
HK0
   62    66     1     0     0
SMALL
bcc


@<TRIPOS>ATOM
      1 O6         -0.3250    0.2870   -0.2510 o         1 HK0     -0.625500
      2 C22         0.9190    0.2900   -0.1420 c         1 HK0      0.708100
      3 C10         1.5740    0.3920    1.1860 ca        1 HK0     -0.156600
      4 C11         0.8880   -0.1560    2.2770 ca        1 HK0     -0.073000
      5 C12         1.4250   -0.0820    3.5570 ca        1 HK0     -0.127000
      6 C13         2.6550    0.5560    3.7680 cp        1 HK0     -0.035000
      7 C15         3.2200    0.6420    5.1150 cp        1 HK0      0.044000
      8 C21         3.8170    1.8350    5.5550 ca        1 HK0     -0.168000
      9 C20         4.3510    1.9250    6.8320 ca        1 HK0     -0.038000
     10 C19         4.3050    0.8200    7.7010 ca        1 HK0     -0.216200
     11 N3          4.8860    0.9500    9.0580 no        1 HK0      0.325200
     12 O5          4.8150    0.0340    9.8280 o         1 HK0     -0.205000
     13 O4          5.4190    1.9900    9.3530 o         1 HK0     -0.205000
     14 C17         3.7070   -0.3880    7.2620 ca        1 HK0      0.195100
     15 O3          3.6970   -1.4290    8.1540 os        1 HK0     -0.283900
     16 C18         3.1160   -2.6540    7.7080 c3        1 HK0      0.106700
     17 C16         3.1660   -0.4620    5.9690 ca        1 HK0     -0.216000
     18 C14         3.3430    1.1160    2.6860 ca        1 HK0     -0.090000
     19 C9          2.8100    1.0430    1.3850 ca        1 HK0      0.124600
     20 N2          3.5500    1.6450    0.3180 na        1 HK0     -0.568000
     21 N4          1.6490    0.1930   -1.3220 ns        1 HK0     -0.473100
     22 C23         3.0300   -0.0180   -1.4620 ca        1 HK0      0.068600
     23 C8          3.9700    0.6970   -0.6670 ca        1 HK0      0.012600
     24 C24         3.4850   -0.9070   -2.4620 ca        1 HK0     -0.202000
     25 C25         4.8440   -1.0990   -2.6580 ca        1 HK0     -0.064000
     26 C26         5.7810   -0.4320   -1.8750 ca        1 HK0     -0.233000
     27 C7          5.3560    0.4550   -0.8790 ca        1 HK0      0.188100
     28 O2          6.2260    1.1450   -0.0650 os        1 HK0     -0.300900
     29 C6          7.6240    0.9590   -0.3270 c3        1 HK0      0.124400
     30 C5          8.3440    1.8710    0.6790 c3        1 HK0      0.169800
     31 N1          8.7660    1.1720    1.8810 n3        1 HK0     -0.731600
     32 C2         10.0110    0.4370    1.6990 c3        1 HK0      0.135800
     33 C1         10.4740   -0.2580    2.9850 c3        1 HK0      0.126400
     34 C3          8.8080    2.0410    3.0510 c3        1 HK0      0.135800
     35 C4          9.3050    1.3100    4.3040 c3        1 HK0      0.126400
     36 O1         10.5460    0.6530    4.0740 os        1 HK0     -0.413600
     37 H21        -0.0900   -0.6370    2.1080 ha        1 HK0      0.161000
     38 H22         0.8750   -0.5120    4.4080 ha        1 HK0      0.143000
     39 H32         3.8550    2.7070    4.8840 ha        1 HK0      0.154000
     40 H31         4.8160    2.8670    7.1750 ha        1 HK0      0.174000
     41 H29         2.0340   -2.5120    7.4700 h1        1 HK0      0.053700
     42 H30         3.6700   -3.0550    6.8260 h1        1 HK0      0.053700
     43 H28         3.2430   -3.3250    8.5970 h1        1 HK0      0.053700
     44 H27         2.7050   -1.3970    5.6150 ha        1 HK0      0.154000
     45 H26         4.3160    1.6090    2.8490 ha        1 HK0      0.164000
     46 H3          3.0040    2.3720   -0.1160 hn        1 HK0      0.389800
     47 H33         1.1030    0.0150   -2.1430 hn        1 HK0      0.329500
     48 H36         2.7630   -1.4520   -3.0900 ha        1 HK0      0.141000
     49 H37         5.1870   -1.7950   -3.4400 ha        1 HK0      0.138000
     50 H40         6.8510   -0.6140   -2.0500 ha        1 HK0      0.143000
     51 H15         7.8530    1.2950   -1.3720 h1        1 HK0      0.046700
     52 H14         7.8910   -0.1220   -0.2030 h1        1 HK0      0.046700
     53 H12         7.6300    2.6960    0.9650 h1        1 HK0      0.053200
     54 H13         9.2170    2.3420    0.1400 h1        1 HK0      0.053200
     55 H6         10.8440    1.1120    1.3420 h1        1 HK0      0.039700
     56 H7          9.8370   -0.3450    0.9100 h1        1 HK0      0.039700
     57 H4         11.5240   -0.6340    2.8640 h1        1 HK0      0.055700
     58 H5          9.7870   -1.1060    3.2470 h1        1 HK0      0.055700
     59 H9          9.4700    2.9390    2.8770 h1        1 HK0      0.039700
     60 H8          7.7630    2.4090    3.2440 h1        1 HK0      0.039700
     61 H10         9.5260    2.0490    5.1190 h1        1 HK0      0.055700
     62 H11         8.5440    0.5640    4.6550 h1        1 HK0      0.055700
@<TRIPOS>BOND
     1    1    2 2   
     2    2    3 1   
     3    2   21 1   
     4    3    4 ar  
     5    3   19 ar  
     6    4    5 ar  
     7    4   37 1   
     8    5    6 ar  
     9    5   38 1   
    10    6    7 1   
    11    6   18 ar  
    12    7    8 ar  
    13    7   17 ar  
    14    8    9 ar  
    15    8   39 1   
    16    9   10 ar  
    17    9   40 1   
    18   10   11 1   
    19   10   14 ar  
    20   11   12 1   
    21   11   13 1   
    22   14   15 1   
    23   14   17 ar  
    24   15   16 1   
    25   16   41 1   
    26   16   42 1   
    27   16   43 1   
    28   17   44 1   
    29   18   19 ar  
    30   18   45 1   
    31   19   20 1   
    32   20   23 1   
    33   20   46 1   
    34   21   22 1   
    35   21   47 1   
    36   22   23 ar  
    37   22   24 ar  
    38   23   27 ar  
    39   24   25 ar  
    40   24   48 1   
    41   25   26 ar  
    42   25   49 1   
    43   26   27 ar  
    44   26   50 1   
    45   27   28 1   
    46   28   29 1   
    47   29   30 1   
    48   29   51 1   
    49   29   52 1   
    50   30   31 1   
    51   30   53 1   
    52   30   54 1   
    53   31   32 1   
    54   31   34 1   
    55   32   33 1   
    56   32   55 1   
    57   32   56 1   
    58   33   36 1   
    59   33   57 1   
    60   33   58 1   
    61   34   35 1   
    62   34   59 1   
    63   34   60 1   
    64   35   36 1   
    65   35   61 1   
    66   35   62 1   
@<TRIPOS>SUBSTRUCTURE
     1 HK0         1 TEMP              0 ****  ****    0 ROOT
