@<TRIPOS>MOLECULE
HK0
   62    66     1     0     0
SMALL
bcc


@<TRIPOS>ATOM
      1 O6         -3.2150   -4.9280    1.0400 o         1 HK0     -0.635500
      2 C22        -3.1290   -3.7320    0.6920 c         1 HK0      0.730100
      3 C10        -1.8150   -3.0450    0.6490 ca        1 HK0     -0.142600
      4 C11        -0.6980   -3.8430    0.3690 ca        1 HK0     -0.060000
      5 C12         0.5850   -3.3100    0.3880 ca        1 HK0     -0.147000
      6 C13         0.7730   -1.9590    0.7120 cp        1 HK0     -0.014000
      7 C15         2.1240   -1.3950    0.7600 cp        1 HK0      0.043000
      8 C21         2.4920   -0.5350    1.8070 ca        1 HK0     -0.170000
      9 C20         3.7710   -0.0020    1.8620 ca        1 HK0     -0.038000
     10 C19         4.7140   -0.3120    0.8660 ca        1 HK0     -0.216200
     11 N3          6.0710    0.2770    0.9540 no        1 HK0      0.325200
     12 O5          6.9030   -0.0160    0.1410 o         1 HK0     -0.205000
     13 O4          6.3020    1.0440    1.8540 o         1 HK0     -0.205000
     14 C17         4.3480   -1.1780   -0.1960 ca        1 HK0      0.195100
     15 O3          5.3090   -1.4380   -1.1370 os        1 HK0     -0.283900
     16 C18         4.9420   -2.3010   -2.2120 c3        1 HK0      0.106700
     17 C16         3.0510   -1.7140   -0.2350 ca        1 HK0     -0.215000
     18 C14        -0.3310   -1.1510    0.9890 ca        1 HK0     -0.165000
     19 C9         -1.6420   -1.6790    0.9560 ca        1 HK0      0.158600
     20 N2         -2.7500   -0.8750    1.3210 na        1 HK0     -0.573000
     21 N4         -4.3090   -3.1140    0.3080 n         1 HK0     -0.466100
     22 C23        -4.5170   -1.8030   -0.1380 ca        1 HK0      0.099600
     23 C8         -3.7520   -0.6980    0.3270 ca        1 HK0      0.045600
     24 C24        -5.5690   -1.5790   -1.0600 ca        1 HK0     -0.191000
     25 C25        -5.8610   -0.3010   -1.5100 ca        1 HK0     -0.079000
     26 C26        -5.1210    0.7950   -1.0720 ca        1 HK0     -0.212000
     27 C7         -4.0730    0.5980   -0.1730 ca        1 HK0      0.124100
     28 O2         -3.3010    1.6300    0.3340 os        1 HK0     -0.340900
     29 C6         -3.4870    2.9120   -0.2770 c3        1 HK0      0.135400
     30 C5         -2.4520    3.8410    0.3720 c3        1 HK0      0.166800
     31 N1         -1.1280    3.7480   -0.2210 n3        1 HK0     -0.727600
     32 C2         -1.0320    4.4440   -1.4990 c3        1 HK0      0.132800
     33 C1          0.3830    4.4030   -2.0860 c3        1 HK0      0.125900
     34 C3         -0.0800    4.1640    0.7040 c3        1 HK0      0.132800
     35 C4          1.3130    4.1340    0.0650 c3        1 HK0      0.125900
     36 O1          1.3490    4.8700   -1.1520 os        1 HK0     -0.411600
     37 H21        -0.8530   -4.9140    0.1510 ha        1 HK0      0.162000
     38 H22         1.4510   -3.9520    0.1710 ha        1 HK0      0.143000
     39 H32         1.7640   -0.2920    2.5960 ha        1 HK0      0.153000
     40 H31         4.0590    0.6690    2.6910 ha        1 HK0      0.174000
     41 H29         4.6720   -3.3140   -1.8290 h1        1 HK0      0.054367
     42 H30         4.1010   -1.8610   -2.8020 h1        1 HK0      0.054367
     43 H28         5.8780   -2.3440   -2.8260 h1        1 HK0      0.054367
     44 H27         2.7540   -2.3840   -1.0550 ha        1 HK0      0.155000
     45 H26        -0.1730   -0.0870    1.2280 ha        1 HK0      0.148000
     46 H3         -2.4570    0.0110    1.6980 hn        1 HK0      0.412800
     47 H33        -5.1210   -3.6970    0.3220 hn        1 HK0      0.331500
     48 H36        -6.1680   -2.4280   -1.4240 ha        1 HK0      0.142000
     49 H37        -6.6860   -0.1500   -2.2230 ha        1 HK0      0.139000
     50 H40        -5.3720    1.7980   -1.4410 ha        1 HK0      0.142000
     51 H15        -3.3620    2.8280   -1.3870 h1        1 HK0      0.047700
     52 H14        -4.5180    3.2840   -0.0340 h1        1 HK0      0.047700
     53 H12        -2.8690    4.8890    0.3100 h1        1 HK0      0.050200
     54 H13        -2.3780    3.5610    1.4620 h1        1 HK0      0.050200
     55 H6         -1.7310    3.9390   -2.2220 h1        1 HK0      0.040450
     56 H7         -1.3480    5.5250   -1.4070 h1        1 HK0      0.040450
     57 H4          0.6470    3.3630   -2.4130 h1        1 HK0      0.056450
     58 H5          0.4630    5.1130   -2.9500 h1        1 HK0      0.056450
     59 H9         -0.2680    5.2030    1.1030 h1        1 HK0      0.040450
     60 H8         -0.0870    3.4510    1.5750 h1        1 HK0      0.040450
     61 H10         2.0520    4.6540    0.7290 h1        1 HK0      0.056450
     62 H11         1.6390    3.0780   -0.1240 h1        1 HK0      0.056450
@<TRIPOS>BOND
     1    1    2 2   
     2    2    3 1   
     3    2   21 1   
     4    3    4 ar  
     5    3   19 ar  
     6    4    5 ar  
     7    4   37 1   
     8    5    6 ar  
     9    5   38 1   
    10    6    7 1   
    11    6   18 ar  
    12    7    8 ar  
    13    7   17 ar  
    14    8    9 ar  
    15    8   39 1   
    16    9   10 ar  
    17    9   40 1   
    18   10   11 1   
    19   10   14 ar  
    20   11   12 1   
    21   11   13 1   
    22   14   15 1   
    23   14   17 ar  
    24   15   16 1   
    25   16   41 1   
    26   16   42 1   
    27   16   43 1   
    28   17   44 1   
    29   18   19 ar  
    30   18   45 1   
    31   19   20 1   
    32   20   23 1   
    33   20   46 1   
    34   21   22 1   
    35   21   47 1   
    36   22   23 ar  
    37   22   24 ar  
    38   23   27 ar  
    39   24   25 ar  
    40   24   48 1   
    41   25   26 ar  
    42   25   49 1   
    43   26   27 ar  
    44   26   50 1   
    45   27   28 1   
    46   28   29 1   
    47   29   30 1   
    48   29   51 1   
    49   29   52 1   
    50   30   31 1   
    51   30   53 1   
    52   30   54 1   
    53   31   32 1   
    54   31   34 1   
    55   32   33 1   
    56   32   55 1   
    57   32   56 1   
    58   33   36 1   
    59   33   57 1   
    60   33   58 1   
    61   34   35 1   
    62   34   59 1   
    63   34   60 1   
    64   35   36 1   
    65   35   61 1   
    66   35   62 1   
@<TRIPOS>SUBSTRUCTURE
     1 HK0         1 TEMP              0 ****  ****    0 ROOT
