@<TRIPOS>MOLECULE
HK0
   62    66     1     0     0
SMALL
bcc


@<TRIPOS>ATOM
      1 O6         -0.3240    0.2740   -0.2500 o         1 HK0     -0.625500
      2 C22         0.9200    0.2830   -0.1420 c         1 HK0      0.708100
      3 C10         1.5770    0.3830    1.1850 ca        1 HK0     -0.156600
      4 C11         0.8940   -0.1730    2.2750 ca        1 HK0     -0.073000
      5 C12         1.4310   -0.1010    3.5550 ca        1 HK0     -0.127000
      6 C13         2.6580    0.5430    3.7670 cp        1 HK0     -0.035000
      7 C15         3.2240    0.6260    5.1140 cp        1 HK0      0.044000
      8 C21         3.8130    1.8210    5.5590 ca        1 HK0     -0.168000
      9 C20         4.3470    1.9100    6.8360 ca        1 HK0     -0.038000
     10 C19         4.3090    0.8010    7.7010 ca        1 HK0     -0.216200
     11 N3          4.8880    0.9290    9.0580 no        1 HK0      0.325200
     12 O5          4.8220    0.0100    9.8250 o         1 HK0     -0.205000
     13 O4          5.4180    1.9710    9.3560 o         1 HK0     -0.205000
     14 C17         3.7190   -0.4090    7.2570 ca        1 HK0      0.195100
     15 O3          3.7170   -1.4540    8.1440 os        1 HK0     -0.283900
     16 C18         3.1450   -2.6810    7.6930 c3        1 HK0      0.106700
     17 C16         3.1780   -0.4820    5.9630 ca        1 HK0     -0.216000
     18 C14         3.3420    1.1110    2.6870 ca        1 HK0     -0.090000
     19 C9          2.8090    1.0400    1.3860 ca        1 HK0      0.124600
     20 N2          3.5450    1.6500    0.3210 na        1 HK0     -0.568000
     21 N4          1.6490    0.1950   -1.3240 n         1 HK0     -0.473100
     22 C23         3.0320   -0.0080   -1.4660 ca        1 HK0      0.068600
     23 C8          3.9690    0.7090   -0.6680 ca        1 HK0      0.012600
     24 C24         3.4900   -0.8900   -2.4700 ca        1 HK0     -0.202000
     25 C25         4.8500   -1.0750   -2.6680 ca        1 HK0     -0.064000
     26 C26         5.7850   -0.4070   -1.8830 ca        1 HK0     -0.233000
     27 C7          5.3560    0.4740   -0.8820 ca        1 HK0      0.188100
     28 O2          6.2230    1.1650   -0.0660 os        1 HK0     -0.300900
     29 C6          7.6220    0.9820   -0.3260 c3        1 HK0      0.124400
     30 C5          8.3390    1.8900    0.6860 c3        1 HK0      0.169800
     31 N1          8.7560    1.1870    1.8880 n3        1 HK0     -0.731600
     32 C2         10.0010    0.4510    1.7080 c3        1 HK0      0.135800
     33 C1         10.4580   -0.2500    2.9920 c3        1 HK0      0.126400
     34 C3          8.7940    2.0510    3.0600 c3        1 HK0      0.135800
     35 C4          9.2860    1.3150    4.3130 c3        1 HK0      0.126400
     36 O1         10.5270    0.6570    4.0850 os        1 HK0     -0.413600
     37 H21        -0.0810   -0.6580    2.1040 ha        1 HK0      0.161000
     38 H22         0.8850   -0.5380    4.4040 ha        1 HK0      0.143000
     39 H32         3.8450    2.6960    4.8910 ha        1 HK0      0.154000
     40 H31         4.8050    2.8530    7.1830 ha        1 HK0      0.174000
     41 H29         3.2760   -3.3550    8.5780 h1        1 HK0      0.053700
     42 H30         3.7010   -3.0750    6.8080 h1        1 HK0      0.053700
     43 H28         2.0620   -2.5460    7.4560 h1        1 HK0      0.053700
     44 H27         2.7230   -1.4170    5.6060 ha        1 HK0      0.154000
     45 H26         4.3130    1.6080    2.8510 ha        1 HK0      0.164000
     46 H3          2.9940    2.3760   -0.1090 hn        1 HK0      0.389800
     47 H33         1.1040    0.0180   -2.1440 hn        1 HK0      0.329500
     48 H36         2.7710   -1.4350   -3.0990 ha        1 HK0      0.141000
     49 H37         5.1960   -1.7650   -3.4540 ha        1 HK0      0.138000
     50 H40         6.8550   -0.5820   -2.0600 ha        1 HK0      0.143000
     51 H15         7.8520    1.3240   -1.3690 h1        1 HK0      0.046700
     52 H14         7.8900   -0.0990   -0.2070 h1        1 HK0      0.046700
     53 H12         9.2140    2.3630    0.1520 h1        1 HK0      0.053200
     54 H13         7.6230    2.7150    0.9730 h1        1 HK0      0.053200
     55 H6          9.8290   -0.3290    0.9150 h1        1 HK0      0.039700
     56 H7         10.8350    1.1260    1.3550 h1        1 HK0      0.039700
     57 H4          9.7700   -1.0970    3.2480 h1        1 HK0      0.055700
     58 H5         11.5080   -0.6260    2.8730 h1        1 HK0      0.055700
     59 H9          7.7480    2.4190    3.2510 h1        1 HK0      0.039700
     60 H8          9.4570    2.9490    2.8920 h1        1 HK0      0.039700
     61 H10         8.5230    0.5690    4.6580 h1        1 HK0      0.055700
     62 H11         9.5050    2.0510    5.1310 h1        1 HK0      0.055700
@<TRIPOS>BOND
     1    1    2 2   
     2    2    3 1   
     3    2   21 1   
     4    3    4 ar  
     5    3   19 ar  
     6    4    5 ar  
     7    4   37 1   
     8    5    6 ar  
     9    5   38 1   
    10    6    7 1   
    11    6   18 ar  
    12    7    8 ar  
    13    7   17 ar  
    14    8    9 ar  
    15    8   39 1   
    16    9   10 ar  
    17    9   40 1   
    18   10   11 1   
    19   10   14 ar  
    20   11   12 1   
    21   11   13 1   
    22   14   15 1   
    23   14   17 ar  
    24   15   16 1   
    25   16   41 1   
    26   16   42 1   
    27   16   43 1   
    28   17   44 1   
    29   18   19 ar  
    30   18   45 1   
    31   19   20 1   
    32   20   23 1   
    33   20   46 1   
    34   21   22 1   
    35   21   47 1   
    36   22   23 ar  
    37   22   24 ar  
    38   23   27 ar  
    39   24   25 ar  
    40   24   48 1   
    41   25   26 ar  
    42   25   49 1   
    43   26   27 ar  
    44   26   50 1   
    45   27   28 1   
    46   28   29 1   
    47   29   30 1   
    48   29   51 1   
    49   29   52 1   
    50   30   31 1   
    51   30   53 1   
    52   30   54 1   
    53   31   32 1   
    54   31   34 1   
    55   32   33 1   
    56   32   55 1   
    57   32   56 1   
    58   33   36 1   
    59   33   57 1   
    60   33   58 1   
    61   34   35 1   
    62   34   59 1   
    63   34   60 1   
    64   35   36 1   
    65   35   61 1   
    66   35   62 1   
@<TRIPOS>SUBSTRUCTURE
     1 HK0         1 TEMP              0 ****  ****    0 ROOT
