@<TRIPOS>MOLECULE
HK0
   62    58     1     0     0
SMALL
bcc


@<TRIPOS>ATOM
      1 O6         -4.7280    0.4330   -2.6910 o         1 HK0     -0.259000
      2 C22        -3.6950   -0.1060   -2.7730 c1        1 HK0      0.327000
      3 C10        -3.1050   -0.9990   -1.6910 c2        1 HK0     -0.199000
      4 C11        -3.8600   -1.8390   -0.8670 c2        1 HK0     -0.047000
      5 C12        -3.3840   -2.1870    0.4150 c1        1 HK0     -0.161000
      6 C13        -2.1460   -1.6880    0.8630 c1        1 HK0      0.004000
      7 C15        -1.6970   -2.3700    2.1450 c2        1 HK0      0.010000
      8 C21        -0.3420   -2.3840    2.4920 c1        1 HK0     -0.137000
      9 C20         0.0630   -2.9480    3.7000 c1        1 HK0     -0.064000
     10 C19        -0.8670   -3.4910    4.5530 c1        1 HK0     -0.141000
     11 N3         -0.4500   -4.1380    5.7180 no        1 HK0      0.577000
     12 O5          0.6430   -3.8730    6.2080 o         1 HK0     -0.353000
     13 O4         -1.2130   -5.1270    6.2540 o         1 HK0     -0.353000
     14 C17        -2.2300   -3.4790    4.2070 c1        1 HK0      0.117000
     15 O3         -3.1710   -4.1530    5.0220 os        1 HK0     -0.218000
     16 C18        -4.0000   -3.2910    5.7720 c3        1 HK0     -0.071000
     17 C16        -2.6350   -2.9160    3.0020 c2        1 HK0     -0.146000
     18 C14        -1.3860   -0.8430    0.0330 c1        1 HK0     -0.186000
     19 C9         -1.8640   -0.4980   -1.2420 c1        1 HK0      0.114000
     20 N2         -0.9740   -0.2410   -2.3610 n2        1 HK0     -0.233000
     21 N4         -2.8680   -0.0980   -3.9430 n2        1 HK0     -0.277000
     22 C23        -2.0270    1.0720   -3.9720 c2        1 HK0      0.012000
     23 C8         -1.1720    1.0920   -2.8860 c2        1 HK0     -0.016000
     24 C24        -2.0830    2.1820   -4.8480 c1        1 HK0     -0.102000
     25 C25        -1.2790    3.2890   -4.6160 c1        1 HK0     -0.142500
     26 C26        -0.4190    3.3080   -3.5230 c1        1 HK0     -0.142500
     27 C7         -0.3620    2.2090   -2.6540 c1        1 HK0      0.051000
     28 O2          0.3840    1.7120   -1.5820 os        1 HK0     -0.237000
     29 C6          1.2640    2.6590   -1.0070 c3        1 HK0     -0.018000
     30 C5          2.6640    1.9920   -0.7770 c3        1 HK0     -0.081000
     31 N1          3.6430    3.0210   -0.4270 n3        1 HK0     -0.240000
     32 C2          4.7030    2.4310    0.5280 c3        1 HK0     -0.107500
     33 C1          5.3220    1.1310   -0.0030 c3        1 HK0     -0.053000
     34 C3          4.6140    3.2350   -1.6180 c3        1 HK0     -0.107500
     35 C4          5.2280    1.9300   -2.1220 c3        1 HK0     -0.053000
     36 O1          5.1490    1.0140   -1.2490 os        1 HK0     -0.270000
     37 H21        -4.7260   -2.1860   -1.1810 ha        1 HK0      0.162000
     38 H22        -3.8660   -2.8530    0.9520 ha        1 HK0      0.148000
     39 H32         0.3400   -1.9890    1.8720 ha        1 HK0      0.153000
     40 H31         1.0270   -2.9580    3.9450 ha        1 HK0      0.171000
     41 H29        -3.6820   -3.2730    6.7430 h1        1 HK0      0.091667
     42 H30        -3.9550   -2.3650    5.3900 h1        1 HK0      0.091667
     43 H28        -4.9120   -3.6120    5.7350 h1        1 HK0      0.091667
     44 H27        -3.6280   -2.9070    2.7480 ha        1 HK0      0.163000
     45 H26        -0.5450   -0.5020    0.3370 ha        1 HK0      0.141000
     46 H3         -0.1260   -0.3380   -2.0970 hn        1 HK0      0.223000
     47 H33        -2.9000   -0.6980   -4.5730 hn        1 HK0      0.195000
     48 H36        -2.6860    2.1700   -5.6160 ha        1 HK0      0.161000
     49 H37        -1.3170    4.0910   -5.2490 ha        1 HK0      0.144000
     50 H40         0.1230    4.0570   -3.3680 ha        1 HK0      0.144000
     51 H15         1.3640    3.4310   -1.6200 h1        1 HK0      0.090500
     52 H14         0.8980    2.9700   -0.1420 h1        1 HK0      0.090500
     53 H12         2.6020    1.3470   -0.0590 h1        1 HK0      0.090500
     54 H13         2.9410    1.5460   -1.5850 h1        1 HK0      0.090500
     55 H6          4.2970    2.2550    1.3590 h1        1 HK0      0.098250
     56 H7          5.4010    3.0780    0.6540 h1        1 HK0      0.098250
     57 H4          6.2980    1.1390    0.1880 h1        1 HK0      0.092000
     58 H5          4.9110    0.3640    0.4540 h1        1 HK0      0.092000
     59 H9          5.3060    3.8070   -1.3450 h1        1 HK0      0.098250
     60 H8          4.1350    3.6490   -2.3370 h1        1 HK0      0.098250
     61 H10         6.2210    2.0870   -2.3570 h1        1 HK0      0.092000
     62 H11         4.7590    1.6500   -2.9120 h1        1 HK0      0.092000
@<TRIPOS>BOND
     1    1    2 1   
     2    2    3 1   
     3    3    4 1   
     4    3   19 1   
     5    4    5 1   
     6    4   37 1   
     7    5   38 1   
     8    6    7 1   
     9    6   18 1   
    10    7    8 1   
    11    7   17 1   
    12    8   39 1   
    13    9   10 1   
    14    9   40 1   
    15   10   11 1   
    16   11   12 1   
    17   11   13 1   
    18   14   15 1   
    19   14   17 1   
    20   15   16 1   
    21   16   41 1   
    22   16   42 1   
    23   16   43 1   
    24   17   44 1   
    25   18   45 1   
    26   20   23 1   
    27   20   46 1   
    28   21   22 1   
    29   21   47 1   
    30   22   23 1   
    31   22   24 1   
    32   23   27 1   
    33   24   48 1   
    34   25   26 1   
    35   25   49 1   
    36   26   50 1   
    37   27   28 1   
    38   28   29 1   
    39   29   30 1   
    40   29   51 1   
    41   29   52 1   
    42   30   31 1   
    43   30   53 1   
    44   30   54 1   
    45   31   32 1   
    46   31   34 1   
    47   32   33 1   
    48   32   55 1   
    49   32   56 1   
    50   33   36 1   
    51   33   57 1   
    52   33   58 1   
    53   34   35 1   
    54   34   59 1   
    55   34   60 1   
    56   35   36 1   
    57   35   61 1   
    58   35   62 1   
@<TRIPOS>SUBSTRUCTURE
     1 HK0         1 TEMP              0 ****  ****    0 ROOT
