@<TRIPOS>MOLECULE
HK0
   62    66     1     0     0
SMALL
bcc


@<TRIPOS>ATOM
      1 O6         -0.3260    0.2780   -0.2490 o         1 HK0     -0.625500
      2 C22         0.9180    0.2840   -0.1410 c         1 HK0      0.708100
      3 C10         1.5740    0.3850    1.1870 ca        1 HK0     -0.156600
      4 C11         0.8890   -0.1670    2.2770 ca        1 HK0     -0.073000
      5 C12         1.4260   -0.0950    3.5570 ca        1 HK0     -0.127000
      6 C13         2.6540    0.5460    3.7690 cp        1 HK0     -0.035000
      7 C15         3.2190    0.6310    5.1170 cp        1 HK0      0.044000
      8 C21         3.8130    1.8240    5.5590 ca        1 HK0     -0.168000
      9 C20         4.3460    1.9130    6.8360 ca        1 HK0     -0.038000
     10 C19         4.3040    0.8070    7.7030 ca        1 HK0     -0.216200
     11 N3          4.8840    0.9350    9.0600 no        1 HK0      0.325200
     12 O5          4.8160    0.0170    9.8280 o         1 HK0     -0.205000
     13 O4          5.4140    1.9760    9.3570 o         1 HK0     -0.205000
     14 C17         3.7090   -0.4030    7.2620 ca        1 HK0      0.195100
     15 O3          3.7030   -1.4460    8.1500 os        1 HK0     -0.283900
     16 C18         3.1260   -2.6710    7.7030 c3        1 HK0      0.106700
     17 C16         3.1690   -0.4760    5.9680 ca        1 HK0     -0.216000
     18 C14         3.3400    1.1110    2.6890 ca        1 HK0     -0.090000
     19 C9          2.8080    1.0390    1.3870 ca        1 HK0      0.124600
     20 N2          3.5460    1.6450    0.3220 na        1 HK0     -0.568000
     21 N4          1.6480    0.1920   -1.3210 n         1 HK0     -0.473100
     22 C23         3.0300   -0.0150   -1.4620 ca        1 HK0      0.068600
     23 C8          3.9680    0.7010   -0.6650 ca        1 HK0      0.012600
     24 C24         3.4860   -0.9000   -2.4640 ca        1 HK0     -0.202000
     25 C25         4.8460   -1.0890   -2.6610 ca        1 HK0     -0.064000
     26 C26         5.7820   -0.4210   -1.8770 ca        1 HK0     -0.233000
     27 C7          5.3540    0.4630   -0.8780 ca        1 HK0      0.188100
     28 O2          6.2230    1.1540   -0.0630 os        1 HK0     -0.300900
     29 C6          7.6220    0.9720   -0.3260 c3        1 HK0      0.124400
     30 C5          8.3390    1.8840    0.6810 c3        1 HK0      0.169800
     31 N1          8.7650    1.1840    1.8820 n3        1 HK0     -0.731600
     32 C2         10.0110    0.4530    1.6970 c3        1 HK0      0.135800
     33 C1         10.4770   -0.2440    2.9800 c3        1 HK0      0.126400
     34 C3          8.8060    2.0500    3.0530 c3        1 HK0      0.135800
     35 C4          9.3050    1.3190    4.3040 c3        1 HK0      0.126400
     36 O1         10.5470    0.6650    4.0720 os        1 HK0     -0.413600
     37 H21        -0.0880   -0.6500    2.1070 ha        1 HK0      0.161000
     38 H22         0.8770   -0.5280    4.4070 ha        1 HK0      0.143000
     39 H32         3.8480    2.6980    4.8900 ha        1 HK0      0.154000
     40 H31         4.8080    2.8560    7.1810 ha        1 HK0      0.174000
     41 H29         3.2550   -3.3440    8.5890 h1        1 HK0      0.053700
     42 H30         3.6800   -3.0690    6.8190 h1        1 HK0      0.053700
     43 H28         2.0440   -2.5320    7.4650 h1        1 HK0      0.053700
     44 H27         2.7100   -1.4100    5.6130 ha        1 HK0      0.154000
     45 H26         4.3130    1.6050    2.8520 ha        1 HK0      0.164000
     46 H3          2.9970    2.3720   -0.1100 hn        1 HK0      0.389800
     47 H33         1.1030    0.0140   -2.1420 hn        1 HK0      0.329500
     48 H36         2.7660   -1.4460   -3.0930 ha        1 HK0      0.141000
     49 H37         5.1910   -1.7810   -3.4450 ha        1 HK0      0.138000
     50 H40         6.8520   -0.5990   -2.0530 ha        1 HK0      0.143000
     51 H15         7.8910   -0.1090   -0.2050 h1        1 HK0      0.046700
     52 H14         7.8480    1.3110   -1.3710 h1        1 HK0      0.046700
     53 H12         7.6220    2.7070    0.9700 h1        1 HK0      0.053200
     54 H13         9.2110    2.3590    0.1420 h1        1 HK0      0.053200
     55 H6         10.8420    1.1310    1.3390 h1        1 HK0      0.039700
     56 H7          9.8390   -0.3290    0.9060 h1        1 HK0      0.039700
     57 H4          9.7930   -1.0940    3.2410 h1        1 HK0      0.055700
     58 H5         11.5280   -0.6170    2.8570 h1        1 HK0      0.055700
     59 H9          7.7590    2.4150    3.2480 h1        1 HK0      0.039700
     60 H8          9.4640    2.9510    2.8800 h1        1 HK0      0.039700
     61 H10         9.5260    2.0560    5.1200 h1        1 HK0      0.055700
     62 H11         8.5470    0.5700    4.6540 h1        1 HK0      0.055700
@<TRIPOS>BOND
     1    1    2 2   
     2    2    3 1   
     3    2   21 1   
     4    3    4 ar  
     5    3   19 ar  
     6    4    5 ar  
     7    4   37 1   
     8    5    6 ar  
     9    5   38 1   
    10    6    7 1   
    11    6   18 ar  
    12    7    8 ar  
    13    7   17 ar  
    14    8    9 ar  
    15    8   39 1   
    16    9   10 ar  
    17    9   40 1   
    18   10   11 1   
    19   10   14 ar  
    20   11   12 1   
    21   11   13 1   
    22   14   15 1   
    23   14   17 ar  
    24   15   16 1   
    25   16   41 1   
    26   16   42 1   
    27   16   43 1   
    28   17   44 1   
    29   18   19 ar  
    30   18   45 1   
    31   19   20 1   
    32   20   23 1   
    33   20   46 1   
    34   21   22 1   
    35   21   47 1   
    36   22   23 ar  
    37   22   24 ar  
    38   23   27 ar  
    39   24   25 ar  
    40   24   48 1   
    41   25   26 ar  
    42   25   49 1   
    43   26   27 ar  
    44   26   50 1   
    45   27   28 1   
    46   28   29 1   
    47   29   30 1   
    48   29   51 1   
    49   29   52 1   
    50   30   31 1   
    51   30   53 1   
    52   30   54 1   
    53   31   32 1   
    54   31   34 1   
    55   32   33 1   
    56   32   55 1   
    57   32   56 1   
    58   33   36 1   
    59   33   57 1   
    60   33   58 1   
    61   34   35 1   
    62   34   59 1   
    63   34   60 1   
    64   35   36 1   
    65   35   61 1   
    66   35   62 1   
@<TRIPOS>SUBSTRUCTURE
     1 HK0         1 TEMP              0 ****  ****    0 ROOT
