@<TRIPOS>MOLECULE
HK1
   39    42     1     0     0
SMALL
bcc


@<TRIPOS>ATOM
      1 O1         -0.0650    0.3320    0.2580 oh        1 HK1     -0.493100
      2 C1          1.3000    0.2100    0.1460 ca        1 HK1      0.132100
      3 C6          2.0500    0.4860    1.3030 ca        1 HK1     -0.183500
      4 C5          3.4350    0.3830    1.2530 ca        1 HK1     -0.078500
      5 C4          4.0850    0.0110    0.0660 ca        1 HK1     -0.055000
      6 C3          3.3210   -0.2670   -1.0780 ca        1 HK1     -0.078500
      7 C2          1.9340   -0.1690   -1.0460 ca        1 HK1     -0.183500
      8 C7          5.5260   -0.1060   -0.0080 cc        1 HK1     -0.010300
      9 C9          6.3390   -0.8630   -0.8450 cd        1 HK1     -0.257600
     10 C10         6.3720   -1.8520   -1.9500 c3        1 HK1      0.056200
     11 C11         7.8550   -2.0810   -2.1500 ca        1 HK1     -0.082300
     12 C18         8.6370   -1.3010   -1.2460 ca        1 HK1     -0.110500
     13 C8          7.7200   -0.5370   -0.4230 cd        1 HK1      0.343800
     14 N2          7.7130    0.3560    0.5890 nc        1 HK1     -0.464800
     15 N1          6.4220    0.5980    0.8390 na        1 HK1     -0.037600
     16 C17        10.0210   -1.3600   -1.2590 ca        1 HK1     -0.141000
     17 C15        10.6430   -2.2070   -2.1860 ca        1 HK1      0.094100
     18 O3         12.0110   -2.3610   -2.3070 os        1 HK1     -0.304900
     19 C16        12.8030   -1.5920   -1.4100 c3        1 HK1      0.109700
     20 C13         9.8690   -2.9840   -3.0870 ca        1 HK1      0.102100
     21 C12         8.4670   -2.9170   -3.0660 ca        1 HK1     -0.165000
     22 O2         10.5980   -3.7770   -3.9510 os        1 HK1     -0.302900
     23 C14         9.8420   -4.5740   -4.8540 c3        1 HK1      0.110700
     24 H2         -0.4560    0.1130   -0.6010 ho        1 HK1      0.422000
     25 H6          1.5330    0.7750    2.2280 ha        1 HK1      0.146500
     26 H5          4.0140    0.5840    2.1670 ha        1 HK1      0.138500
     27 H4          3.8290   -0.5640   -2.0090 ha        1 HK1      0.138500
     28 H3          1.3410   -0.3860   -1.9450 ha        1 HK1      0.146500
     29 H8          5.8540   -2.8060   -1.6710 hc        1 HK1      0.066700
     30 H7          5.9000   -1.4520   -2.8840 hc        1 HK1      0.066700
     31 H1          6.1650    1.2810    1.5110 hn        1 HK1      0.319700
     32 H10        10.6100   -0.7540   -0.5560 ha        1 HK1      0.154000
     33 H161       12.5870   -1.8720   -0.3500 h1        1 HK1      0.044367
     34 H162       12.6360   -0.4990   -1.5690 h1        1 HK1      0.044367
     35 H163       13.8510   -1.8750   -1.6860 h1        1 HK1      0.044367
     36 H9          7.8640   -3.5170   -3.7620 ha        1 HK1      0.142000
     37 H143        9.1900   -5.2930   -4.3000 h1        1 HK1      0.043367
     38 H141        9.2290   -3.9330   -5.5330 h1        1 HK1      0.043367
     39 H142       10.6280   -5.1220   -5.4340 h1        1 HK1      0.043367
@<TRIPOS>BOND
     1    1    2 1   
     2    1   24 1   
     3    2    3 ar  
     4    2    7 ar  
     5    3    4 ar  
     6    3   25 1   
     7    4    5 ar  
     8    4   26 1   
     9    5    6 ar  
    10    5    8 1   
    11    6    7 ar  
    12    6   27 1   
    13    7   28 1   
    14    8    9 2   
    15    8   15 1   
    16    9   10 1   
    17    9   13 1   
    18   10   11 1   
    19   10   29 1   
    20   10   30 1   
    21   11   12 ar  
    22   11   21 ar  
    23   12   13 1   
    24   12   16 ar  
    25   13   14 2   
    26   14   15 1   
    27   15   31 1   
    28   16   17 ar  
    29   16   32 1   
    30   17   18 1   
    31   17   20 ar  
    32   18   19 1   
    33   19   33 1   
    34   19   34 1   
    35   19   35 1   
    36   20   21 ar  
    37   20   22 1   
    38   21   36 1   
    39   22   23 1   
    40   23   37 1   
    41   23   38 1   
    42   23   39 1   
@<TRIPOS>SUBSTRUCTURE
     1 HK1         1 TEMP              0 ****  ****    0 ROOT
