@<TRIPOS>MOLECULE
HK1
   39    31     1     0     0
SMALL
bcc


@<TRIPOS>ATOM
      1 O1         -7.6320    1.2260   -0.5350 oh        1 HK1     -0.247000
      2 C1         -6.1940    1.1550   -0.4780 c1        1 HK1      0.088000
      3 C6         -5.4860    0.5570   -1.5210 c1        1 HK1     -0.122000
      4 C5         -4.0810    0.5760   -1.5180 c1        1 HK1     -0.122000
      5 C4         -3.4090    1.1770   -0.4960 c1        1 HK1     -0.018000
      6 C3         -4.1280    1.7830    0.5620 c1        1 HK1     -0.111500
      7 C2         -5.5150    1.7640    0.5580 c1        1 HK1     -0.212000
      8 C7         -1.9090    1.1190   -0.4500 c1        1 HK1     -0.043500
      9 C9         -0.7990    0.4270   -0.0140 c1        1 HK1     -0.181000
     10 C10        -0.3430   -0.6830    0.8480 c2        1 HK1     -0.036000
     11 C11         1.1130   -0.7130    0.8070 c1        1 HK1     -0.097000
     12 C18         1.5430    0.3230   -0.0310 c1        1 HK1     -0.018000
     13 C8          0.3260    1.0420   -0.5480 c1        1 HK1     -0.043500
     14 N2         -0.0910    2.0990   -1.3040 n2        1 HK1     -0.104500
     15 N1         -1.4780    2.1510   -1.2470 n2        1 HK1     -0.104500
     16 C17         2.9160    0.5270   -0.2460 c1        1 HK1     -0.111500
     17 C15         3.8470   -0.3010    0.3720 c1        1 HK1      0.049000
     18 O3          5.2540   -0.0670    0.0600 o         1 HK1     -0.211500
     19 C16         5.6080   -0.4500   -1.2330 c3        1 HK1     -0.075500
     20 C13         3.4150   -1.3380    1.2090 c1        1 HK1      0.029000
     21 C12         2.0470   -1.5410    1.4240 c2        1 HK1     -0.101000
     22 O2          4.4130   -1.8320    2.0570 o         1 HK1     -0.211500
     23 C14         4.6840   -3.2170    1.8850 c3        1 HK1     -0.075500
     24 H2         -7.8900    2.0160   -0.9590 ho        1 HK1      0.221000
     25 H6         -5.9600    0.1330   -2.2400 ha        1 HK1      0.144000
     26 H5         -3.6000    0.1670   -2.2290 ha        1 HK1      0.144000
     27 H4         -3.6260    2.2340    1.3300 ha        1 HK1      0.147500
     28 H3         -5.9850    2.1580    1.2500 ha        1 HK1      0.139000
     29 H8         -0.6430   -0.5370    1.7580 ha        1 HK1      0.107500
     30 H7         -0.7200   -1.5680    0.4990 ha        1 HK1      0.107500
     31 H1         -2.0180    2.8200   -1.6210 DU        1 HK1      0.270000
     32 H10         3.2290    1.2690   -0.8570 ha        1 HK1      0.147500
     33 H161        5.5630    0.3020   -1.8080 h1        1 HK1      0.083667
     34 H162        6.5800   -0.8270   -1.2310 h1        1 HK1      0.083667
     35 H163        4.9990   -1.1320   -1.5420 h1        1 HK1      0.083667
     36 H9          1.7460   -2.2690    2.0120 ha        1 HK1      0.151000
     37 H143        3.9940   -3.6130    1.3470 h1        1 HK1      0.083667
     38 H141        5.5250   -3.3230    1.4490 h1        1 HK1      0.083667
     39 H142        4.7080   -3.6170    2.6820 h1        1 HK1      0.083667
@<TRIPOS>BOND
     1    1    2 1   
     2    1   24 1   
     3    2    7 1   
     4    3    4 1   
     5    3   25 1   
     6    4   26 1   
     7    5    6 1   
     8    6   27 1   
     9    7   28 1   
    10    8    9 1   
    11    8   15 1   
    12    9   13 1   
    13   10   11 1   
    14   10   29 1   
    15   10   30 1   
    16   11   21 1   
    17   12   16 1   
    18   13   14 1   
    19   14   15 1   
    20   16   32 1   
    21   17   20 1   
    22   18   19 1   
    23   19   33 1   
    24   19   34 1   
    25   19   35 1   
    26   20   21 1   
    27   21   36 1   
    28   22   23 1   
    29   23   37 1   
    30   23   38 1   
    31   23   39 1   
@<TRIPOS>SUBSTRUCTURE
     1 HK1         1 TEMP              0 ****  ****    0 ROOT
