@<TRIPOS>MOLECULE
HK1
   39    42     1     0     0
SMALL
bcc


@<TRIPOS>ATOM
      1 O1         -7.1980    1.0540    0.0070 oh        1 HK1     -0.493100
      2 C1         -5.8940    0.6170    0.0230 ca        1 HK1      0.132100
      3 C6         -5.6530   -0.6550   -0.5230 ca        1 HK1     -0.183500
      4 C5         -4.3560   -1.1530   -0.5340 ca        1 HK1     -0.078500
      5 C4         -3.2940   -0.4010   -0.0070 ca        1 HK1     -0.055000
      6 C3         -3.5510    0.8700    0.5290 ca        1 HK1     -0.078500
      7 C2         -4.8430    1.3830    0.5470 ca        1 HK1     -0.183500
      8 C7         -1.9340   -0.8990   -0.0110 cc        1 HK1     -0.010300
      9 C9         -0.7160   -0.2260    0.0010 cd        1 HK1     -0.257600
     10 C10        -0.0520    1.0990   -0.0000 c3        1 HK1      0.056200
     11 C11         1.4180    0.7370   -0.0020 ca        1 HK1     -0.082300
     12 C18         1.6140   -0.6760   -0.0050 ca        1 HK1     -0.110500
     13 C8          0.3050   -1.2990   -0.0040 cd        1 HK1      0.343800
     14 N2         -0.2800   -2.5150   -0.0130 nc        1 HK1     -0.464800
     15 N1         -1.5950   -2.2770   -0.0290 na        1 HK1     -0.037600
     16 C17         2.8860   -1.2260   -0.0070 ca        1 HK1     -0.141000
     17 C15         3.9860   -0.3560   -0.0070 ca        1 HK1      0.094100
     18 O3          5.3050   -0.7690   -0.0090 os        1 HK1     -0.304900
     19 C16         5.5160   -2.1760   -0.0160 c3        1 HK1      0.109700
     20 C13         3.7950    1.0500   -0.0040 ca        1 HK1      0.102100
     21 C12         2.5030    1.5960   -0.0020 ca        1 HK1     -0.165000
     22 O2          4.9570    1.7970   -0.0030 os        1 HK1     -0.302900
     23 C14         4.7890    3.2090   -0.0150 c3        1 HK1      0.110700
     24 H2         -7.2230    1.9360    0.4060 ho        1 HK1      0.422000
     25 H6         -6.4900   -1.2360   -0.9350 ha        1 HK1      0.146500
     26 H5         -4.1720   -2.1430   -0.9780 ha        1 HK1      0.138500
     27 H4         -2.7180    1.4640    0.9380 ha        1 HK1      0.138500
     28 H3         -5.0390    2.3790    0.9700 ha        1 HK1      0.146500
     29 H8         -0.3170    1.6980   -0.9090 hc        1 HK1      0.066700
     30 H7         -0.3130    1.6990    0.9090 hc        1 HK1      0.066700
     31 H1         -2.2380   -3.0300    0.0270 hn        1 HK1      0.319700
     32 H10         3.0210   -2.3160   -0.0090 ha        1 HK1      0.154000
     33 H161        5.0840   -2.6460    0.9010 h1        1 HK1      0.044367
     34 H162        5.0810   -2.6380   -0.9350 h1        1 HK1      0.044367
     35 H163        6.6320   -2.2680   -0.0190 h1        1 HK1      0.044367
     36 H9          2.3510    2.6840   -0.0000 ha        1 HK1      0.142000
     37 H143        5.8410    3.5930   -0.0190 h1        1 HK1      0.043367
     38 H141        4.2470    3.5380   -0.9350 h1        1 HK1      0.043367
     39 H142        4.2500    3.5530    0.9010 h1        1 HK1      0.043367
@<TRIPOS>BOND
     1    1    2 1   
     2    1   24 1   
     3    2    3 ar  
     4    2    7 ar  
     5    3    4 ar  
     6    3   25 1   
     7    4    5 ar  
     8    4   26 1   
     9    5    6 ar  
    10    5    8 1   
    11    6    7 ar  
    12    6   27 1   
    13    7   28 1   
    14    8    9 2   
    15    8   15 1   
    16    9   10 1   
    17    9   13 1   
    18   10   11 1   
    19   10   29 1   
    20   10   30 1   
    21   11   12 ar  
    22   11   21 ar  
    23   12   13 1   
    24   12   16 ar  
    25   13   14 2   
    26   14   15 1   
    27   15   31 1   
    28   16   17 ar  
    29   16   32 1   
    30   17   18 1   
    31   17   20 ar  
    32   18   19 1   
    33   19   33 1   
    34   19   34 1   
    35   19   35 1   
    36   20   21 ar  
    37   20   22 1   
    38   21   36 1   
    39   22   23 1   
    40   23   37 1   
    41   23   38 1   
    42   23   39 1   
@<TRIPOS>SUBSTRUCTURE
     1 HK1         1 TEMP              0 ****  ****    0 ROOT
