@<TRIPOS>MOLECULE
HK1
   39    42     1     0     0
SMALL
bcc


@<TRIPOS>ATOM
      1 O1         -0.0620    0.3370    0.2620 oh        1 HK1     -0.493100
      2 C1          1.3020    0.2150    0.1490 ca        1 HK1      0.132100
      3 C6          2.0540    0.4940    1.3030 ca        1 HK1     -0.183500
      4 C5          3.4380    0.3910    1.2520 ca        1 HK1     -0.078500
      5 C4          4.0870    0.0150    0.0650 ca        1 HK1     -0.055000
      6 C3          3.3210   -0.2660   -1.0770 ca        1 HK1     -0.078500
      7 C2          1.9340   -0.1680   -1.0420 ca        1 HK1     -0.183500
      8 C7          5.5280   -0.1010   -0.0100 cc        1 HK1     -0.010300
      9 C9          6.3400   -0.8610   -0.8470 cd        1 HK1     -0.257600
     10 C10         6.3710   -1.8520   -1.9490 c3        1 HK1      0.056200
     11 C11         7.8540   -2.0810   -2.1510 ca        1 HK1     -0.082300
     12 C18         8.6370   -1.3000   -1.2500 ca        1 HK1     -0.110500
     13 C8          7.7210   -0.5330   -0.4280 cd        1 HK1      0.343800
     14 N2          7.7150    0.3620    0.5820 nc        1 HK1     -0.464800
     15 N1          6.4250    0.6050    0.8330 na        1 HK1     -0.037600
     16 C17        10.0210   -1.3580   -1.2640 ca        1 HK1     -0.141000
     17 C15        10.6420   -2.2080   -2.1910 ca        1 HK1      0.094100
     18 O3         12.0090   -2.3620   -2.3130 os        1 HK1     -0.304900
     19 C16        12.8030   -1.5920   -1.4180 c3        1 HK1      0.109700
     20 C13         9.8660   -2.9860   -3.0890 ca        1 HK1      0.102100
     21 C12         8.4650   -2.9200   -3.0660 ca        1 HK1     -0.165000
     22 O2         10.5940   -3.7820   -3.9520 os        1 HK1     -0.302900
     23 C14         9.8370   -4.5820   -4.8520 c3        1 HK1      0.110700
     24 H2         -0.4550    0.1160   -0.5950 ho        1 HK1      0.422000
     25 H6          1.5380    0.7860    2.2290 ha        1 HK1      0.146500
     26 H5          4.0190    0.5950    2.1640 ha        1 HK1      0.138500
     27 H4          3.8290   -0.5660   -2.0070 ha        1 HK1      0.138500
     28 H3          1.3400   -0.3880   -1.9400 ha        1 HK1      0.146500
     29 H8          5.8980   -1.4540   -2.8830 hc        1 HK1      0.066700
     30 H7          5.8540   -2.8050   -1.6670 hc        1 HK1      0.066700
     31 H1          6.1690    1.2890    1.5040 hn        1 HK1      0.319700
     32 H10        10.6110   -0.7500   -0.5640 ha        1 HK1      0.154000
     33 H161       12.5880   -1.8690   -0.3570 h1        1 HK1      0.044367
     34 H162       12.6360   -0.4990   -1.5790 h1        1 HK1      0.044367
     35 H163       13.8510   -1.8750   -1.6950 h1        1 HK1      0.044367
     36 H9          7.8610   -3.5220   -3.7590 ha        1 HK1      0.142000
     37 H143        9.1860   -5.2980   -4.2950 h1        1 HK1      0.043367
     38 H141        9.2230   -3.9420   -5.5310 h1        1 HK1      0.043367
     39 H142       10.6220   -5.1310   -5.4310 h1        1 HK1      0.043367
@<TRIPOS>BOND
     1    1    2 1   
     2    1   24 1   
     3    2    3 ar  
     4    2    7 ar  
     5    3    4 ar  
     6    3   25 1   
     7    4    5 ar  
     8    4   26 1   
     9    5    6 ar  
    10    5    8 1   
    11    6    7 ar  
    12    6   27 1   
    13    7   28 1   
    14    8    9 2   
    15    8   15 1   
    16    9   10 1   
    17    9   13 1   
    18   10   11 1   
    19   10   29 1   
    20   10   30 1   
    21   11   12 ar  
    22   11   21 ar  
    23   12   13 1   
    24   12   16 ar  
    25   13   14 2   
    26   14   15 1   
    27   15   31 1   
    28   16   17 ar  
    29   16   32 1   
    30   17   18 1   
    31   17   20 ar  
    32   18   19 1   
    33   19   33 1   
    34   19   34 1   
    35   19   35 1   
    36   20   21 ar  
    37   20   22 1   
    38   21   36 1   
    39   22   23 1   
    40   23   37 1   
    41   23   38 1   
    42   23   39 1   
@<TRIPOS>SUBSTRUCTURE
     1 HK1         1 TEMP              0 ****  ****    0 ROOT
