@<TRIPOS>MOLECULE
HK3
   47    51     1     0     0
SMALL
bcc


@<TRIPOS>ATOM
      1 O1         -9.4000    1.3970    0.0480 oh        1 HK3     -0.495100
      2 C1         -8.0990    0.9530    0.0600 ca        1 HK3      0.131100
      3 C6         -7.7270   -0.2900    0.5900 ca        1 HK3     -0.186500
      4 C5         -6.3880   -0.6690    0.5640 ca        1 HK3     -0.078500
      5 C4         -5.4140    0.1800    0.0200 cp        1 HK3     -0.082000
      6 C3         -5.8050    1.4230   -0.5050 ca        1 HK3     -0.078500
      7 C2         -7.1370    1.8160   -0.4920 ca        1 HK3     -0.186500
      8 C7         -4.0110   -0.2220   -0.0010 cp        1 HK3     -0.005000
      9 C12        -2.9980    0.7100    0.2760 ca        1 HK3     -0.134500
     10 C11        -1.6630    0.3270    0.2580 ca        1 HK3     -0.090500
     11 C10        -1.3040   -0.9970   -0.0380 ca        1 HK3     -0.146500
     12 C9         -2.3150   -1.9320   -0.3130 ca        1 HK3     -0.090500
     13 C8         -3.6520   -1.5450   -0.2940 ca        1 HK3     -0.134500
     14 C13         0.0920   -1.3870   -0.0530 cc        1 HK3      0.472800
     15 C15         1.2450   -0.4610   -0.0150 cc        1 HK3     -0.331600
     16 C16         1.7450    0.7930    0.0240 cd        1 HK3      0.054800
     17 C17         3.2270    0.7020    0.0200 ca        1 HK3     -0.110800
     18 C24         3.6280   -0.6780   -0.0280 ca        1 HK3     -0.114500
     19 C14         2.4040   -1.4690   -0.0540 cc        1 HK3      0.371800
     20 N2          1.9250   -2.7010   -0.1060 nd        1 HK3     -0.278000
     21 N1          0.5660   -2.6500   -0.1050 nd        1 HK3     -0.357000
     22 C23         4.9570   -1.0360   -0.0410 ca        1 HK3     -0.127000
     23 C21         5.9240   -0.0090   -0.0070 ca        1 HK3      0.111100
     24 O3          7.2840   -0.2290   -0.0150 os        1 HK3     -0.299900
     25 C22         7.6990   -1.5910   -0.0620 c3        1 HK3      0.106700
     26 C19         5.5330    1.3510    0.0400 ca        1 HK3      0.092100
     27 C18         4.1700    1.7080    0.0530 ca        1 HK3     -0.126000
     28 O2          6.5720    2.2590    0.0700 os        1 HK3     -0.299900
     29 C20         6.2040    3.6320    0.1110 c3        1 HK3      0.108700
     30 H1         -9.9540    0.7120    0.4500 ho        1 HK3      0.421000
     31 H2         -8.4840   -0.9590    1.0220 ha        1 HK3      0.144500
     32 H3         -6.0910   -1.6420    0.9840 ha        1 HK3      0.138500
     33 H4         -5.0470    2.0910   -0.9410 ha        1 HK3      0.138500
     34 H5         -7.4510    2.7850   -0.9060 ha        1 HK3      0.144500
     35 H6         -3.2660    1.7500    0.5180 ha        1 HK3      0.139000
     36 H7         -0.8800    1.0670    0.4840 ha        1 HK3      0.144500
     37 H8         -2.0540   -2.9760   -0.5470 ha        1 HK3      0.144500
     38 H9         -4.4350   -2.2850   -0.5200 ha        1 HK3      0.139000
     39 H10         1.2190    1.7490    0.0520 ha        1 HK3      0.154000
     40 H11         5.2550   -2.0940   -0.0770 ha        1 HK3      0.162000
     41 H222        7.3390   -2.0830   -0.9970 h1        1 HK3      0.049367
     42 H223        8.8160   -1.5160   -0.0600 h1        1 HK3      0.049367
     43 H221        7.3400   -2.1440    0.8390 h1        1 HK3      0.049367
     44 H12         3.8670    2.7640    0.0890 ha        1 HK3      0.147000
     45 H203        7.1910    4.1610    0.1270 h1        1 HK3      0.046033
     46 H201        5.6210    3.9140   -0.7990 h1        1 HK3      0.046033
     47 H202        5.6210    3.8600    1.0370 h1        1 HK3      0.046033
@<TRIPOS>BOND
     1    1    2 1   
     2    1   30 1   
     3    2    3 ar  
     4    2    7 ar  
     5    3    4 ar  
     6    3   31 1   
     7    4    5 ar  
     8    4   32 1   
     9    5    6 ar  
    10    5    8 1   
    11    6    7 ar  
    12    6   33 1   
    13    7   34 1   
    14    8    9 ar  
    15    8   13 ar  
    16    9   10 ar  
    17    9   35 1   
    18   10   11 ar  
    19   10   36 1   
    20   11   12 ar  
    21   11   14 1   
    22   12   13 ar  
    23   12   37 1   
    24   13   38 1   
    25   14   15 1   
    26   14   21 2   
    27   15   16 2   
    28   15   19 1   
    29   16   17 1   
    30   16   39 1   
    31   17   18 ar  
    32   17   27 ar  
    33   18   19 1   
    34   18   22 ar  
    35   19   20 2   
    36   20   21 1   
    37   22   23 ar  
    38   22   40 1   
    39   23   24 1   
    40   23   26 ar  
    41   24   25 1   
    42   25   41 1   
    43   25   42 1   
    44   25   43 1   
    45   26   27 ar  
    46   26   28 1   
    47   27   44 1   
    48   28   29 1   
    49   29   45 1   
    50   29   46 1   
    51   29   47 1   
@<TRIPOS>SUBSTRUCTURE
     1 HK3         1 TEMP              0 ****  ****    0 ROOT
