@<TRIPOS>MOLECULE
HK3
   47    51     1     0     0
SMALL
bcc


@<TRIPOS>ATOM
      1 O1         -0.0920    0.0810   -0.0590 oh        1 HK3     -0.495100
      2 C1          1.2820    0.0870    0.0030 ca        1 HK3      0.131100
      3 C6          1.9890    0.6080    1.0950 ca        1 HK3     -0.186500
      4 C5          3.3800    0.5770    1.0840 ca        1 HK3     -0.078500
      5 C4          4.0750    0.0350   -0.0060 cp        1 HK3     -0.082000
      6 C3          3.3500   -0.4810   -1.0930 ca        1 HK3     -0.078500
      7 C2          1.9620   -0.4630   -1.0970 ca        1 HK3     -0.186500
      8 C7          5.5350    0.0090   -0.0130 cp        1 HK3     -0.005000
      9 C12         6.2470    0.2880   -1.1890 ca        1 HK3     -0.134500
     10 C11         7.6370    0.2640   -1.1950 ca        1 HK3     -0.090500
     11 C10         8.3510   -0.0410   -0.0260 ca        1 HK3     -0.146500
     12 C9          7.6400   -0.3190    1.1530 ca        1 HK3     -0.090500
     13 C8          6.2480   -0.2940    1.1560 ca        1 HK3     -0.134500
     14 C13         9.8000   -0.0620   -0.0420 cc        1 HK3      0.472800
     15 C15        10.6480   -0.0200   -1.2530 cc        1 HK3     -0.331600
     16 C16        10.7770    0.0250   -2.5960 cd        1 HK3      0.054800
     17 C17        12.2260    0.0160   -2.9250 ca        1 HK3     -0.110800
     18 C24        12.9960   -0.0410   -1.7120 ca        1 HK3     -0.114500
     19 C14        12.0420   -0.0700   -0.6100 cc        1 HK3      0.371800
     20 N2         11.9270   -0.1280    0.7060 nd        1 HK3     -0.278000
     21 N1         10.6080   -0.1230    1.0370 nd        1 HK3     -0.357000
     22 C23        14.3730   -0.0600   -1.7400 ca        1 HK3     -0.127000
     23 C21        15.0130   -0.0210   -2.9960 ca        1 HK3      0.111100
     24 O3         16.3810   -0.0350   -3.1650 os        1 HK3     -0.299900
     25 C22        17.1600   -0.0910   -1.9740 c3        1 HK3      0.106700
     26 C19        14.2580    0.0350   -4.1920 ca        1 HK3      0.092100
     27 C18        12.8500    0.0530   -4.1540 ca        1 HK3     -0.126000
     28 O2         15.0020    0.0680   -5.3540 os        1 HK3     -0.299900
     29 C20        14.2640    0.1190   -6.5690 c3        1 HK3      0.108700
     30 H1         -0.4300    0.4800    0.7550 ho        1 HK3      0.421000
     31 H2          1.4500    1.0380    1.9510 ha        1 HK3      0.144500
     32 H3          3.9400    0.9900    1.9380 ha        1 HK3      0.138500
     33 H4          3.8890   -0.9150   -1.9490 ha        1 HK3      0.138500
     34 H5          1.3880   -0.8690   -1.9420 ha        1 HK3      0.144500
     35 H6          5.7000    0.5370   -2.1110 ha        1 HK3      0.139000
     36 H7          8.1820    0.4930   -2.1230 ha        1 HK3      0.144500
     37 H8          8.1820   -0.5600    2.0820 ha        1 HK3      0.144500
     38 H9          5.7030   -0.5220    2.0840 ha        1 HK3      0.139000
     39 H10        10.0050    0.0600   -3.3680 ha        1 HK3      0.154000
     40 H11        14.9540   -0.1030   -0.8080 ha        1 HK3      0.162000
     41 H222       18.2120   -0.0910   -2.3590 h1        1 HK3      0.049367
     42 H223       16.9740    0.8070   -1.3370 h1        1 HK3      0.049367
     43 H221       16.9480   -1.0290   -1.4060 h1        1 HK3      0.049367
     44 H12        12.2640    0.0970   -5.0820 ha        1 HK3      0.147000
     45 H203       13.6220   -0.7880   -6.6820 h1        1 HK3      0.046033
     46 H201       15.0640    0.1360   -7.3530 h1        1 HK3      0.046033
     47 H202       13.6450    1.0480   -6.6190 h1        1 HK3      0.046033
@<TRIPOS>BOND
     1    1    2 1   
     2    1   30 1   
     3    2    3 ar  
     4    2    7 ar  
     5    3    4 ar  
     6    3   31 1   
     7    4    5 ar  
     8    4   32 1   
     9    5    6 ar  
    10    5    8 1   
    11    6    7 ar  
    12    6   33 1   
    13    7   34 1   
    14    8    9 ar  
    15    8   13 ar  
    16    9   10 ar  
    17    9   35 1   
    18   10   11 ar  
    19   10   36 1   
    20   11   12 ar  
    21   11   14 1   
    22   12   13 ar  
    23   12   37 1   
    24   13   38 1   
    25   14   15 1   
    26   14   21 2   
    27   15   16 2   
    28   15   19 1   
    29   16   17 1   
    30   16   39 1   
    31   17   18 ar  
    32   17   27 ar  
    33   18   19 1   
    34   18   22 ar  
    35   19   20 2   
    36   20   21 1   
    37   22   23 ar  
    38   22   40 1   
    39   23   24 1   
    40   23   26 ar  
    41   24   25 1   
    42   25   41 1   
    43   25   42 1   
    44   25   43 1   
    45   26   27 ar  
    46   26   28 1   
    47   27   44 1   
    48   28   29 1   
    49   29   45 1   
    50   29   46 1   
    51   29   47 1   
@<TRIPOS>SUBSTRUCTURE
     1 HK3         1 TEMP              0 ****  ****    0 ROOT
