@<TRIPOS>MOLECULE
HK3
   47    51     1     0     0
SMALL
bcc


@<TRIPOS>ATOM
      1 O1         -0.0930    0.0790   -0.0610 oh        1 HK3     -0.495100
      2 C1          1.2810    0.0850    0.0010 ca        1 HK3      0.131100
      3 C6          1.9880    0.6090    1.0930 ca        1 HK3     -0.186500
      4 C5          3.3790    0.5780    1.0810 ca        1 HK3     -0.078500
      5 C4          4.0750    0.0350   -0.0080 cp        1 HK3     -0.082000
      6 C3          3.3500   -0.4840   -1.0930 ca        1 HK3     -0.078500
      7 C2          1.9610   -0.4660   -1.0980 ca        1 HK3     -0.186500
      8 C7          5.5350    0.0090   -0.0140 cp        1 HK3     -0.005000
      9 C12         6.2470    0.2860   -1.1910 ca        1 HK3     -0.134500
     10 C11         7.6370    0.2630   -1.1960 ca        1 HK3     -0.090500
     11 C10         8.3500   -0.0390   -0.0260 ca        1 HK3     -0.146500
     12 C9          7.6400   -0.3150    1.1530 ca        1 HK3     -0.090500
     13 C8          6.2480   -0.2910    1.1550 ca        1 HK3     -0.134500
     14 C13         9.7990   -0.0590   -0.0420 cc        1 HK3      0.472800
     15 C15        10.6480   -0.0190   -1.2530 cc        1 HK3     -0.331600
     16 C16        10.7780    0.0240   -2.5960 cd        1 HK3      0.054800
     17 C17        12.2260    0.0160   -2.9240 ca        1 HK3     -0.110800
     18 C24        12.9960   -0.0390   -1.7110 ca        1 HK3     -0.114500
     19 C14        12.0420   -0.0670   -0.6090 cc        1 HK3      0.371800
     20 N2         11.9260   -0.1230    0.7070 nd        1 HK3     -0.278000
     21 N1         10.6070   -0.1190    1.0370 nd        1 HK3     -0.357000
     22 C23        14.3730   -0.0580   -1.7390 ca        1 HK3     -0.127000
     23 C21        15.0140   -0.0210   -2.9940 ca        1 HK3      0.111100
     24 O3         16.3810   -0.0340   -3.1630 os        1 HK3     -0.299900
     25 C22        17.1600   -0.0900   -1.9720 c3        1 HK3      0.106700
     26 C19        14.2590    0.0340   -4.1910 ca        1 HK3      0.092100
     27 C18        12.8510    0.0520   -4.1530 ca        1 HK3     -0.126000
     28 O2         15.0030    0.0660   -5.3520 os        1 HK3     -0.299900
     29 C20        14.2660    0.1160   -6.5680 c3        1 HK3      0.108700
     30 H1         -0.4310    0.4790    0.7530 ho        1 HK3      0.421000
     31 H2          1.4490    1.0400    1.9480 ha        1 HK3      0.144500
     32 H3          3.9380    0.9930    1.9350 ha        1 HK3      0.138500
     33 H4          3.8900   -0.9190   -1.9480 ha        1 HK3      0.138500
     34 H5          1.3880   -0.8740   -1.9420 ha        1 HK3      0.144500
     35 H6          5.7000    0.5330   -2.1130 ha        1 HK3      0.139000
     36 H7          8.1820    0.4900   -2.1250 ha        1 HK3      0.144500
     37 H8          8.1810   -0.5540    2.0820 ha        1 HK3      0.144500
     38 H9          5.7020   -0.5180    2.0840 ha        1 HK3      0.139000
     39 H10        10.0060    0.0580   -3.3680 ha        1 HK3      0.154000
     40 H11        14.9540   -0.1000   -0.8060 ha        1 HK3      0.162000
     41 H222       16.9470   -1.0280   -1.4040 h1        1 HK3      0.049033
     42 H223       16.9740    0.8080   -1.3350 h1        1 HK3      0.049033
     43 H221       18.2120   -0.0920   -2.3560 h1        1 HK3      0.049033
     44 H12        12.2650    0.0940   -5.0820 ha        1 HK3      0.147000
     45 H203       15.0660    0.1330   -7.3520 h1        1 HK3      0.046033
     46 H201       13.6470    1.0450   -6.6190 h1        1 HK3      0.046033
     47 H202       13.6240   -0.7910   -6.6810 h1        1 HK3      0.046033
@<TRIPOS>BOND
     1    1    2 1   
     2    1   30 1   
     3    2    3 ar  
     4    2    7 ar  
     5    3    4 ar  
     6    3   31 1   
     7    4    5 ar  
     8    4   32 1   
     9    5    6 ar  
    10    5    8 1   
    11    6    7 ar  
    12    6   33 1   
    13    7   34 1   
    14    8    9 ar  
    15    8   13 ar  
    16    9   10 ar  
    17    9   35 1   
    18   10   11 ar  
    19   10   36 1   
    20   11   12 ar  
    21   11   14 1   
    22   12   13 ar  
    23   12   37 1   
    24   13   38 1   
    25   14   15 1   
    26   14   21 2   
    27   15   16 2   
    28   15   19 1   
    29   16   17 1   
    30   16   39 1   
    31   17   18 ar  
    32   17   27 ar  
    33   18   19 1   
    34   18   22 ar  
    35   19   20 2   
    36   20   21 1   
    37   22   23 ar  
    38   22   40 1   
    39   23   24 1   
    40   23   26 ar  
    41   24   25 1   
    42   25   41 1   
    43   25   42 1   
    44   25   43 1   
    45   26   27 ar  
    46   26   28 1   
    47   27   44 1   
    48   28   29 1   
    49   29   45 1   
    50   29   46 1   
    51   29   47 1   
@<TRIPOS>SUBSTRUCTURE
     1 HK3         1 TEMP              0 ****  ****    0 ROOT
