@<TRIPOS>MOLECULE
HK3
   47    51     1     0     0
SMALL
bcc


@<TRIPOS>ATOM
      1 O1         -0.0920    0.1030   -0.0610 oh        1 HK3     -0.495100
      2 C1          1.2810    0.1020    0.0020 ca        1 HK3      0.131100
      3 C6          1.9910    0.6040    1.1020 ca        1 HK3     -0.186500
      4 C5          3.3820    0.5660    1.0900 ca        1 HK3     -0.078500
      5 C4          4.0750    0.0370   -0.0080 cp        1 HK3     -0.082000
      6 C3          3.3480   -0.4600   -1.1010 ca        1 HK3     -0.078500
      7 C2          1.9590   -0.4350   -1.1060 ca        1 HK3     -0.186500
      8 C7          5.5350    0.0040   -0.0140 cp        1 HK3     -0.005000
      9 C12         6.2480    0.2960   -1.1860 ca        1 HK3     -0.134500
     10 C11         7.6380    0.2660   -1.1920 ca        1 HK3     -0.090500
     11 C10         8.3500   -0.0590   -0.0270 ca        1 HK3     -0.146500
     12 C9          7.6380   -0.3500    1.1470 ca        1 HK3     -0.090500
     13 C8          6.2460   -0.3190    1.1500 ca        1 HK3     -0.134500
     14 C13         9.7990   -0.0860   -0.0430 cc        1 HK3      0.472800
     15 C15        10.6470   -0.0310   -1.2540 cc        1 HK3     -0.331600
     16 C16        10.7780    0.0340   -2.5960 cd        1 HK3      0.054800
     17 C17        12.2260    0.0240   -2.9240 ca        1 HK3     -0.110800
     18 C24        12.9960   -0.0560   -1.7110 ca        1 HK3     -0.114500
     19 C14        12.0420   -0.0960   -0.6110 cc        1 HK3      0.371800
     20 N2         11.9250   -0.1740    0.7040 nd        1 HK3     -0.278000
     21 N1         10.6060   -0.1680    1.0350 nd        1 HK3     -0.357000
     22 C23        14.3720   -0.0800   -1.7400 ca        1 HK3     -0.127000
     23 C21        15.0130   -0.0260   -2.9950 ca        1 HK3      0.111100
     24 O3         16.3810   -0.0440   -3.1640 os        1 HK3     -0.299900
     25 C22        17.1600   -0.1210   -1.9740 c3        1 HK3      0.106700
     26 C19        14.2590    0.0510   -4.1900 ca        1 HK3      0.092100
     27 C18        12.8510    0.0760   -4.1520 ca        1 HK3     -0.126000
     28 O2         15.0040    0.0990   -5.3510 os        1 HK3     -0.299900
     29 C20        14.2660    0.1710   -6.5660 c3        1 HK3      0.108700
     30 H1         -0.4290    0.4920    0.7600 ho        1 HK3      0.421000
     31 H2          1.4540    1.0240    1.9640 ha        1 HK3      0.144500
     32 H3          3.9430    0.9640    1.9500 ha        1 HK3      0.138500
     33 H4          3.8850   -0.8850   -1.9640 ha        1 HK3      0.138500
     34 H5          1.3840   -0.8270   -1.9560 ha        1 HK3      0.144500
     35 H6          5.7030    0.5610   -2.1050 ha        1 HK3      0.139000
     36 H7          8.1850    0.5050   -2.1170 ha        1 HK3      0.144500
     37 H8          8.1780   -0.6070    2.0730 ha        1 HK3      0.144500
     38 H9          5.6990   -0.5580    2.0750 ha        1 HK3      0.139000
     39 H10        10.0060    0.0850   -3.3670 ha        1 HK3      0.154000
     40 H11        14.9530   -0.1410   -0.8080 ha        1 HK3      0.162000
     41 H222       18.2120   -0.1210   -2.3580 h1        1 HK3      0.049367
     42 H223       16.9770    0.7680   -1.3230 h1        1 HK3      0.049367
     43 H221       16.9420   -1.0670   -1.4200 h1        1 HK3      0.049367
     44 H12        12.2650    0.1360   -5.0800 ha        1 HK3      0.147000
     45 H203       13.6200   -0.7310   -6.6920 h1        1 HK3      0.046033
     46 H201       15.0670    0.1960   -7.3490 h1        1 HK3      0.046033
     47 H202       13.6520    1.1030   -6.6020 h1        1 HK3      0.046033
@<TRIPOS>BOND
     1    1    2 1   
     2    1   30 1   
     3    2    3 ar  
     4    2    7 ar  
     5    3    4 ar  
     6    3   31 1   
     7    4    5 ar  
     8    4   32 1   
     9    5    6 ar  
    10    5    8 1   
    11    6    7 ar  
    12    6   33 1   
    13    7   34 1   
    14    8    9 ar  
    15    8   13 ar  
    16    9   10 ar  
    17    9   35 1   
    18   10   11 ar  
    19   10   36 1   
    20   11   12 ar  
    21   11   14 1   
    22   12   13 ar  
    23   12   37 1   
    24   13   38 1   
    25   14   15 1   
    26   14   21 2   
    27   15   16 2   
    28   15   19 1   
    29   16   17 1   
    30   16   39 1   
    31   17   18 ar  
    32   17   27 ar  
    33   18   19 1   
    34   18   22 ar  
    35   19   20 2   
    36   20   21 1   
    37   22   23 ar  
    38   22   40 1   
    39   23   24 1   
    40   23   26 ar  
    41   24   25 1   
    42   25   41 1   
    43   25   42 1   
    44   25   43 1   
    45   26   27 ar  
    46   26   28 1   
    47   27   44 1   
    48   28   29 1   
    49   29   45 1   
    50   29   46 1   
    51   29   47 1   
@<TRIPOS>SUBSTRUCTURE
     1 HK3         1 TEMP              0 ****  ****    0 ROOT
