@<TRIPOS>MOLECULE
HK3
   47    37     1     0     0
SMALL
bcc


@<TRIPOS>ATOM
      1 O1         -9.0860    1.8920    1.8390 oh        1 HK3     -0.249000
      2 C1         -7.7790    1.3920    1.6700 c1        1 HK3      0.086000
      3 C6         -7.0880    1.6470    0.4920 c1        1 HK3     -0.119000
      4 C5         -5.7850    1.2310    0.3540 c1        1 HK3     -0.119000
      5 C4         -5.1430    0.5420    1.4100 c1        1 HK3     -0.043000
      6 C3         -5.8200    0.2870    2.5780 c1        1 HK3     -0.096000
      7 C2         -7.1450    0.7100    2.7200 c1        1 HK3     -0.215000
      8 C7         -3.7010    0.1590    1.2810 c1        1 HK3     -0.043000
      9 C12        -3.3600   -1.1710    1.0370 c1        1 HK3     -0.119000
     10 C11        -2.0230   -1.5800    1.1180 c1        1 HK3     -0.119000
     11 C10        -1.0250   -0.6550    1.4430 c1        1 HK3     -0.043000
     12 C9         -1.3630    0.6740    1.6870 c1        1 HK3     -0.096000
     13 C8         -2.7100    1.0830    1.6050 c1        1 HK3     -0.096000
     14 C13         0.4130   -1.1620    1.7730 c1        1 HK3      0.041000
     15 C15         1.3160   -1.5290    0.7050 c1        1 HK3     -0.204000
     16 C16         1.2250   -0.7800   -0.7150 c2        1 HK3      0.051000
     17 C17         2.5260   -0.1270   -1.0250 c1        1 HK3     -0.123000
     18 C24         3.4500   -0.3580    0.0430 c1        1 HK3     -0.028500
     19 C14         2.7940   -1.1850    1.1160 c1        1 HK3     -0.028500
     20 N2          2.5670   -0.5910    2.4940 n1        1 HK3     -0.054000
     21 N1          1.1340   -0.6000    2.8200 n1        1 HK3     -0.054000
     22 C23         4.9660   -0.5220   -0.2550 c1        1 HK3     -0.140000
     23 C21         5.4690   -0.4310   -1.6840 c1        1 HK3      0.068000
     24 O3          6.8560   -0.3370   -1.9390 o         1 HK3     -0.203000
     25 C22         7.6620   -1.0500   -1.0120 c3        1 HK3     -0.080000
     26 C19         4.4900   -0.2660   -2.8070 c2        1 HK3      0.018000
     27 C18         3.0330   -0.0520   -2.5010 c2        1 HK3     -0.061000
     28 O2          4.8960   -0.4880   -4.1220 os        1 HK3     -0.212000
     29 C20         5.3050    0.6930   -4.8050 c3        1 HK3     -0.076000
     30 H1         -9.1510    2.3300    2.6650 ho        1 HK3      0.220000
     31 H2         -7.5610    2.1570   -0.2930 ha        1 HK3      0.140000
     32 H3         -5.3000    1.4110   -0.4780 ha        1 HK3      0.140000
     33 H4         -5.3480   -0.2190    3.3540 ha        1 HK3      0.146000
     34 H5         -7.6030    0.5400    3.5030 ha        1 HK3      0.136000
     35 H6         -4.0780   -1.8380    0.8030 ha        1 HK3      0.140000
     36 H7         -1.7740   -2.5650    0.9360 ha        1 HK3      0.140000
     37 H8         -0.6820    1.3100    1.9100 ha        1 HK3      0.146000
     38 H9         -2.9430    1.9880    1.7700 ha        1 HK3      0.146000
     39 H10         0.6750   -1.1500   -1.4330 ha        1 HK3      0.155000
     40 H11         5.6160   -0.6930    0.5040 ha        1 HK3      0.161000
     41 H222        7.5220   -2.0080   -1.1300 h1        1 HK3      0.090000
     42 H223        7.4050   -0.7820   -0.0640 h1        1 HK3      0.090000
     43 H221        8.5850   -0.8420   -1.1650 h1        1 HK3      0.090000
     44 H12         2.3780    0.0580   -3.2490 ha        1 HK3      0.157000
     45 H203        4.6000    0.9410   -5.5210 h1        1 HK3      0.085333
     46 H201        5.3890    1.4050   -4.1820 h1        1 HK3      0.085333
     47 H202        6.1950    0.5320   -5.2500 h1        1 HK3      0.085333
@<TRIPOS>BOND
     1    1    2 1   
     2    1   30 1   
     3    2    7 1   
     4    3    4 1   
     5    3   31 1   
     6    4   32 1   
     7    5    6 1   
     8    6   33 1   
     9    7   34 1   
    10    8   13 1   
    11    9   10 1   
    12    9   35 1   
    13   10   36 1   
    14   11   12 1   
    15   12   37 1   
    16   13   38 1   
    17   14   15 1   
    18   15   16 1   
    19   16   17 1   
    20   16   39 1   
    21   17   27 1   
    22   18   19 1   
    23   20   21 1   
    24   22   23 1   
    25   22   40 1   
    26   23   26 1   
    27   24   25 1   
    28   25   41 1   
    29   25   42 1   
    30   25   43 1   
    31   26   27 1   
    32   26   28 1   
    33   27   44 1   
    34   28   29 1   
    35   29   45 1   
    36   29   46 1   
    37   29   47 1   
@<TRIPOS>SUBSTRUCTURE
     1 HK3         1 TEMP              0 ****  ****    0 ROOT
