@<TRIPOS>MOLECULE
HK4
   45    48     1     0     0
SMALL
bcc


@<TRIPOS>ATOM
      1 O1          0.0770    0.7690   -0.0820 oh        1 HK4     -0.470100
      2 C1          1.4360    0.5790   -0.0560 ca        1 HK4      0.117100
      3 C6          1.9770   -0.0380    1.1030 ca        1 HK4      0.100100
      4 O2          1.0570   -0.3750    2.0750 os        1 HK4     -0.301900
      5 C7          1.5850   -0.9880    3.2460 c3        1 HK4      0.108700
      6 C5          3.3500   -0.2590    1.1920 ca        1 HK4     -0.153000
      7 C4          4.1950    0.1280    0.1350 ca        1 HK4      0.013000
      8 C3          3.6550    0.7350   -1.0060 ca        1 HK4     -0.094000
      9 C2          2.2830    0.9590   -1.1000 ca        1 HK4     -0.194000
     10 C8          5.5790   -0.0980    0.2300 cg        1 HK4     -0.064000
     11 C9          6.7610   -0.2880    0.3050 ch        1 HK4     -0.104000
     12 C10         8.1380   -0.4900    0.3640 cd        1 HK4      0.041700
     13 C12         9.1670   -0.0470   -0.4620 cc        1 HK4     -0.225600
     14 C13         9.5110    0.7380   -1.6710 c3        1 HK4      0.054200
     15 C14        11.0170    0.6080   -1.7360 ca        1 HK4     -0.102300
     16 C21        11.5290   -0.1900   -0.6580 ca        1 HK4     -0.091500
     17 C11        10.3960   -0.6060    0.1450 cc        1 HK4      0.331800
     18 N2         10.1010   -1.3260    1.2500 nd        1 HK4     -0.449800
     19 N1          8.7760   -1.2570    1.3790 na        1 HK4     -0.029600
     20 C20        12.8770   -0.4460   -0.5330 ca        1 HK4     -0.109000
     21 C18        13.7610    0.1120   -1.4890 ca        1 HK4      0.118100
     22 O4         15.0910   -0.1580   -1.2420 os        1 HK4     -0.330900
     23 C19        15.9770   -0.1220   -2.3570 c3        1 HK4      0.124700
     24 C16        13.2620    0.8990   -2.5380 ca        1 HK4      0.028100
     25 C15        11.8780    1.1440   -2.6670 ca        1 HK4     -0.113000
     26 O3         14.1200    1.3650   -3.5290 os        1 HK4     -0.347900
     27 C17        14.2910    2.7820   -3.5100 c3        1 HK4      0.115700
     28 H2         -0.1440    1.1930   -0.9250 ho        1 HK4      0.418000
     29 H73         2.2970   -0.3020    3.7660 h1        1 HK4      0.046033
     30 H72         0.6750   -1.1630    3.8750 h1        1 HK4      0.046033
     31 H71         2.0830   -1.9560    2.9960 h1        1 HK4      0.046033
     32 H5          3.7850   -0.7350    2.0830 ha        1 HK4      0.147000
     33 H4          4.3150    1.0380   -1.8330 ha        1 HK4      0.144000
     34 H3          1.8640    1.4370   -1.9980 ha        1 HK4      0.141000
     35 H6          9.2040    1.8110   -1.5710 hc        1 HK4      0.072200
     36 H7          9.0320    0.3160   -2.5910 hc        1 HK4      0.072200
     37 H1          8.3180   -1.7220    2.1280 hn        1 HK4      0.324700
     38 H9         13.2830   -1.0590    0.2850 ha        1 HK4      0.164000
     39 H191       16.2340    0.9390   -2.5980 h1        1 HK4      0.046700
     40 H192       16.8780   -0.6770   -1.9930 h1        1 HK4      0.046700
     41 H193       15.5280   -0.6220   -3.2480 h1        1 HK4      0.046700
     42 H8         11.5160    1.7540   -3.5070 ha        1 HK4      0.145000
     43 H172       13.3080    3.3000   -3.6150 h1        1 HK4      0.040700
     44 H171       14.9430    2.9830   -4.3960 h1        1 HK4      0.040700
     45 H173       14.7960    3.0970   -2.5650 h1        1 HK4      0.040700
@<TRIPOS>BOND
     1    1    2 1   
     2    1   28 1   
     3    2    3 ar  
     4    2    9 ar  
     5    3    4 1   
     6    3    6 ar  
     7    4    5 1   
     8    5   29 1   
     9    5   30 1   
    10    5   31 1   
    11    6    7 ar  
    12    6   32 1   
    13    7    8 ar  
    14    7   10 1   
    15    8    9 ar  
    16    8   33 1   
    17    9   34 1   
    18   10   11 3   
    19   11   12 1   
    20   12   13 2   
    21   12   19 1   
    22   13   14 1   
    23   13   17 1   
    24   14   15 1   
    25   14   35 1   
    26   14   36 1   
    27   15   16 ar  
    28   15   25 ar  
    29   16   17 1   
    30   16   20 ar  
    31   17   18 2   
    32   18   19 1   
    33   19   37 1   
    34   20   21 ar  
    35   20   38 1   
    36   21   22 1   
    37   21   24 ar  
    38   22   23 1   
    39   23   39 1   
    40   23   40 1   
    41   23   41 1   
    42   24   25 ar  
    43   24   26 1   
    44   25   42 1   
    45   26   27 1   
    46   27   43 1   
    47   27   44 1   
    48   27   45 1   
@<TRIPOS>SUBSTRUCTURE
     1 HK4         1 TEMP              0 ****  ****    0 ROOT
