@<TRIPOS>MOLECULE
HK4
   45    48     1     0     0
SMALL
bcc


@<TRIPOS>ATOM
      1 O1         -8.2560   -0.0750    0.0590 oh        1 HK4     -0.491100
      2 C1         -6.9020    0.1440    0.0510 ca        1 HK4      0.126100
      3 C6         -5.9520   -0.9060    0.0550 ca        1 HK4      0.040100
      4 O2         -6.4990   -2.1790    0.0670 os        1 HK4     -0.347900
      5 C7         -5.5710   -3.2580    0.0720 c3        1 HK4      0.120700
      6 C5         -4.5890   -0.6230    0.0460 ca        1 HK4     -0.136000
      7 C4         -4.1600    0.7170    0.0340 ca        1 HK4      0.008000
      8 C3         -5.1040    1.7550    0.0310 ca        1 HK4     -0.098000
      9 C2         -6.4660    1.4750    0.0390 ca        1 HK4     -0.142000
     10 C8         -2.7850    1.0080    0.0260 cg        1 HK4     -0.065000
     11 C9         -1.6110    1.2560    0.0190 ch        1 HK4     -0.103000
     12 C10        -0.2420    1.5130    0.0110 cd        1 HK4      0.042700
     13 C12         0.8540    0.6550    0.0090 cc        1 HK4     -0.230600
     14 C13         1.3020   -0.7580    0.0120 c3        1 HK4      0.054200
     15 C14         2.8100   -0.6290    0.0040 ca        1 HK4     -0.083300
     16 C21         3.2250    0.7370   -0.0040 ca        1 HK4     -0.111500
     17 C11         2.0290    1.5560   -0.0010 cc        1 HK4      0.338800
     18 N2          1.6420    2.8500   -0.0050 nd        1 HK4     -0.456800
     19 N1          0.3080    2.8250    0.0030 na        1 HK4     -0.030600
     20 C20         4.5670    1.0810   -0.0130 ca        1 HK4     -0.140000
     21 C18         5.5180    0.0500   -0.0130 ca        1 HK4      0.095100
     22 O4          6.8850    0.2510   -0.0210 os        1 HK4     -0.304900
     23 C19         7.3130    1.6080   -0.0290 c3        1 HK4      0.109700
     24 C16         5.1100   -1.3090   -0.0050 ca        1 HK4      0.103100
     25 C15         3.7480   -1.6470    0.0030 ca        1 HK4     -0.165000
     26 O3          6.1400   -2.2280   -0.0070 os        1 HK4     -0.302900
     27 C17         5.7540   -3.5980    0.0000 c3        1 HK4      0.110700
     28 H2         -8.4090   -1.0330    0.0670 ho        1 HK4      0.440000
     29 H73        -4.9400   -3.2370   -0.8500 h1        1 HK4      0.048033
     30 H72        -4.9320   -3.2220    0.9870 h1        1 HK4      0.048033
     31 H71        -6.2290   -4.1640    0.0820 h1        1 HK4      0.048033
     32 H5         -3.8430   -1.4310    0.0490 ha        1 HK4      0.148000
     33 H4         -4.7650    2.8020    0.0210 ha        1 HK4      0.143000
     34 H3         -7.2120    2.2830    0.0360 ha        1 HK4      0.158000
     35 H6          0.9520   -1.3040    0.9250 hc        1 HK4      0.071700
     36 H7          0.9430   -1.3110   -0.8930 hc        1 HK4      0.071700
     37 H1         -0.2110    3.6710    0.0020 hn        1 HK4      0.324700
     38 H9          4.8710    2.1370   -0.0180 ha        1 HK4      0.154000
     39 H191        6.9530    2.1320   -0.9470 h1        1 HK4      0.044367
     40 H192        6.9630    2.1400    0.8890 h1        1 HK4      0.044367
     41 H193        8.4300    1.5240   -0.0340 h1        1 HK4      0.044367
     42 H8          3.4280   -2.6970    0.0090 ha        1 HK4      0.142000
     43 H172        5.1720   -3.8410    0.9220 h1        1 HK4      0.043367
     44 H171        5.1630   -3.8490   -0.9140 h1        1 HK4      0.043367
     45 H173        6.7340   -4.1410   -0.0030 h1        1 HK4      0.043367
@<TRIPOS>BOND
     1    1    2 1   
     2    1   28 1   
     3    2    3 ar  
     4    2    9 ar  
     5    3    4 1   
     6    3    6 ar  
     7    4    5 1   
     8    5   29 1   
     9    5   30 1   
    10    5   31 1   
    11    6    7 ar  
    12    6   32 1   
    13    7    8 ar  
    14    7   10 1   
    15    8    9 ar  
    16    8   33 1   
    17    9   34 1   
    18   10   11 3   
    19   11   12 1   
    20   12   13 2   
    21   12   19 1   
    22   13   14 1   
    23   13   17 1   
    24   14   15 1   
    25   14   35 1   
    26   14   36 1   
    27   15   16 ar  
    28   15   25 ar  
    29   16   17 1   
    30   16   20 ar  
    31   17   18 2   
    32   18   19 1   
    33   19   37 1   
    34   20   21 ar  
    35   20   38 1   
    36   21   22 1   
    37   21   24 ar  
    38   22   23 1   
    39   23   39 1   
    40   23   40 1   
    41   23   41 1   
    42   24   25 ar  
    43   24   26 1   
    44   25   42 1   
    45   26   27 1   
    46   27   43 1   
    47   27   44 1   
    48   27   45 1   
@<TRIPOS>SUBSTRUCTURE
     1 HK4         1 TEMP              0 ****  ****    0 ROOT
