@<TRIPOS>MOLECULE
HK4
   45    48     1     0     0
SMALL
bcc


@<TRIPOS>ATOM
      1 O1         -0.0190    0.2950    0.0560 oh        1 HK4     -0.490100
      2 C1          1.3470    0.1790    0.0180 ca        1 HK4      0.127100
      3 C6          2.1430    0.0590    1.1840 ca        1 HK4      0.039100
      4 O2          1.4290    0.0650    2.3720 os        1 HK4     -0.347900
      5 C7          2.2040    0.0230    3.5650 c3        1 HK4      0.120700
      6 C5          3.5260   -0.0580    1.0840 ca        1 HK4     -0.136000
      7 C4          4.1310   -0.0570   -0.1860 ca        1 HK4      0.008000
      8 C3          3.3410    0.0610   -1.3390 ca        1 HK4     -0.097000
      9 C2          1.9580    0.1780   -1.2420 ca        1 HK4     -0.142000
     10 C8          5.5280   -0.1740   -0.2920 cg        1 HK4     -0.065000
     11 C9          6.7200   -0.2730   -0.3830 ch        1 HK4     -0.104000
     12 C10         8.1050   -0.3990   -0.4590 cd        1 HK4      0.043700
     13 C12         9.0430   -0.8150    0.4810 cc        1 HK4     -0.234600
     14 C13         9.2530   -1.3030    1.8640 c3        1 HK4      0.051200
     15 C14        10.7550   -1.4890    1.9280 ca        1 HK4     -0.060300
     16 C21        11.3840   -1.1410    0.6910 ca        1 HK4     -0.132500
     17 C11        10.3420   -0.7210   -0.2240 cc        1 HK4      0.340800
     18 N2         10.1700   -0.2790   -1.4890 nd        1 HK4     -0.453800
     19 N1          8.8560   -0.0920   -1.6280 na        1 HK4     -0.030600
     20 C20        12.7550   -1.2410    0.5360 ca        1 HK4     -0.074000
     21 C18        13.5210   -1.6850    1.6290 ca        1 HK4      0.066100
     22 O4         14.8990   -1.6550    1.4880 os        1 HK4     -0.329900
     23 C19        15.5210   -2.9390    1.5410 c3        1 HK4      0.115700
     24 C16        12.9020   -2.0300    2.8500 ca        1 HK4      0.104100
     25 C15        11.5050   -1.9330    3.0000 ca        1 HK4     -0.179000
     26 O3         13.7470   -2.4800    3.8450 os        1 HK4     -0.321900
     27 C17        13.1600   -2.6870    5.1250 c3        1 HK4      0.112700
     28 H2         -0.2990    0.2890    0.9850 ho        1 HK4      0.440000
     29 H73         2.7780   -0.9330    3.6260 h1        1 HK4      0.047700
     30 H72         2.8930    0.9000    3.6190 h1        1 HK4      0.047700
     31 H71         1.4330    0.0740    4.3760 h1        1 HK4      0.047700
     32 H5          4.1520   -0.1500    1.9830 ha        1 HK4      0.147000
     33 H4          3.8170    0.0600   -2.3310 ha        1 HK4      0.144000
     34 H3          1.3310    0.2700   -2.1410 ha        1 HK4      0.158000
     35 H6          8.9110   -0.5570    2.6270 hc        1 HK4      0.072700
     36 H7          8.7220   -2.2710    2.0510 hc        1 HK4      0.072700
     37 H1          8.4840    0.2450   -2.4840 hn        1 HK4      0.325700
     38 H9         13.2550   -0.9710   -0.4050 ha        1 HK4      0.162000
     39 H191       15.3450   -3.4200    2.5330 h1        1 HK4      0.043033
     40 H192       15.1410   -3.5900    0.7180 h1        1 HK4      0.043033
     41 H193       16.6070   -2.7090    1.3980 h1        1 HK4      0.043033
     42 H8         11.0190   -2.1990    3.9480 ha        1 HK4      0.141000
     43 H172       12.6730   -1.7530    5.4960 h1        1 HK4      0.045033
     44 H171       12.4230   -3.5260    5.0870 h1        1 HK4      0.045033
     45 H173       14.0340   -2.9590    5.7690 h1        1 HK4      0.045033
@<TRIPOS>BOND
     1    1    2 1   
     2    1   28 1   
     3    2    3 ar  
     4    2    9 ar  
     5    3    4 1   
     6    3    6 ar  
     7    4    5 1   
     8    5   29 1   
     9    5   30 1   
    10    5   31 1   
    11    6    7 ar  
    12    6   32 1   
    13    7    8 ar  
    14    7   10 1   
    15    8    9 ar  
    16    8   33 1   
    17    9   34 1   
    18   10   11 3   
    19   11   12 1   
    20   12   13 2   
    21   12   19 1   
    22   13   14 1   
    23   13   17 1   
    24   14   15 1   
    25   14   35 1   
    26   14   36 1   
    27   15   16 ar  
    28   15   25 ar  
    29   16   17 1   
    30   16   20 ar  
    31   17   18 2   
    32   18   19 1   
    33   19   37 1   
    34   20   21 ar  
    35   20   38 1   
    36   21   22 1   
    37   21   24 ar  
    38   22   23 1   
    39   23   39 1   
    40   23   40 1   
    41   23   41 1   
    42   24   25 ar  
    43   24   26 1   
    44   25   42 1   
    45   26   27 1   
    46   27   43 1   
    47   27   44 1   
    48   27   45 1   
@<TRIPOS>SUBSTRUCTURE
     1 HK4         1 TEMP              0 ****  ****    0 ROOT
