@<TRIPOS>MOLECULE
HK4
   45    36     1     0     0
SMALL
bcc


@<TRIPOS>ATOM
      1 O1         -5.4760   -3.0640   -1.6260 oh        1 HK4     -0.244000
      2 C1         -4.0890   -2.8140   -1.5960 c1        1 HK4      0.063000
      3 C6         -3.2350   -3.5180   -2.4450 c1        1 HK4      0.030000
      4 O2         -3.7460   -4.5570   -3.2490 os        1 HK4     -0.211000
      5 C7         -4.3460   -4.1110   -4.4550 c3        1 HK4     -0.076000
      6 C5         -1.8630   -3.2960   -2.3900 c1        1 HK4     -0.087000
      7 C4         -1.3440   -2.3750   -1.4900 c1        1 HK4     -0.012500
      8 C3         -2.1960   -1.6760   -0.6450 c1        1 HK4     -0.076500
      9 C2         -3.5720   -1.8970   -0.7000 c1        1 HK4     -0.203000
     10 C8          0.1410   -2.0480   -1.5100 c1        1 HK4     -0.087000
     11 C9          1.3060   -1.7900   -1.5250 c1        1 HK4     -0.087000
     12 C10         2.7820   -1.4630   -1.5450 c1        1 HK4     -0.011500
     13 C12         2.5000   -0.2260   -1.0030 c1        1 HK4     -0.161000
     14 C13         1.5610    0.8960   -1.0540 c2        1 HK4     -0.043000
     15 C14         1.7660    1.7060    0.1430 c1        1 HK4     -0.053000
     16 C21         2.8490    1.1700    0.8410 c1        1 HK4     -0.012500
     17 C11         3.3110   -0.0540    0.1130 c1        1 HK4     -0.011500
     18 N2          4.0790   -1.1710    0.2510 n2        1 HK4     -0.097500
     19 N1          3.7520   -2.0490   -0.7790 n2        1 HK4     -0.097500
     20 C20         3.2100    1.6990    2.0880 c1        1 HK4     -0.076500
     21 C18         2.4880    2.7610    2.6310 c1        1 HK4      0.020000
     22 O4          3.1790    3.7650    3.3510 o         1 HK4     -0.209000
     23 C19         3.2190    3.5420    4.7540 c3        1 HK4     -0.075500
     24 C16         1.3990    3.3010    1.9290 c1        1 HK4      0.059000
     25 C15         1.0390    2.7760    0.6900 c2        1 HK4     -0.179000
     26 O3          0.6820    4.5000    2.1050 o         1 HK4     -0.209000
     27 C17        -0.6030    4.3210    2.6690 c3        1 HK4     -0.075500
     28 H2         -5.8070   -3.0110   -0.7960 ho        1 HK4      0.222000
     29 H73        -3.6480   -3.9460   -5.1260 h1        1 HK4      0.085667
     30 H72        -4.8420   -3.2780   -4.2860 h1        1 HK4      0.085667
     31 H71        -4.9640   -4.7980   -4.7870 h1        1 HK4      0.085667
     32 H5         -1.2620   -3.7910   -2.9870 ha        1 HK4      0.157000
     33 H4         -1.8310   -1.0290   -0.0130 ha        1 HK4      0.153000
     34 H3         -4.1770   -1.3990   -0.0990 ha        1 HK4      0.140000
     35 H6          0.6360    0.5560   -1.0720 ha        1 HK4      0.112500
     36 H7          1.7350    1.4460   -1.8680 ha        1 HK4      0.112500
     37 H1          4.1260   -2.8800   -0.9210 DU        1 HK4      0.276000
     38 H9          3.9790    1.3290    2.5740 ha        1 HK4      0.153000
     39 H191        2.3130    3.6300    5.1260 h1        1 HK4      0.083167
     40 H192        3.8140    4.2060    5.1760 h1        1 HK4      0.083167
     41 H193        3.5580    2.6420    4.9310 h1        1 HK4      0.083167
     42 H8          0.2730    3.1560    0.1970 ha        1 HK4      0.142000
     43 H172       -1.0720    5.1780    2.6870 h1        1 HK4      0.083167
     44 H171       -0.5130    3.9770    3.5850 h1        1 HK4      0.083167
     45 H173       -1.1110    3.6820    2.1270 h1        1 HK4      0.083167
@<TRIPOS>BOND
     1    1    2 1   
     2    1   28 1   
     3    2    9 1   
     4    3    4 1   
     5    3    6 1   
     6    4    5 1   
     7    5   29 1   
     8    5   30 1   
     9    5   31 1   
    10    6   32 1   
    11    7    8 1   
    12    8   33 1   
    13    9   34 1   
    14   10   11 1   
    15   12   13 1   
    16   12   19 1   
    17   13   17 1   
    18   14   15 1   
    19   14   35 1   
    20   14   36 1   
    21   15   25 1   
    22   16   20 1   
    23   17   18 1   
    24   18   19 1   
    25   20   38 1   
    26   21   24 1   
    27   22   23 1   
    28   23   39 1   
    29   23   40 1   
    30   23   41 1   
    31   24   25 1   
    32   25   42 1   
    33   26   27 1   
    34   27   43 1   
    35   27   44 1   
    36   27   45 1   
@<TRIPOS>SUBSTRUCTURE
     1 HK4         1 TEMP              0 ****  ****    0 ROOT
