@<TRIPOS>MOLECULE
HK5
   45    49     1     0     0
SMALL
bcc


@<TRIPOS>ATOM
      1 N5         -1.2220    0.3860   -2.3750 n1        1 HK5     -0.353800
      2 C22        -0.6650    0.3070   -1.3570 cg        1 HK5      0.228800
      3 C19         0.0150    0.2100   -0.1130 ca        1 HK5     -0.012000
      4 C18         1.3730    0.5480   -0.0270 ca        1 HK5     -0.086500
      5 C17         2.0390    0.4550    1.1920 ca        1 HK5     -0.124500
      6 C20        -0.6690   -0.2260    1.0310 ca        1 HK5     -0.086500
      7 C21         0.0000   -0.3170    2.2470 ca        1 HK5     -0.124500
      8 C16         1.3590    0.0250    2.3410 ca        1 HK5      0.009000
      9 C15         2.0220   -0.0870    3.6230 cc        1 HK5     -0.032300
     10 N4          3.2120    0.6080    3.9690 na        1 HK5     -0.028600
     11 N3          3.6430    0.3670    5.2080 nc        1 HK5     -0.448800
     12 C14         2.7650   -0.5190    5.7280 cd        1 HK5      0.326800
     13 C4          2.5130   -1.2770    6.9380 ca        1 HK5     -0.062500
     14 C3          3.1950   -1.3330    8.1380 ca        1 HK5     -0.168000
     15 C13         1.7020   -0.8390    4.7500 cd        1 HK5     -0.233600
     16 C12         0.7550   -1.8170    5.3380 c3        1 HK5      0.053200
     17 C5          1.3280   -2.0500    6.7190 ca        1 HK5     -0.118300
     18 C6          0.8490   -2.8760    7.7160 ca        1 HK5     -0.069000
     19 C7          1.5310   -2.9530    8.9400 ca        1 HK5     -0.144300
     20 C2          2.6880   -2.1790    9.1440 ca        1 HK5      0.143100
     21 O           3.2760   -2.3100   10.3890 os        1 HK5     -0.335900
     22 C1          4.5010   -1.6120   10.5880 c3        1 HK5      0.111700
     23 C8          1.0330   -3.8740   10.0170 c3        1 HK5      0.099600
     24 N1          0.1480   -3.2640   10.9660 na        1 HK5     -0.204900
     25 C11        -1.2510   -3.3850   11.0150 cc        1 HK5      0.378400
     26 N2         -1.7720   -2.6540   12.0220 nd        1 HK5     -0.668000
     27 C10        -0.6890   -2.0280   12.6390 cd        1 HK5      0.279200
     28 C9          0.5080   -2.3890   11.9950 cc        1 HK5     -0.240600
     29 H15         1.9140    0.8860   -0.9250 ha        1 HK5      0.149500
     30 H14         3.1090    0.7090    1.2340 ha        1 HK5      0.142500
     31 H16        -1.7350   -0.4940    0.9670 ha        1 HK5      0.149500
     32 H17        -0.5350   -0.6600    3.1470 ha        1 HK5      0.142500
     33 H1          3.6660    1.2900    3.4080 hn        1 HK5      0.323700
     34 H5          4.1000   -0.7300    8.2940 ha        1 HK5      0.155000
     35 H13        -0.2850   -1.4030    5.4030 hc        1 HK5      0.071700
     36 H12         0.7220   -2.7710    4.7500 hc        1 HK5      0.071700
     37 H6         -0.0620   -3.4740    7.5630 ha        1 HK5      0.139000
     38 H4          5.2700   -1.9430    9.8480 h1        1 HK5      0.049367
     39 H2          4.3380   -0.5090   10.5210 h1        1 HK5      0.049367
     40 H3          4.7990   -1.9050   11.6270 h1        1 HK5      0.049367
     41 H8          1.9240   -4.2810   10.5820 h1        1 HK5      0.070200
     42 H7          0.4870   -4.7390    9.5400 h1        1 HK5      0.070200
     43 H11        -1.8140   -4.0140   10.3190 h5        1 HK5      0.054100
     44 H10        -0.8250   -1.3690   13.4940 h4        1 HK5      0.039100
     45 H9          1.5460   -2.1060   12.1680 h4        1 HK5      0.184000
@<TRIPOS>BOND
     1    1    2 3   
     2    2    3 1   
     3    3    4 ar  
     4    3    6 ar  
     5    4    5 ar  
     6    4   29 1   
     7    5    8 ar  
     8    5   30 1   
     9    6    7 ar  
    10    6   31 1   
    11    7    8 ar  
    12    7   32 1   
    13    8    9 1   
    14    9   10 1   
    15    9   15 2   
    16   10   11 1   
    17   10   33 1   
    18   11   12 2   
    19   12   13 1   
    20   12   15 1   
    21   13   14 ar  
    22   13   17 ar  
    23   14   20 ar  
    24   14   34 1   
    25   15   16 1   
    26   16   17 1   
    27   16   35 1   
    28   16   36 1   
    29   17   18 ar  
    30   18   19 ar  
    31   18   37 1   
    32   19   20 ar  
    33   19   23 1   
    34   20   21 1   
    35   21   22 1   
    36   22   38 1   
    37   22   39 1   
    38   22   40 1   
    39   23   24 1   
    40   23   41 1   
    41   23   42 1   
    42   24   25 1   
    43   24   28 1   
    44   25   26 2   
    45   25   43 1   
    46   26   27 1   
    47   27   28 2   
    48   27   44 1   
    49   28   45 1   
@<TRIPOS>SUBSTRUCTURE
     1 HK5         1 TEMP              0 ****  ****    0 ROOT
