@<TRIPOS>MOLECULE
HK5
   45    49     1     0     0
SMALL
bcc


@<TRIPOS>ATOM
      1 N5         -1.1880    0.2540   -2.3780 n1        1 HK5     -0.353800
      2 C22        -0.6260    0.1740   -1.3620 cg        1 HK5      0.228800
      3 C19         0.0600    0.0760   -0.1220 ca        1 HK5     -0.012000
      4 C18         1.4320    0.3550   -0.0540 ca        1 HK5     -0.086500
      5 C17         2.1030    0.2610    1.1620 ca        1 HK5     -0.124500
      6 C20        -0.6340   -0.3020    1.0370 ca        1 HK5     -0.086500
      7 C21         0.0410   -0.3950    2.2500 ca        1 HK5     -0.124500
      8 C16         1.4140   -0.1120    2.3260 ca        1 HK5      0.009000
      9 C15         2.0820   -0.2240    3.6050 cc        1 HK5     -0.032300
     10 N4          3.3030    0.4270    3.9270 na        1 HK5     -0.028600
     11 N3          3.7330    0.1950    5.1680 nc        1 HK5     -0.448800
     12 C14         2.8230   -0.6400    5.7140 cd        1 HK5      0.326800
     13 C4          2.5490   -1.3600    6.9420 ca        1 HK5     -0.062500
     14 C3          3.2380   -1.4190    8.1380 ca        1 HK5     -0.168000
     15 C13         1.7390   -0.9370    4.7510 cd        1 HK5     -0.233600
     16 C12         0.7560   -1.8610    5.3680 c3        1 HK5      0.053200
     17 C5          1.3310   -2.0880    6.7490 ca        1 HK5     -0.118300
     18 C6          0.8250   -2.8700    7.7680 ca        1 HK5     -0.069000
     19 C7          1.5140   -2.9500    8.9890 ca        1 HK5     -0.144300
     20 C2          2.7040   -2.2200    9.1670 ca        1 HK5      0.143100
     21 O           3.2960   -2.3500   10.4100 os        1 HK5     -0.335900
     22 C1          4.5510   -1.7000   10.5840 c3        1 HK5      0.111700
     23 C8          0.9860   -3.8250   10.0890 c3        1 HK5      0.099600
     24 N1          0.1350   -3.1580   11.0300 na        1 HK5     -0.204900
     25 C11        -1.2670   -3.2200   11.0930 cc        1 HK5      0.378400
     26 N2         -1.7490   -2.4460   12.0870 nd        1 HK5     -0.668000
     27 C10        -0.6350   -1.8520   12.6810 cd        1 HK5      0.279200
     28 C9          0.5400   -2.2760   12.0370 cc        1 HK5     -0.240600
     29 H15         1.9800    0.6470   -0.9630 ha        1 HK5      0.149500
     30 H14         3.1830    0.4680    1.1900 ha        1 HK5      0.143000
     31 H16        -1.7110   -0.5240    0.9870 ha        1 HK5      0.149500
     32 H17        -0.5020   -0.6920    3.1620 ha        1 HK5      0.143000
     33 H1          3.7810    1.0770    3.3480 hn        1 HK5      0.323700
     34 H5          4.1690   -0.8520    8.2750 ha        1 HK5      0.155000
     35 H13        -0.2640   -1.4020    5.4310 hc        1 HK5      0.071700
     36 H12         0.6790   -2.8240    4.8010 hc        1 HK5      0.071700
     37 H6         -0.1110   -3.4320    7.6340 ha        1 HK5      0.139000
     38 H4          5.2990   -2.0790    9.8470 h1        1 HK5      0.049367
     39 H2          4.4340   -0.5920   10.4940 h1        1 HK5      0.049367
     40 H3          4.8440   -1.9820   11.6270 h1        1 HK5      0.049367
     41 H8          1.8640   -4.2570   10.6560 h1        1 HK5      0.070200
     42 H7          0.4000   -4.6770    9.6340 h1        1 HK5      0.070200
     43 H11        -1.8620   -3.8400   10.4160 h5        1 HK5      0.054100
     44 H10        -0.7370   -1.1690   13.5230 h4        1 HK5      0.039100
     45 H9          1.5900   -2.0330   12.1950 h4        1 HK5      0.184000
@<TRIPOS>BOND
     1    1    2 3   
     2    2    3 1   
     3    3    4 ar  
     4    3    6 ar  
     5    4    5 ar  
     6    4   29 1   
     7    5    8 ar  
     8    5   30 1   
     9    6    7 ar  
    10    6   31 1   
    11    7    8 ar  
    12    7   32 1   
    13    8    9 1   
    14    9   10 1   
    15    9   15 2   
    16   10   11 1   
    17   10   33 1   
    18   11   12 2   
    19   12   13 1   
    20   12   15 1   
    21   13   14 ar  
    22   13   17 ar  
    23   14   20 ar  
    24   14   34 1   
    25   15   16 1   
    26   16   17 1   
    27   16   35 1   
    28   16   36 1   
    29   17   18 ar  
    30   18   19 ar  
    31   18   37 1   
    32   19   20 ar  
    33   19   23 1   
    34   20   21 1   
    35   21   22 1   
    36   22   38 1   
    37   22   39 1   
    38   22   40 1   
    39   23   24 1   
    40   23   41 1   
    41   23   42 1   
    42   24   25 1   
    43   24   28 1   
    44   25   26 2   
    45   25   43 1   
    46   26   27 1   
    47   27   28 2   
    48   27   44 1   
    49   28   45 1   
@<TRIPOS>SUBSTRUCTURE
     1 HK5         1 TEMP              0 ****  ****    0 ROOT
