@<TRIPOS>MOLECULE
HK5
   45    34     1     0     0
SMALL
bcc


@<TRIPOS>ATOM
      1 N5         -3.3060    2.6660   -7.9060 n1        1 HK5     -0.028000
      2 C22        -2.6320    2.6980   -6.9860 c1        1 HK5     -0.101000
      3 C19        -1.7380    2.7410   -5.7630 c1        1 HK5      0.033000
      4 C18        -1.8870    3.7620   -4.8340 c1        1 HK5     -0.109000
      5 C17        -1.1770    3.7270   -3.6460 c1        1 HK5     -0.109000
      6 C20        -0.8770    1.6860   -5.5010 c1        1 HK5     -0.124000
      7 C21        -0.1650    1.6510   -4.3110 c1        1 HK5     -0.124000
      8 C16        -0.3140    2.6710   -3.3840 c1        1 HK5      0.033000
      9 C15         0.3470    2.5570   -2.0260 c1        1 HK5     -0.058500
     10 N4          1.6940    2.7110   -2.1490 n2        1 HK5     -0.094500
     11 N3          2.3070    1.9150   -1.1960 n2        1 HK5     -0.094500
     12 C14         1.3340    1.2760   -0.4920 c1        1 HK5     -0.058500
     13 C4          1.0820    0.3780    0.6900 c1        1 HK5      0.045000
     14 C3          1.9540   -0.3230    1.5370 c1        1 HK5     -0.124000
     15 C13         0.1120    1.6690   -1.0010 c1        1 HK5     -0.161000
     16 C12        -0.9370    1.0860   -0.1580 c2        1 HK5     -0.040000
     17 C5         -0.2920    0.2590    0.8550 c1        1 HK5     -0.111000
     18 C6         -0.8080   -0.5630    1.8700 c1        1 HK5     -0.069000
     19 C7          0.0600   -1.2600    2.7120 c1        1 HK5     -0.137000
     20 C2          1.4410   -1.1400    2.5450 c1        1 HK5      0.033000
     21 O           2.6070   -1.3730    3.3270 o         1 HK5     -0.219000
     22 C1          2.9830   -0.2700    4.1470 c3        1 HK5     -0.078000
     23 C8         -0.7690   -2.1500    3.6510 c3        1 HK5      0.033000
     24 N1         -0.6250   -3.5360    3.2570 n3        1 HK5     -0.160000
     25 C11        -1.2080   -4.1200    2.1800 c1        1 HK5     -0.110000
     26 N2         -0.9650   -5.4560    2.2430 n2        1 HK5     -0.142000
     27 C10        -0.2440   -5.6930    3.3420 c1        1 HK5     -0.186000
     28 C9         -0.0310   -4.4960    3.9760 c1        1 HK5     -0.151000
     29 H15        -2.4930    4.5030   -5.0170 ha        1 HK5      0.143000
     30 H14        -1.2820    4.4440   -2.9940 ha        1 HK5      0.143000
     31 H16        -0.7720    0.9690   -6.1520 ha        1 HK5      0.151000
     32 H17         0.4400    0.9100   -4.1270 ha        1 HK5      0.151000
     33 H1          2.1220    3.2250   -2.7750 DU        1 HK5      0.206250
     34 H5          2.9220   -0.2390    1.4200 ha        1 HK5      0.151000
     35 H13        -1.5340    0.5340   -0.7050 ha        1 HK5      0.111000
     36 H12        -1.4500    1.8000    0.2740 ha        1 HK5      0.111000
     37 H6         -1.7760   -0.6470    1.9870 ha        1 HK5      0.139000
     38 H4          3.8120    0.1300    3.7980 h1        1 HK5      0.088667
     39 H2          2.2670    0.4020    4.1400 h1        1 HK5      0.088667
     40 H3          3.1310   -0.5820    5.0680 h1        1 HK5      0.088667
     41 H8         -1.7120   -1.8910    3.5970 h1        1 HK5      0.109500
     42 H7         -0.4530   -2.0370    4.5710 h1        1 HK5      0.109500
     43 H11        -1.7130   -3.6620    1.4830 DU        1 HK5      0.206250
     44 H10         0.0770   -6.5700    3.6430 DU        1 HK5      0.206250
     45 H9          0.4680   -4.3670    4.8070 DU        1 HK5      0.206250
@<TRIPOS>BOND
     1    1    2 1   
     2    3    6 1   
     3    4    5 1   
     4    4   29 1   
     5    5   30 1   
     6    6   31 1   
     7    7    8 1   
     8    7   32 1   
     9    9   10 1   
    10    9   15 1   
    11   10   11 1   
    12   11   12 1   
    13   12   15 1   
    14   13   17 1   
    15   14   20 1   
    16   14   34 1   
    17   16   17 1   
    18   16   35 1   
    19   16   36 1   
    20   18   19 1   
    21   18   37 1   
    22   19   23 1   
    23   21   22 1   
    24   22   38 1   
    25   22   39 1   
    26   22   40 1   
    27   23   24 1   
    28   23   41 1   
    29   23   42 1   
    30   24   25 1   
    31   24   28 1   
    32   25   26 1   
    33   26   27 1   
    34   27   28 1   
@<TRIPOS>SUBSTRUCTURE
     1 HK5         1 TEMP              0 ****  ****    0 ROOT
