@<TRIPOS>MOLECULE
HK5
   45    49     1     0     0
SMALL
bcc


@<TRIPOS>ATOM
      1 N5          8.7570    2.1280   -0.0650 n1        1 HK5     -0.353800
      2 C22         7.7270    1.5890   -0.0160 cg        1 HK5      0.228800
      3 C19         6.4690    0.9310    0.0430 ca        1 HK5     -0.012000
      4 C18         6.4070   -0.4690    0.0120 ca        1 HK5     -0.086500
      5 C17         5.1750   -1.1140    0.0710 ca        1 HK5     -0.124500
      6 C20         5.2870    1.6800    0.1300 ca        1 HK5     -0.086500
      7 C21         4.0580    1.0320    0.1890 ca        1 HK5     -0.124500
      8 C16         3.9890   -0.3700    0.1640 ca        1 HK5      0.009000
      9 C15         2.6910   -1.0080    0.2240 cc        1 HK5     -0.032300
     10 N4          2.4810   -2.3510    0.6370 na        1 HK5     -0.028600
     11 N3          1.2020   -2.7300    0.6290 nc        1 HK5     -0.448800
     12 C14         0.5120   -1.6560    0.1860 cd        1 HK5      0.326800
     13 C4         -0.8410   -1.2360   -0.1240 ca        1 HK5     -0.062500
     14 C3         -2.0460   -1.9070   -0.0400 ca        1 HK5     -0.168000
     15 C13         1.4230   -0.5220   -0.0850 cd        1 HK5     -0.233600
     16 C12         0.6460    0.6410   -0.5770 c3        1 HK5      0.053200
     17 C5         -0.7740    0.1200   -0.5780 ca        1 HK5     -0.118300
     18 C6         -1.9280    0.7820   -0.9460 ca        1 HK5     -0.069000
     19 C7         -3.1620    0.1170   -0.8750 ca        1 HK5     -0.144300
     20 C2         -3.2130   -1.2130   -0.4170 ca        1 HK5      0.143100
     21 O          -4.4760   -1.7720   -0.3650 os        1 HK5     -0.335900
     22 C1         -4.5450   -3.1460    0.0030 c3        1 HK5      0.111700
     23 C8         -4.4170    0.8220   -1.3050 c3        1 HK5      0.099600
     24 N1         -5.1250    1.4820   -0.2480 na        1 HK5     -0.204900
     25 C11        -5.1340    2.8600    0.0300 cc        1 HK5      0.378400
     26 N2         -5.8850    3.1360    1.1160 nd        1 HK5     -0.668000
     27 C10        -6.3690    1.9080    1.5680 cd        1 HK5      0.279200
     28 C9         -5.9040    0.8710    0.7390 cc        1 HK5     -0.240600
     29 H15         7.3340   -1.0590   -0.0620 ha        1 HK5      0.149500
     30 H14         5.1480   -2.2130    0.0290 ha        1 HK5      0.142500
     31 H16         5.3320    2.7800    0.1530 ha        1 HK5      0.149500
     32 H17         3.1270    1.6190    0.2580 ha        1 HK5      0.142500
     33 H1          3.1780   -2.9610    0.9960 hn        1 HK5      0.323700
     34 H5         -2.0830   -2.9460    0.3150 ha        1 HK5      0.155000
     35 H13         0.7450    1.5260    0.1040 hc        1 HK5      0.071700
     36 H12         0.9640    0.9480   -1.6070 hc        1 HK5      0.071700
     37 H6         -1.8920    1.8250   -1.2940 ha        1 HK5      0.139000
     38 H4         -3.9590   -3.7770   -0.7080 h1        1 HK5      0.049367
     39 H2         -4.1820   -3.2900    1.0500 h1        1 HK5      0.049367
     40 H3         -5.6380   -3.3780   -0.0700 h1        1 HK5      0.049367
     41 H8         -4.1570    1.5950   -2.0860 h1        1 HK5      0.070200
     42 H7         -5.1130    0.0620   -1.7710 h1        1 HK5      0.070200
     43 H11        -4.6020    3.5900   -0.5850 h5        1 HK5      0.054100
     44 H10        -7.0130    1.8380    2.4430 h4        1 HK5      0.039100
     45 H9         -6.0490   -0.2080    0.7670 h4        1 HK5      0.184000
@<TRIPOS>BOND
     1    1    2 3   
     2    2    3 1   
     3    3    4 ar  
     4    3    6 ar  
     5    4    5 ar  
     6    4   29 1   
     7    5    8 ar  
     8    5   30 1   
     9    6    7 ar  
    10    6   31 1   
    11    7    8 ar  
    12    7   32 1   
    13    8    9 1   
    14    9   10 1   
    15    9   15 2   
    16   10   11 1   
    17   10   33 1   
    18   11   12 2   
    19   12   13 1   
    20   12   15 1   
    21   13   14 ar  
    22   13   17 ar  
    23   14   20 ar  
    24   14   34 1   
    25   15   16 1   
    26   16   17 1   
    27   16   35 1   
    28   16   36 1   
    29   17   18 ar  
    30   18   19 ar  
    31   18   37 1   
    32   19   20 ar  
    33   19   23 1   
    34   20   21 1   
    35   21   22 1   
    36   22   38 1   
    37   22   39 1   
    38   22   40 1   
    39   23   24 1   
    40   23   41 1   
    41   23   42 1   
    42   24   25 1   
    43   24   28 1   
    44   25   26 2   
    45   25   43 1   
    46   26   27 1   
    47   27   28 2   
    48   27   44 1   
    49   28   45 1   
@<TRIPOS>SUBSTRUCTURE
     1 HK5         1 TEMP              0 ****  ****    0 ROOT
