@<TRIPOS>MOLECULE
HK5
   45    49     1     0     0
SMALL
bcc


@<TRIPOS>ATOM
      1 N5         -1.1700    0.1880   -2.3870 n1        1 HK5     -0.353800
      2 C22        -0.6140    0.1320   -1.3670 cg        1 HK5      0.228800
      3 C19         0.0650    0.0630   -0.1200 ca        1 HK5     -0.012000
      4 C18         1.4180    0.4170   -0.0380 ca        1 HK5     -0.086500
      5 C17         2.0830    0.3510    1.1840 ca        1 HK5     -0.124500
      6 C20        -0.6170   -0.3620    1.0290 ca        1 HK5     -0.086500
      7 C21         0.0500   -0.4270    2.2470 ca        1 HK5     -0.124500
      8 C16         1.4050   -0.0680    2.3380 ca        1 HK5      0.009000
      9 C15         2.0670   -0.1520    3.6230 cc        1 HK5     -0.032300
     10 N4          3.2480    0.5620    3.9600 na        1 HK5     -0.028600
     11 N3          3.6790    0.3450    5.2040 nc        1 HK5     -0.448800
     12 C14         2.8100   -0.5420    5.7360 cd        1 HK5      0.326800
     13 C4          2.5640   -1.2830    6.9580 ca        1 HK5     -0.062500
     14 C3          3.2450   -1.3120    8.1600 ca        1 HK5     -0.168000
     15 C13         1.7530   -0.8900    4.7620 cd        1 HK5     -0.233600
     16 C12         0.8160   -1.8690    5.3640 c3        1 HK5      0.053200
     17 C5          1.3890   -2.0740    6.7490 ca        1 HK5     -0.118300
     18 C6          0.9170   -2.8880    7.7590 ca        1 HK5     -0.069000
     19 C7          1.5980   -2.9380    8.9850 ca        1 HK5     -0.144300
     20 C2          2.7460   -2.1480    9.1790 ca        1 HK5      0.143100
     21 O           3.3320   -2.2530   10.4260 os        1 HK5     -0.335900
     22 C1          4.5490   -1.5370   10.6160 c3        1 HK5      0.111700
     23 C8          1.1080   -3.8480   10.0750 c3        1 HK5      0.099600
     24 N1          0.2140   -3.2320   11.0120 na        1 HK5     -0.204900
     25 C11        -1.1840   -3.3690   11.0610 cc        1 HK5      0.378400
     26 N2         -1.7150   -2.6280   12.0550 nd        1 HK5     -0.668000
     27 C10        -0.6400   -1.9800   12.6640 cd        1 HK5      0.279200
     28 C9          0.5630   -2.3370   12.0280 cc        1 HK5     -0.240600
     29 H15         1.9570    0.7460   -0.9400 ha        1 HK5      0.149500
     30 H14         3.1490    0.6180    1.2240 ha        1 HK5      0.142500
     31 H16        -1.6800   -0.6430    0.9670 ha        1 HK5      0.149500
     32 H17        -0.4830   -0.7610    3.1520 ha        1 HK5      0.142500
     33 H1          3.6950    1.2400    3.3890 hn        1 HK5      0.323700
     34 H5          4.1430   -0.6970    8.3080 ha        1 HK5      0.155000
     35 H13         0.7950   -2.8320    4.7910 hc        1 HK5      0.071700
     36 H12        -0.2290   -1.4660    5.4200 hc        1 HK5      0.071700
     37 H6          0.0130   -3.4990    7.6130 ha        1 HK5      0.139000
     38 H4          4.8480   -1.8100   11.6600 h1        1 HK5      0.049367
     39 H2          5.3230   -1.8710    9.8830 h1        1 HK5      0.049367
     40 H3          4.3740   -0.4370   10.5310 h1        1 HK5      0.049367
     41 H8          0.5730   -4.7270    9.6110 h1        1 HK5      0.070200
     42 H7          2.0020   -4.2360   10.6480 h1        1 HK5      0.070200
     43 H11        -1.7380   -4.0150   10.3750 h5        1 HK5      0.054100
     44 H10        -0.7860   -1.3090   13.5080 h4        1 HK5      0.039100
     45 H9          1.5960   -2.0400   12.1980 h4        1 HK5      0.184000
@<TRIPOS>BOND
     1    1    2 3   
     2    2    3 1   
     3    3    4 ar  
     4    3    6 ar  
     5    4    5 ar  
     6    4   29 1   
     7    5    8 ar  
     8    5   30 1   
     9    6    7 ar  
    10    6   31 1   
    11    7    8 ar  
    12    7   32 1   
    13    8    9 1   
    14    9   10 1   
    15    9   15 2   
    16   10   11 1   
    17   10   33 1   
    18   11   12 2   
    19   12   13 1   
    20   12   15 1   
    21   13   14 ar  
    22   13   17 ar  
    23   14   20 ar  
    24   14   34 1   
    25   15   16 1   
    26   16   17 1   
    27   16   35 1   
    28   16   36 1   
    29   17   18 ar  
    30   18   19 ar  
    31   18   37 1   
    32   19   20 ar  
    33   19   23 1   
    34   20   21 1   
    35   21   22 1   
    36   22   38 1   
    37   22   39 1   
    38   22   40 1   
    39   23   24 1   
    40   23   41 1   
    41   23   42 1   
    42   24   25 1   
    43   24   28 1   
    44   25   26 2   
    45   25   43 1   
    46   26   27 1   
    47   27   28 2   
    48   27   44 1   
    49   28   45 1   
@<TRIPOS>SUBSTRUCTURE
     1 HK5         1 TEMP              0 ****  ****    0 ROOT
