@<TRIPOS>MOLECULE
HK6
   26    21     1     0     0
SMALL
bcc


@<TRIPOS>ATOM
      1 O          -3.2210   -0.6650   -0.6180 o         1 HK6     -0.358000
      2 C11        -2.0040   -0.6060   -0.6280 c1        1 HK6      0.368000
      3 C10        -1.1210   -0.6670    0.6270 c2        1 HK6     -0.129000
      4 C9         -1.3480   -1.6360    1.6210 c2        1 HK6     -0.056000
      5 C8         -1.1200   -1.3270    2.9600 c1        1 HK6     -0.159000
      6 C7         -0.6680   -0.0570    3.3150 c1        1 HK6     -0.134000
      7 C6         -0.4440    0.9020    2.3320 c1        1 HK6     -0.134000
      8 C5         -0.6730    0.5890    0.9780 c1        1 HK6      0.073000
      9 N1         -0.6280    1.4600   -0.1680 n2        1 HK6     -0.271000
     10 N2         -1.2060   -0.5190   -1.8140 n2        1 HK6     -0.271000
     11 C12         0.1900   -0.2790   -1.4880 c1        1 HK6      0.044500
     12 C13         1.2000   -0.9660   -2.1900 c1        1 HK6     -0.157000
     13 C1          2.4010   -0.3230   -2.4920 c1        1 HK6     -0.049000
     14 CL          3.3780   -0.9190   -1.1780 cl        1 HK6     -0.007000
     15 C4          0.3890    1.0370   -1.0980 c1        1 HK6      0.044500
     16 C3          1.6010    1.6850   -1.4040 c1        1 HK6     -0.139000
     17 C2          2.6020    1.0030   -2.1000 c2        1 HK6     -0.128000
     18 H7         -1.6650   -2.5300    1.3710 ha        1 HK6      0.159000
     19 H6         -1.2790   -2.0020    3.6530 ha        1 HK6      0.142000
     20 H5         -0.5090    0.1610    4.2590 ha        1 HK6      0.136500
     21 H4         -0.1260    1.7940    2.5820 ha        1 HK6      0.136500
     22 H3         -0.4540    2.3200    0.1060 hn        1 HK6      0.220000
     23 H8         -1.5260   -0.6510   -2.6660 hn        1 HK6      0.220000
     24 H9          1.0360   -1.8750   -2.5190 ha        1 HK6      0.155000
     25 H2          1.7430    2.6160   -1.1290 ha        1 HK6      0.139000
     26 H1          3.4510    1.4570   -2.3140 ha        1 HK6      0.152000
@<TRIPOS>BOND
     1    1    2 1   
     2    2    3 1   
     3    3    4 1   
     4    3    8 1   
     5    4    5 1   
     6    4   18 1   
     7    5   19 1   
     8    6    7 1   
     9    6   20 1   
    10    7   21 1   
    11    9   15 1   
    12    9   22 1   
    13   10   11 1   
    14   10   23 1   
    15   11   15 1   
    16   12   13 1   
    17   12   24 1   
    18   13   17 1   
    19   16   17 1   
    20   16   25 1   
    21   17   26 1   
@<TRIPOS>SUBSTRUCTURE
     1 HK6         1 TEMP              0 ****  ****    0 ROOT
