@<TRIPOS>MOLECULE
HK6
   26    28     1     0     0
SMALL
bcc


@<TRIPOS>ATOM
      1 O          -0.0910   -0.1780   -0.0080 o         1 HK6     -0.624500
      2 C11         1.1510   -0.0610    0.0300 c         1 HK6      0.710100
      3 C10         1.8820   -0.0000    1.3200 ca        1 HK6     -0.164600
      4 C9          1.3260   -0.7120    2.3920 ca        1 HK6     -0.070000
      5 C8          1.9310   -0.6840    3.6440 ca        1 HK6     -0.140000
      6 C7          3.0900    0.0660    3.8380 ca        1 HK6     -0.104000
      7 C6          3.6510    0.7850    2.7870 ca        1 HK6     -0.113000
      8 C5          3.0540    0.7620    1.5110 ca        1 HK6      0.116600
      9 N1          3.6640    1.5260    0.4650 na        1 HK6     -0.586000
     10 N2          1.8040    0.0030   -1.1980 n         1 HK6     -0.474100
     11 C12         3.1860   -0.0340   -1.4310 ca        1 HK6      0.049600
     12 C13         3.6810   -0.7820   -2.5220 ca        1 HK6     -0.164000
     13 C1          5.0460   -0.7860   -2.8010 ca        1 HK6      0.043400
     14 CL          5.6220   -1.6890   -4.1210 cl        1 HK6     -0.085400
     15 C4          4.0970    0.7180   -0.6330 ca        1 HK6      0.048600
     16 C3          5.4690    0.6750   -0.9340 ca        1 HK6     -0.069000
     17 C2          5.9440   -0.0650   -2.0110 ca        1 HK6     -0.147000
     18 H7          0.3970   -1.2840    2.2300 ha        1 HK6      0.158000
     19 H6          1.4900   -1.2490    4.4790 ha        1 HK6      0.142000
     20 H5          3.5680    0.0920    4.8300 ha        1 HK6      0.139000
     21 H4          4.5650    1.3770    2.9530 ha        1 HK6      0.152000
     22 H3          3.0250    2.2340    0.1390 hn        1 HK6      0.390800
     23 H8          1.2260   -0.1730   -1.9960 hn        1 HK6      0.329500
     24 H9          2.9920   -1.3620   -3.1560 ha        1 HK6      0.153000
     25 H2          6.1800    1.2460   -0.3140 ha        1 HK6      0.156000
     26 H1          7.0210   -0.0790   -2.2370 ha        1 HK6      0.153000
@<TRIPOS>BOND
     1    1    2 2   
     2    2    3 1   
     3    2   10 1   
     4    3    4 ar  
     5    3    8 ar  
     6    4    5 ar  
     7    4   18 1   
     8    5    6 ar  
     9    5   19 1   
    10    6    7 ar  
    11    6   20 1   
    12    7    8 ar  
    13    7   21 1   
    14    8    9 1   
    15    9   15 1   
    16    9   22 1   
    17   10   11 1   
    18   10   23 1   
    19   11   12 ar  
    20   11   15 ar  
    21   12   13 ar  
    22   12   24 1   
    23   13   14 1   
    24   13   17 ar  
    25   15   16 ar  
    26   16   17 ar  
    27   16   25 1   
    28   17   26 1   
@<TRIPOS>SUBSTRUCTURE
     1 HK6         1 TEMP              0 ****  ****    0 ROOT
