@<TRIPOS>MOLECULE
HK6
   26    28     1     0     0
SMALL
bcc


@<TRIPOS>ATOM
      1 O           2.0010   -2.8380    0.2830 o         1 HK6     -0.633500
      2 C11         1.4390   -1.7250    0.2030 c         1 HK6      0.731100
      3 C10         2.2080   -0.5040   -0.1400 ca        1 HK6     -0.149600
      4 C9          3.3220   -0.6800   -0.9720 ca        1 HK6     -0.056000
      5 C8          4.1530    0.3900   -1.2850 ca        1 HK6     -0.159000
      6 C7          3.8850    1.6510   -0.7520 ca        1 HK6     -0.081000
      7 C6          2.7840    1.8460    0.0730 ca        1 HK6     -0.187000
      8 C5          1.9190    0.7710    0.3880 ca        1 HK6      0.154600
      9 N1          0.8400    0.9620    1.2860 na        1 HK6     -0.588000
     10 N2          0.0670   -1.7150    0.4040 n         1 HK6     -0.468100
     11 C12        -0.8220   -0.6360    0.3820 ca        1 HK6      0.082600
     12 C13        -2.1540   -0.8810   -0.0210 ca        1 HK6     -0.157000
     13 C1         -3.1010    0.1390   -0.0050 ca        1 HK6      0.029400
     14 CL         -4.6960   -0.1930   -0.4880 cl        1 HK6     -0.085400
     15 C4         -0.4630    0.6810    0.7950 ca        1 HK6      0.080600
     16 C3         -1.4450    1.6920    0.7830 ca        1 HK6     -0.139000
     17 C2         -2.7530    1.4300    0.3990 ca        1 HK6     -0.128000
     18 H7          3.5390   -1.6900   -1.3590 ha        1 HK6      0.159000
     19 H6          5.0210    0.2390   -1.9420 ha        1 HK6      0.142000
     20 H5          4.5460    2.4990   -0.9860 ha        1 HK6      0.138000
     21 H4          2.5910    2.8490    0.4850 ha        1 HK6      0.135000
     22 H3          0.8790    1.8640    1.7270 hn        1 HK6      0.399800
     23 H8         -0.3480   -2.6120    0.5610 hn        1 HK6      0.331500
     24 H9         -2.4530   -1.8920   -0.3450 ha        1 HK6      0.155000
     25 H2         -1.1830    2.7150    1.0990 ha        1 HK6      0.139000
     26 H1         -3.5040    2.2340    0.4120 ha        1 HK6      0.152000
@<TRIPOS>BOND
     1    1    2 2   
     2    2    3 1   
     3    2   10 1   
     4    3    4 ar  
     5    3    8 ar  
     6    4    5 ar  
     7    4   18 1   
     8    5    6 ar  
     9    5   19 1   
    10    6    7 ar  
    11    6   20 1   
    12    7    8 ar  
    13    7   21 1   
    14    8    9 1   
    15    9   15 1   
    16    9   22 1   
    17   10   11 1   
    18   10   23 1   
    19   11   12 ar  
    20   11   15 ar  
    21   12   13 ar  
    22   12   24 1   
    23   13   14 1   
    24   13   17 ar  
    25   15   16 ar  
    26   16   17 ar  
    27   16   25 1   
    28   17   26 1   
@<TRIPOS>SUBSTRUCTURE
     1 HK6         1 TEMP              0 ****  ****    0 ROOT
