@<TRIPOS>MOLECULE
HK7
   41    44     1     0     0
SMALL
bcc


@<TRIPOS>ATOM
      1 O2          2.2690    0.8780    1.0070 o         1 HK7     -0.429100
      2 C16         1.6560    0.6460   -0.0280 c         1 HK7      0.575700
      3 N3          0.1530    0.7400    0.1350 n4        1 HK7     -0.759400
      4 C15         2.1890    0.3270   -1.3490 ca        1 HK7     -0.197600
      5 C14         3.5820    0.5090   -1.4840 ca        1 HK7     -0.041000
      6 C13         4.2140    0.2430   -2.6940 ca        1 HK7     -0.126000
      7 C12         3.4690   -0.2100   -3.7820 ca        1 HK7     -0.046000
      8 C11         2.0920   -0.4000   -3.6560 ca        1 HK7     -0.115000
      9 C10         1.4370   -0.1400   -2.4470 cp        1 HK7      0.012000
     10 C8         -0.0090   -0.3880   -2.3890 cp        1 HK7     -0.108000
     11 C7         -0.4920   -1.6110   -1.8990 ca        1 HK7     -0.163000
     12 C6         -1.8620   -1.8550   -1.8810 ca        1 HK7     -0.068000
     13 C5         -2.7610   -0.8900   -2.3510 ca        1 HK7     -0.143600
     14 C1         -4.2140   -1.2040   -2.2280 c         1 HK7      0.696100
     15 O1         -4.6280   -1.8340   -1.2330 o         1 HK7     -0.614500
     16 C9         -0.8980    0.5750   -2.8770 ca        1 HK7     -0.137000
     17 C4         -2.2880    0.3330   -2.8690 ca        1 HK7      0.129600
     18 N2         -3.1510    1.3430   -3.3990 na        1 HK7     -0.584000
     19 C3         -3.9070    0.8770   -4.5250 ca        1 HK7      0.030600
     20 C17        -3.7080    1.4960   -5.7710 ca        1 HK7     -0.073000
     21 C18        -4.4430    1.0990   -6.8830 ca        1 HK7     -0.135000
     22 C19        -5.3810    0.0730   -6.7730 ca        1 HK7     -0.089000
     23 C20        -5.5900   -0.5650   -5.5560 ca        1 HK7     -0.149000
     24 C2         -4.8570   -0.1800   -4.4130 ca        1 HK7      0.027600
     25 N1         -5.1300   -0.7980   -3.1790 n         1 HK7     -0.459100
     26 H16        -0.2410    1.3340   -0.6040 hn        1 HK7      0.470800
     27 H17        -0.0760    1.1270    1.0580 hn        1 HK7      0.470800
     28 H9          4.1700    0.8640   -0.6190 ha        1 HK7      0.173000
     29 H8          5.3030    0.3910   -2.7870 ha        1 HK7      0.173000
     30 H7          3.9660   -0.4220   -4.7450 ha        1 HK7      0.171000
     31 H6          1.5070   -0.7650   -4.5180 ha        1 HK7      0.171000
     32 H4          0.2100   -2.3910   -1.5650 ha        1 HK7      0.162000
     33 H3         -2.2550   -2.8120   -1.4920 ha        1 HK7      0.183000
     34 H5         -0.5110    1.5140   -3.3090 ha        1 HK7      0.171000
     35 H2         -3.7780    1.6770   -2.6820 hn        1 HK7      0.393800
     36 H12        -2.9730    2.3130   -5.8640 ha        1 HK7      0.153000
     37 H13        -4.2850    1.6010   -7.8500 ha        1 HK7      0.152000
     38 H14        -5.9630   -0.2380   -7.6560 ha        1 HK7      0.153000
     39 H15        -6.3360   -1.3730   -5.4900 ha        1 HK7      0.150000
     40 H1         -6.0590   -1.1570   -3.0670 hn        1 HK7      0.345500
     41 H33        -0.2600   -0.1990    0.0460 hn        1 HK7      0.470800
@<TRIPOS>BOND
     1    1    2 2   
     2    2    3 1   
     3    2    4 1   
     4    3   26 1   
     5    3   27 1   
     6    3   41 1   
     7    4    5 ar  
     8    4    9 ar  
     9    5    6 ar  
    10    5   28 1   
    11    6    7 ar  
    12    6   29 1   
    13    7    8 ar  
    14    7   30 1   
    15    8    9 ar  
    16    8   31 1   
    17    9   10 1   
    18   10   11 ar  
    19   10   16 ar  
    20   11   12 ar  
    21   11   32 1   
    22   12   13 ar  
    23   12   33 1   
    24   13   14 1   
    25   13   17 ar  
    26   14   15 2   
    27   14   25 1   
    28   16   17 ar  
    29   16   34 1   
    30   17   18 1   
    31   18   19 1   
    32   18   35 1   
    33   19   20 ar  
    34   19   24 ar  
    35   20   21 ar  
    36   20   36 1   
    37   21   22 ar  
    38   21   37 1   
    39   22   23 ar  
    40   22   38 1   
    41   23   24 ar  
    42   23   39 1   
    43   24   25 1   
    44   25   40 1   
@<TRIPOS>SUBSTRUCTURE
     1 HK7         1 TEMP              0 ****  ****    0 ROOT
