@<TRIPOS>MOLECULE
HK7
   41    44     1     0     0
SMALL
bcc


@<TRIPOS>ATOM
      1 O2          2.2480    0.8740    1.0260 o         1 HK7     -0.429100
      2 C16         1.6400    0.6390   -0.0110 c         1 HK7      0.575700
      3 N3          0.1370    0.7380    0.1420 n4        1 HK7     -0.759400
      4 C15         2.1800    0.3150   -1.3290 ca        1 HK7     -0.197600
      5 C14         3.5740    0.4900   -1.4550 ca        1 HK7     -0.041000
      6 C13         4.2130    0.2180   -2.6600 ca        1 HK7     -0.126000
      7 C12         3.4730   -0.2350   -3.7520 ca        1 HK7     -0.046000
      8 C11         2.0940   -0.4190   -3.6340 ca        1 HK7     -0.115000
      9 C10         1.4330   -0.1520   -2.4300 cp        1 HK7      0.012000
     10 C8         -0.0150   -0.3940   -2.3810 cp        1 HK7     -0.108000
     11 C7         -0.5070   -1.6130   -1.8930 ca        1 HK7     -0.163000
     12 C6         -1.8780   -1.8510   -1.8830 ca        1 HK7     -0.068000
     13 C5         -2.7700   -0.8830   -2.3600 ca        1 HK7     -0.143600
     14 C1         -4.2250   -1.1890   -2.2450 c         1 HK7      0.696100
     15 O1         -4.6470   -1.8170   -1.2520 o         1 HK7     -0.614500
     16 C9         -0.8960    0.5730   -2.8750 ca        1 HK7     -0.137000
     17 C4         -2.2880    0.3380   -2.8760 ca        1 HK7      0.129600
     18 N2         -3.1430    1.3510   -3.4120 na        1 HK7     -0.584000
     19 C3         -3.8930    0.8870   -4.5430 ca        1 HK7      0.030600
     20 C17        -3.6830    1.5050   -5.7880 ca        1 HK7     -0.073000
     21 C18        -4.4140    1.1090   -6.9040 ca        1 HK7     -0.135000
     22 C19        -5.3570    0.0880   -6.8000 ca        1 HK7     -0.089000
     23 C20        -5.5760   -0.5480   -5.5830 ca        1 HK7     -0.149000
     24 C2         -4.8490   -0.1650   -4.4360 ca        1 HK7      0.027600
     25 N1         -5.1330   -0.7800   -3.2030 n         1 HK7     -0.459100
     26 H16        -0.2790   -0.2000    0.0520 hn        1 HK7      0.470800
     27 H17        -0.0970    1.1270    1.0630 hn        1 HK7      0.470800
     28 H9          4.1590    0.8460   -0.5870 ha        1 HK7      0.173000
     29 H8          5.3030    0.3600   -2.7470 ha        1 HK7      0.173000
     30 H7          3.9750   -0.4520   -4.7110 ha        1 HK7      0.171000
     31 H6          1.5130   -0.7840   -4.4980 ha        1 HK7      0.171000
     32 H4          0.1900   -2.3960   -1.5540 ha        1 HK7      0.162000
     33 H3         -2.2780   -2.8060   -1.4960 ha        1 HK7      0.183000
     34 H5         -0.5020    1.5100   -3.3060 ha        1 HK7      0.171000
     35 H2         -3.7720    1.6890   -2.7000 hn        1 HK7      0.393800
     36 H12        -2.9440    2.3170   -5.8770 ha        1 HK7      0.153000
     37 H13        -4.2470    1.6090   -7.8710 ha        1 HK7      0.152000
     38 H14        -5.9350   -0.2210   -7.6860 ha        1 HK7      0.153000
     39 H15        -6.3270   -1.3520   -5.5210 ha        1 HK7      0.150000
     40 H1         -6.0640   -1.1340   -3.0960 hn        1 HK7      0.345500
     41 H33        -0.2530    1.3310   -0.6000 hn        1 HK7      0.470800
@<TRIPOS>BOND
     1    1    2 2   
     2    2    3 1   
     3    2    4 1   
     4    3   26 1   
     5    3   27 1   
     6    3   41 1   
     7    4    5 ar  
     8    4    9 ar  
     9    5    6 ar  
    10    5   28 1   
    11    6    7 ar  
    12    6   29 1   
    13    7    8 ar  
    14    7   30 1   
    15    8    9 ar  
    16    8   31 1   
    17    9   10 1   
    18   10   11 ar  
    19   10   16 ar  
    20   11   12 ar  
    21   11   32 1   
    22   12   13 ar  
    23   12   33 1   
    24   13   14 1   
    25   13   17 ar  
    26   14   15 2   
    27   14   25 1   
    28   16   17 ar  
    29   16   34 1   
    30   17   18 1   
    31   18   19 1   
    32   18   35 1   
    33   19   20 ar  
    34   19   24 ar  
    35   20   21 ar  
    36   20   36 1   
    37   21   22 ar  
    38   21   37 1   
    39   22   23 ar  
    40   22   38 1   
    41   23   24 ar  
    42   23   39 1   
    43   24   25 1   
    44   25   40 1   
@<TRIPOS>SUBSTRUCTURE
     1 HK7         1 TEMP              0 ****  ****    0 ROOT
