@<TRIPOS>MOLECULE
HK7
   40    43     1     0     0
SMALL
bcc


@<TRIPOS>ATOM
      1 O2         -2.5460   -0.4440    2.8970 o         1 HK7     -0.614100
      2 C16        -3.0370    0.1040    1.8890 c         1 HK7      0.670700
      3 N3         -3.1470    1.4700    1.8220 n         1 HK7     -0.660000
      4 C15        -3.5720   -0.6830    0.7360 ca        1 HK7     -0.122600
      5 C14        -4.7930   -1.3440    0.9030 ca        1 HK7     -0.093000
      6 C13        -5.3310   -2.0950   -0.1410 ca        1 HK7     -0.127000
      7 C12        -4.6480   -2.1870   -1.3530 ca        1 HK7     -0.116000
      8 C11        -3.4290   -1.5350   -1.5210 ca        1 HK7     -0.120000
      9 C10        -2.8730   -0.7790   -0.4770 cp        1 HK7     -0.020000
     10 C8         -1.5770   -0.1280   -0.6830 cp        1 HK7     -0.007000
     11 C7         -1.3370    0.5990   -1.8590 ca        1 HK7     -0.154000
     12 C6         -0.1070    1.2140   -2.0530 ca        1 HK7     -0.061000
     13 C5          0.9130    1.1070   -1.0970 ca        1 HK7     -0.146600
     14 C1          2.1510    1.8790   -1.3610 c         1 HK7      0.729100
     15 O1          2.1110    2.9560   -1.9950 o         1 HK7     -0.641500
     16 C9         -0.5670   -0.2510    0.2720 ca        1 HK7     -0.177000
     17 C4          0.6940    0.3610    0.0790 ca        1 HK7      0.159600
     18 N2          1.6780    0.2930    1.0940 na        1 HK7     -0.589000
     19 C3          2.9230   -0.2960    0.7440 ca        1 HK7      0.080600
     20 C17         3.3850   -1.4320    1.4410 ca        1 HK7     -0.143000
     21 C18         4.6370   -1.9740    1.1820 ca        1 HK7     -0.131000
     22 C19         5.4520   -1.4060    0.2050 ca        1 HK7     -0.116000
     23 C20         5.0190   -0.2950   -0.5070 ca        1 HK7     -0.157000
     24 C2          3.7540    0.2870   -0.2550 ca        1 HK7      0.068600
     25 N1          3.4040    1.4410   -0.9680 n         1 HK7     -0.465100
     26 H16        -2.7600    2.0240    2.5450 hn        1 HK7      0.315000
     27 H17        -3.4410    1.9130    0.9900 hn        1 HK7      0.315000
     28 H9         -5.3220   -1.2730    1.8660 ha        1 HK7      0.148000
     29 H8         -6.2900   -2.6150   -0.0050 ha        1 HK7      0.140000
     30 H7         -5.0700   -2.7790   -2.1790 ha        1 HK7      0.138000
     31 H6         -2.8860   -1.6170   -2.4750 ha        1 HK7      0.142000
     32 H4         -2.1260    0.6890   -2.6200 ha        1 HK7      0.143000
     33 H3          0.0780    1.8150   -2.9590 ha        1 HK7      0.160000
     34 H5         -0.7660   -0.8310    1.1900 ha        1 HK7      0.162000
     35 H2          1.3100   -0.1000    1.9430 hn        1 HK7      0.405800
     36 H12         2.7510   -1.8940    2.2150 ha        1 HK7      0.138000
     37 H13         4.9800   -2.8530    1.7470 ha        1 HK7      0.138000
     38 H14         6.4420   -1.8360   -0.0070 ha        1 HK7      0.138000
     39 H15         5.6780    0.1400   -1.2750 ha        1 HK7      0.139000
     40 H1          4.1690    2.0180   -1.2530 hn        1 HK7      0.329500
@<TRIPOS>BOND
     1    1    2 2   
     2    2    3 1   
     3    2    4 1   
     4    3   26 1   
     5    3   27 1   
     6    4    5 ar  
     7    4    9 ar  
     8    5    6 ar  
     9    5   28 1   
    10    6    7 ar  
    11    6   29 1   
    12    7    8 ar  
    13    7   30 1   
    14    8    9 ar  
    15    8   31 1   
    16    9   10 1   
    17   10   11 ar  
    18   10   16 ar  
    19   11   12 ar  
    20   11   32 1   
    21   12   13 ar  
    22   12   33 1   
    23   13   14 1   
    24   13   17 ar  
    25   14   15 2   
    26   14   25 1   
    27   16   17 ar  
    28   16   34 1   
    29   17   18 1   
    30   18   19 1   
    31   18   35 1   
    32   19   20 ar  
    33   19   24 ar  
    34   20   21 ar  
    35   20   36 1   
    36   21   22 ar  
    37   21   37 1   
    38   22   23 ar  
    39   22   38 1   
    40   23   24 ar  
    41   23   39 1   
    42   24   25 1   
    43   25   40 1   
@<TRIPOS>SUBSTRUCTURE
     1 HK7         1 TEMP              0 ****  ****    0 ROOT
