@<TRIPOS>MOLECULE
HK7
   40    30     1     0     0
SMALL
bcc


@<TRIPOS>ATOM
      1 O2          1.5750    0.8460    3.7560 o         1 HK7     -0.368000
      2 C16         2.3770   -0.0070    3.4380 c1        1 HK7      0.339000
      3 N3          2.5350   -1.1660    4.2410 n3        1 HK7     -0.421000
      4 C15         3.1880    0.1510    2.1710 c1        1 HK7     -0.101000
      5 C14         4.5720    0.0590    2.2170 c2        1 HK7     -0.084000
      6 C13         5.3120    0.1720    1.0520 c1        1 HK7     -0.129000
      7 C12         4.6700    0.3760   -0.1610 c1        1 HK7     -0.123500
      8 C11         3.2880    0.4670   -0.2070 c1        1 HK7     -0.123500
      9 C10         2.5460    0.3550    0.9590 c1        1 HK7     -0.025000
     10 C8          1.0310    0.4410    0.9070 c1        1 HK7     -0.008000
     11 C7          0.9250    1.8170    0.7280 c1        1 HK7     -0.123500
     12 C6         -0.0080    2.3320   -0.1620 c1        1 HK7     -0.123500
     13 C5         -0.8460    1.4650   -0.8810 c1        1 HK7     -0.026000
     14 C1         -2.0660    1.8140   -1.7300 c1        1 HK7      0.366000
     15 O1         -2.0320    2.4900   -2.7420 o         1 HK7     -0.358000
     16 C9          0.2020   -0.4190    0.1940 c1        1 HK7     -0.185000
     17 C4         -0.7410    0.1010   -0.7050 c1        1 HK7     -0.026000
     18 N2         -1.3610   -0.6100   -1.7980 n2        1 HK7     -0.270000
     19 C3         -2.7210   -0.9810   -1.4710 c1        1 HK7      0.036500
     20 C17        -3.1330   -2.3240   -1.5250 c1        1 HK7     -0.123500
     21 C18        -4.4300   -2.6400   -1.9240 c1        1 HK7     -0.123500
     22 C19        -5.3200   -1.6240   -2.2690 c1        1 HK7     -0.123500
     23 C20        -4.9140   -0.2940   -2.2150 c1        1 HK7     -0.123500
     24 C2         -3.6050    0.0260   -1.8130 c1        1 HK7      0.036500
     25 N1         -3.2490    1.2690   -1.1670 n2        1 HK7     -0.270000
     26 H16         3.1050   -1.8290    3.9790 hn        1 HK7      0.226000
     27 H17         2.0990   -1.2290    5.0440 hn        1 HK7      0.226000
     28 H9          5.0240   -0.0840    3.0710 ha        1 HK7      0.156000
     29 H8          6.2880    0.1070    1.0840 ha        1 HK7      0.141000
     30 H7          5.1920    0.4550   -0.9820 ha        1 HK7      0.144250
     31 H6          2.8370    0.6110   -1.0590 ha        1 HK7      0.144250
     32 H4          1.5470    2.4190    1.1870 ha        1 HK7      0.144250
     33 H3         -0.0830    3.2980   -0.2880 ha        1 HK7      0.144250
     34 H5          0.2580   -1.3820    0.3380 ha        1 HK7      0.140000
     35 H2         -1.3600   -0.0840   -2.5430 hn        1 HK7      0.219000
     36 H12        -2.5110   -3.0340   -1.2840 ha        1 HK7      0.144250
     37 H13        -4.7160   -3.5750   -1.9620 ha        1 HK7      0.144250
     38 H14        -6.2320   -1.8470   -2.5490 ha        1 HK7      0.144250
     39 H15        -5.5390    0.4180   -2.4570 ha        1 HK7      0.144250
     40 H1         -3.7070    1.6390   -0.4710 hn        1 HK7      0.219000
@<TRIPOS>BOND
     1    1    2 1   
     2    2    3 1   
     3    3   26 1   
     4    3   27 1   
     5    4    5 1   
     6    4    9 1   
     7    5    6 1   
     8    5   28 1   
     9    6   29 1   
    10    7    8 1   
    11    7   30 1   
    12    8   31 1   
    13   10   16 1   
    14   11   12 1   
    15   11   32 1   
    16   12   33 1   
    17   13   17 1   
    18   14   15 1   
    19   16   34 1   
    20   18   19 1   
    21   18   35 1   
    22   19   24 1   
    23   20   21 1   
    24   20   36 1   
    25   21   37 1   
    26   22   23 1   
    27   22   38 1   
    28   23   39 1   
    29   24   25 1   
    30   25   40 1   
@<TRIPOS>SUBSTRUCTURE
     1 HK7         1 TEMP              0 ****  ****    0 ROOT
