@<TRIPOS>MOLECULE
HK7
   41    44     1     0     0
SMALL
bcc


@<TRIPOS>ATOM
      1 O2          2.2590    0.8600    1.0200 o         1 HK7     -0.429100
      2 C16         1.6480    0.6340   -0.0180 c         1 HK7      0.575700
      3 N3          0.1460    0.7370    0.1390 nz        1 HK7     -0.759400
      4 C15         2.1850    0.3160   -1.3380 ca        1 HK7     -0.197600
      5 C14         3.5790    0.4940   -1.4670 ca        1 HK7     -0.041000
      6 C13         4.2140    0.2280   -2.6760 ca        1 HK7     -0.126000
      7 C12         3.4710   -0.2210   -3.7680 ca        1 HK7     -0.046000
      8 C11         2.0920   -0.4070   -3.6460 ca        1 HK7     -0.115000
      9 C10         1.4350   -0.1470   -2.4380 cp        1 HK7      0.012000
     10 C8         -0.0130   -0.3910   -2.3860 cp        1 HK7     -0.108000
     11 C7         -0.5010   -1.6110   -1.8960 ca        1 HK7     -0.163000
     12 C6         -1.8710   -1.8510   -1.8820 ca        1 HK7     -0.068000
     13 C5         -2.7660   -0.8850   -2.3560 ca        1 HK7     -0.143600
     14 C1         -4.2200   -1.1940   -2.2370 c         1 HK7      0.696100
     15 O1         -4.6390   -1.8220   -1.2420 o         1 HK7     -0.614500
     16 C9         -0.8970    0.5740   -2.8770 ca        1 HK7     -0.137000
     17 C4         -2.2880    0.3370   -2.8730 ca        1 HK7      0.129600
     18 N2         -3.1460    1.3490   -3.4060 na        1 HK7     -0.584000
     19 C3         -3.9000    0.8830   -4.5350 ca        1 HK7      0.030600
     20 C17        -3.6940    1.5020   -5.7800 ca        1 HK7     -0.073000
     21 C18        -4.4280    1.1050   -6.8940 ca        1 HK7     -0.135000
     22 C19        -5.3690    0.0830   -6.7870 ca        1 HK7     -0.089000
     23 C20        -5.5830   -0.5540   -5.5700 ca        1 HK7     -0.149000
     24 C2         -4.8530   -0.1700   -4.4250 ca        1 HK7      0.027600
     25 N1         -5.1320   -0.7860   -3.1910 ns        1 HK7     -0.459100
     26 H16        -0.2430    1.3330   -0.6020 hn        1 HK7      0.470800
     27 H17        -0.0850    1.1260    1.0610 hn        1 HK7      0.470800
     28 H9          4.1650    0.8460   -0.6000 ha        1 HK7      0.173000
     29 H8          5.3040    0.3720   -2.7650 ha        1 HK7      0.173000
     30 H7          3.9690   -0.4330   -4.7290 ha        1 HK7      0.171000
     31 H6          1.5090   -0.7690   -4.5100 ha        1 HK7      0.171000
     32 H4          0.1980   -2.3940   -1.5600 ha        1 HK7      0.162000
     33 H3         -2.2680   -2.8070   -1.4940 ha        1 HK7      0.183000
     34 H5         -0.5060    1.5120   -3.3080 ha        1 HK7      0.171000
     35 H2         -3.7740    1.6850   -2.6920 hn        1 HK7      0.393800
     36 H12        -2.9570    2.3160   -5.8720 ha        1 HK7      0.153000
     37 H13        -4.2650    1.6050   -7.8610 ha        1 HK7      0.152000
     38 H14        -5.9490   -0.2270   -7.6710 ha        1 HK7      0.153000
     39 H15        -6.3330   -1.3600   -5.5060 ha        1 HK7      0.150000
     40 H1         -6.0620   -1.1420   -3.0810 hn        1 HK7      0.345500
     41 H33        -0.2720   -0.1990    0.0490 hn        1 HK7      0.470800
@<TRIPOS>BOND
     1    1    2 2   
     2    2    3 1   
     3    2    4 1   
     4    3   26 1   
     5    3   27 1   
     6    3   41 1   
     7    4    5 ar  
     8    4    9 ar  
     9    5    6 ar  
    10    5   28 1   
    11    6    7 ar  
    12    6   29 1   
    13    7    8 ar  
    14    7   30 1   
    15    8    9 ar  
    16    8   31 1   
    17    9   10 1   
    18   10   11 ar  
    19   10   16 ar  
    20   11   12 ar  
    21   11   32 1   
    22   12   13 ar  
    23   12   33 1   
    24   13   14 1   
    25   13   17 ar  
    26   14   15 2   
    27   14   25 1   
    28   16   17 ar  
    29   16   34 1   
    30   17   18 1   
    31   18   19 1   
    32   18   35 1   
    33   19   20 ar  
    34   19   24 ar  
    35   20   21 ar  
    36   20   36 1   
    37   21   22 ar  
    38   21   37 1   
    39   22   23 ar  
    40   22   38 1   
    41   23   24 ar  
    42   23   39 1   
    43   24   25 1   
    44   25   40 1   
@<TRIPOS>SUBSTRUCTURE
     1 HK7         1 TEMP              0 ****  ****    0 ROOT
