@<TRIPOS>MOLECULE
HK8
   31    25     1     0     0
SMALL
bcc


@<TRIPOS>ATOM
      1 O3         -3.8180    0.6860   -0.3190 o         1 HK8     -0.403000
      2 C13        -2.6370    0.2830   -0.1520 c1        1 HK8      0.362000
      3 C12        -1.9900   -0.0050    1.2310 c2        1 HK8     -0.128000
      4 C11        -2.6360   -0.7520    2.2530 c2        1 HK8     -0.050000
      5 C10        -2.3640   -0.4800    3.5800 c1        1 HK8     -0.174000
      6 C9         -1.4570    0.5260    3.9150 c1        1 HK8     -0.014000
      7 CL         -1.5900    1.3150    5.4350 cl        1 HK8     -0.031000
      8 C8         -0.8260    1.2550    2.9210 c1        1 HK8     -0.197000
      9 C7         -1.0960    0.9850    1.5700 c1        1 HK8      0.102000
     10 N1         -0.8180    1.8300    0.4540 n2        1 HK8     -0.257500
     11 N2         -1.7500   -0.0860   -1.2230 n2        1 HK8     -0.257500
     12 C14        -0.3750   -0.1020   -0.7810 c2        1 HK8      0.002000
     13 C6          0.0690    1.1750   -0.4860 c2        1 HK8      0.002000
     14 C5          1.3930    1.5320   -0.7560 c1        1 HK8     -0.163500
     15 C4          2.2780    0.5900   -1.3310 c1        1 HK8     -0.117000
     16 C15         0.5130   -1.0500   -1.3590 c1        1 HK8     -0.163500
     17 C3          1.8300   -0.6930   -1.6280 c1        1 HK8      0.016000
     18 C2          2.5220   -1.0980   -2.9550 c2        1 HK8     -0.220000
     19 C1          3.5550   -2.2220   -2.6870 c1        1 HK8      0.339000
     20 O2          4.7240   -1.9270   -2.2390 o         1 HK8     -0.582000
     21 O1          3.2930   -3.3600   -2.9810 os        1 HK8     -0.556000
     22 H9         -3.3340   -1.3650    2.0280 ha        1 HK8      0.158000
     23 H8         -2.8320   -0.9720    4.2860 ha        1 HK8      0.145000
     24 H7         -0.1820    1.9700    3.1640 ha        1 HK8      0.146000
     25 H6         -0.4060    2.6610    0.7650 hn        1 HK8      0.211500
     26 H10        -2.0180   -0.3140   -2.0480 hn        1 HK8      0.211500
     27 H5          1.6950    2.4020   -0.5560 ha        1 HK8      0.126500
     28 H4          3.2480    0.8310   -1.4790 ha        1 HK8      0.200000
     29 H11         0.1610   -1.8980   -1.7040 ha        1 HK8      0.126500
     30 H2          1.8610   -1.4120   -3.5790 ha        1 HK8      0.083000
     31 H3          2.9860   -0.3060   -3.3390 ha        1 HK8      0.083000
@<TRIPOS>BOND
     1    1    2 1   
     2    2    3 1   
     3    3    4 1   
     4    3    9 1   
     5    4    5 1   
     6    4   22 1   
     7    5   23 1   
     8    6    7 1   
     9    6    8 1   
    10    8   24 1   
    11   10   13 1   
    12   10   25 1   
    13   11   12 1   
    14   11   26 1   
    15   12   13 1   
    16   12   16 1   
    17   13   14 1   
    18   14   27 1   
    19   15   17 1   
    20   15   28 1   
    21   16   29 1   
    22   18   19 1   
    23   18   30 1   
    24   18   31 1   
    25   19   20 1   
@<TRIPOS>SUBSTRUCTURE
     1 HK8         1 TEMP              0 ****  ****    0 ROOT
