@<TRIPOS>MOLECULE
HK8
   31    33     1     0     0
SMALL
bcc


@<TRIPOS>ATOM
      1 O3         -0.0250    0.1330   -0.1340 o         1 HK8     -0.662500
      2 C13         1.2270    0.1480   -0.0650 c         1 HK8      0.699100
      3 C12         1.9010    0.0890    1.2620 ca        1 HK8     -0.153600
      4 C11         1.2550   -0.6480    2.2630 ca        1 HK8     -0.069000
      5 C10         1.7930   -0.7350    3.5420 ca        1 HK8     -0.149000
      6 C9          2.9890   -0.0670    3.8220 ca        1 HK8      0.033400
      7 CL          3.6530   -0.1630    5.3890 cl        1 HK8     -0.110400
      8 C8          3.6480    0.6770    2.8450 ca        1 HK8     -0.116000
      9 C7          3.1070    0.7630    1.5450 ca        1 HK8      0.137600
     10 N1          3.8190    1.5380    0.5740 na        1 HK8     -0.579000
     11 N2          1.9360    0.2400   -1.2450 n         1 HK8     -0.452100
     12 C14         3.3300    0.0960   -1.4130 ca        1 HK8      0.012600
     13 C6          4.2510    0.7470   -0.5420 ca        1 HK8      0.004600
     14 C5          5.6260    0.6230   -0.7950 ca        1 HK8     -0.090000
     15 C4          6.0850   -0.1110   -1.8820 ca        1 HK8     -0.166000
     16 C15         3.8140   -0.6460   -2.5040 ca        1 HK8     -0.150000
     17 C3          5.1890   -0.7550   -2.7440 ca        1 HK8      0.015700
     18 C2          5.6750   -1.5590   -3.8890 c3        1 HK8     -0.186100
     19 C1          4.9530   -1.2280   -5.2210 c         1 HK8      0.920600
     20 O2          3.7110   -1.4520   -5.2960 o         1 HK8     -0.834300
     21 O1          5.6610   -0.7870   -6.1650 o         1 HK8     -0.834300
     22 H9          0.3030   -1.1520    2.0240 ha        1 HK8      0.158000
     23 H8          1.2820   -1.3200    4.3200 ha        1 HK8      0.144000
     24 H7          4.5920    1.1940    3.0800 ha        1 HK8      0.161000
     25 H6          3.2280    2.2870    0.2470 hn        1 HK8      0.379800
     26 H10         1.3970    0.1460   -2.0840 hn        1 HK8      0.336500
     27 H5          6.3480    1.1220   -0.1300 ha        1 HK8      0.129000
     28 H4          7.1660   -0.1790   -2.0730 ha        1 HK8      0.130000
     29 H11         3.1310   -1.1270   -3.2350 ha        1 HK8      0.201000
     30 H2          6.7750   -1.4130   -4.0330 hc        1 HK8      0.044700
     31 H3          5.4860   -2.6440   -3.6780 hc        1 HK8      0.044700
@<TRIPOS>BOND
     1    1    2 2   
     2    2    3 1   
     3    2   11 1   
     4    3    4 ar  
     5    3    9 ar  
     6    4    5 ar  
     7    4   22 1   
     8    5    6 ar  
     9    5   23 1   
    10    6    7 1   
    11    6    8 ar  
    12    8    9 ar  
    13    8   24 1   
    14    9   10 1   
    15   10   13 1   
    16   10   25 1   
    17   11   12 1   
    18   11   26 1   
    19   12   13 ar  
    20   12   16 ar  
    21   13   14 ar  
    22   14   15 ar  
    23   14   27 1   
    24   15   17 ar  
    25   15   28 1   
    26   16   17 ar  
    27   16   29 1   
    28   17   18 1   
    29   18   19 1   
    30   18   30 1   
    31   18   31 1   
    32   19   20 1   
    33   19   21 1   
@<TRIPOS>SUBSTRUCTURE
     1 HK8         1 TEMP              0 ****  ****    0 ROOT
