@<TRIPOS>MOLECULE
HK8
   31    33     1     0     0
SMALL
bcc


@<TRIPOS>ATOM
      1 O3         -0.0250    0.1210   -0.1320 o         1 HK8     -0.662500
      2 C13         1.2260    0.1410   -0.0640 c         1 HK8      0.699100
      3 C12         1.9010    0.0870    1.2620 ca        1 HK8     -0.153600
      4 C11         1.2580   -0.6490    2.2660 ca        1 HK8     -0.069000
      5 C10         1.7980   -0.7310    3.5440 ca        1 HK8     -0.149000
      6 C9          2.9910   -0.0590    3.8220 ca        1 HK8      0.033400
      7 CL          3.6570   -0.1490    5.3890 cl        1 HK8     -0.110400
      8 C8          3.6470    0.6850    2.8430 ca        1 HK8     -0.116000
      9 C7          3.1050    0.7660    1.5430 ca        1 HK8      0.137600
     10 N1          3.8140    1.5410    0.5700 na        1 HK8     -0.579000
     11 N2          1.9340    0.2320   -1.2450 n         1 HK8     -0.452100
     12 C14         3.3280    0.0930   -1.4130 ca        1 HK8      0.012600
     13 C6          4.2470    0.7490   -0.5450 ca        1 HK8      0.004600
     14 C5          5.6230    0.6290   -0.7980 ca        1 HK8     -0.090000
     15 C4          6.0840   -0.1060   -1.8840 ca        1 HK8     -0.166000
     16 C15         3.8140   -0.6500   -2.5030 ca        1 HK8     -0.150000
     17 C3          5.1890   -0.7560   -2.7440 ca        1 HK8      0.015700
     18 C2          5.6770   -1.5600   -3.8870 c3        1 HK8     -0.186100
     19 C1          4.9540   -1.2340   -5.2200 c         1 HK8      0.920600
     20 O2          3.7120   -1.4620   -5.2930 o         1 HK8     -0.834300
     21 O1          5.6600   -0.7940   -6.1650 o         1 HK8     -0.834300
     22 H9          0.3080   -1.1570    2.0280 ha        1 HK8      0.158000
     23 H8          1.2890   -1.3160    4.3240 ha        1 HK8      0.144000
     24 H7          4.5900    1.2050    3.0760 ha        1 HK8      0.161000
     25 H6          3.2200    2.2870    0.2410 hn        1 HK8      0.379800
     26 H10         1.3950    0.1350   -2.0840 hn        1 HK8      0.336500
     27 H5          6.3430    1.1320   -0.1350 ha        1 HK8      0.129000
     28 H4          7.1650   -0.1720   -2.0760 ha        1 HK8      0.130000
     29 H11         3.1320   -1.1350   -3.2320 ha        1 HK8      0.201000
     30 H2          6.7770   -1.4120   -4.0320 hc        1 HK8      0.044700
     31 H3          5.4910   -2.6460   -3.6730 hc        1 HK8      0.044700
@<TRIPOS>BOND
     1    1    2 2   
     2    2    3 1   
     3    2   11 1   
     4    3    4 ar  
     5    3    9 ar  
     6    4    5 ar  
     7    4   22 1   
     8    5    6 ar  
     9    5   23 1   
    10    6    7 1   
    11    6    8 ar  
    12    8    9 ar  
    13    8   24 1   
    14    9   10 1   
    15   10   13 1   
    16   10   25 1   
    17   11   12 1   
    18   11   26 1   
    19   12   13 ar  
    20   12   16 ar  
    21   13   14 ar  
    22   14   15 ar  
    23   14   27 1   
    24   15   17 ar  
    25   15   28 1   
    26   16   17 ar  
    27   16   29 1   
    28   17   18 1   
    29   18   19 1   
    30   18   30 1   
    31   18   31 1   
    32   19   20 1   
    33   19   21 1   
@<TRIPOS>SUBSTRUCTURE
     1 HK8         1 TEMP              0 ****  ****    0 ROOT
