@<TRIPOS>MOLECULE
HK8
   31    33     1     0     0
SMALL
bcc


@<TRIPOS>ATOM
      1 O3         -0.0230    0.1310   -0.1170 o         1 HK8     -0.662500
      2 C13         1.2290    0.1470   -0.0540 c         1 HK8      0.699100
      3 C12         1.9080    0.0890    1.2700 ca        1 HK8     -0.153600
      4 C11         1.2680   -0.6470    2.2740 ca        1 HK8     -0.069000
      5 C10         1.8120   -0.7330    3.5500 ca        1 HK8     -0.149000
      6 C9          3.0090   -0.0650    3.8250 ca        1 HK8      0.033400
      7 Cl          3.6800   -0.1590    5.3890 cl        1 HK8     -0.110400
      8 C8          3.6630    0.6790    2.8450 ca        1 HK8     -0.116000
      9 C7          3.1160    0.7640    1.5470 ca        1 HK8      0.137600
     10 N1          3.8220    1.5390    0.5720 na        1 HK8     -0.579000
     11 N2          1.9330    0.2380   -1.2380 ns        1 HK8     -0.452100
     12 C14         3.3250    0.0950   -1.4110 ca        1 HK8      0.012600
     13 C6          4.2500    0.7480   -0.5450 ca        1 HK8      0.004600
     14 C5          5.6240    0.6240   -0.8040 ca        1 HK8     -0.090000
     15 C4          6.0790   -0.1100   -1.8930 ca        1 HK8     -0.166000
     16 C15         3.8060   -0.6470   -2.5050 ca        1 HK8     -0.150000
     17 C3          5.1790   -0.7560   -2.7510 ca        1 HK8      0.015700
     18 C2          5.6600   -1.5600   -3.8970 c3        1 HK8     -0.186100
     19 C1          4.9330   -1.2300   -5.2270 c         1 HK8      0.920600
     20 O2          3.6910   -1.4550   -5.2950 o         1 HK8     -0.834300
     21 O1          5.6360   -0.7890   -6.1740 o         1 HK8     -0.834300
     22 H9          0.3150   -1.1520    2.0390 ha        1 HK8      0.158000
     23 H8          1.3040   -1.3180    4.3310 ha        1 HK8      0.144000
     24 H7          4.6070    1.1960    3.0750 ha        1 HK8      0.161000
     25 H6          3.2300    2.2870    0.2470 hn        1 HK8      0.379800
     26 H10         1.3900    0.1440   -2.0750 hn        1 HK8      0.336500
     27 H5          6.3480    1.1240   -0.1430 ha        1 HK8      0.129000
     28 H4          7.1590   -0.1780   -2.0890 ha        1 HK8      0.130000
     29 H11         3.1190   -1.1290   -3.2320 ha        1 HK8      0.201000
     30 H2          6.7600   -1.4140   -4.0460 hc        1 HK8      0.044700
     31 H3          5.4730   -2.6450   -3.6840 hc        1 HK8      0.044700
@<TRIPOS>BOND
     1    1    2 2   
     2    2    3 1   
     3    2   11 1   
     4    3    4 ar  
     5    3    9 ar  
     6    4    5 ar  
     7    4   22 1   
     8    5    6 ar  
     9    5   23 1   
    10    6    7 1   
    11    6    8 ar  
    12    8    9 ar  
    13    8   24 1   
    14    9   10 1   
    15   10   13 1   
    16   10   25 1   
    17   11   12 1   
    18   11   26 1   
    19   12   13 ar  
    20   12   16 ar  
    21   13   14 ar  
    22   14   15 ar  
    23   14   27 1   
    24   15   17 ar  
    25   15   28 1   
    26   16   17 ar  
    27   16   29 1   
    28   17   18 1   
    29   18   19 1   
    30   18   30 1   
    31   18   31 1   
    32   19   20 1   
    33   19   21 1   
@<TRIPOS>SUBSTRUCTURE
     1 HK8         1 TEMP              0 ****  ****    0 ROOT
