@<TRIPOS>MOLECULE
HK8
   31    33     1     0     0
SMALL
bcc


@<TRIPOS>ATOM
      1 O3          1.4610   -3.4640   -0.1080 o         1 HK8     -0.677500
      2 C13         1.0620   -2.2770   -0.0280 c         1 HK8      0.724100
      3 C12         2.0450   -1.1620   -0.0670 ca        1 HK8     -0.149600
      4 C11         3.2180   -1.3950   -0.7960 ca        1 HK8     -0.050000
      5 C10         4.2510   -0.4650   -0.8190 ca        1 HK8     -0.175000
      6 C9          4.1110    0.7160   -0.0840 ca        1 HK8      0.063400
      7 CL          5.3770    1.8570   -0.0830 cl        1 HK8     -0.110400
      8 C8          2.9540    0.9800    0.6410 ca        1 HK8     -0.199000
      9 C7          1.8900    0.0440    0.6540 ca        1 HK8      0.183600
     10 N1          0.7480    0.2770    1.4490 na        1 HK8     -0.579000
     11 N2         -0.2950   -2.0740    0.0680 n         1 HK8     -0.451100
     12 C14        -1.0020   -0.8580    0.1110 ca        1 HK8      0.045600
     13 C6         -0.5090    0.2940    0.7740 ca        1 HK8      0.033600
     14 C5         -1.3120    1.4560    0.8080 ca        1 HK8     -0.151000
     15 C4         -2.5630    1.4820    0.2170 ca        1 HK8     -0.116000
     16 C15        -2.2780   -0.8050   -0.4960 ca        1 HK8     -0.174000
     17 C3         -3.0580    0.3500   -0.4530 ca        1 HK8      0.008700
     18 C2         -4.3790    0.3980   -1.1190 c3        1 HK8     -0.184100
     19 C1         -5.4920    1.0140   -0.2310 c         1 HK8      0.920600
     20 O2         -6.4550    0.2660    0.0860 o         1 HK8     -0.834300
     21 O1         -5.3880    2.2320    0.0890 o         1 HK8     -0.834300
     22 H9          3.3190   -2.3490   -1.3410 ha        1 HK8      0.158000
     23 H8          5.1640   -0.6620   -1.3990 ha        1 HK8      0.144000
     24 H7          2.8660    1.9210    1.2050 ha        1 HK8      0.146000
     25 H6          0.8560    1.0950    2.0230 hn        1 HK8      0.391800
     26 H10        -0.8610   -2.8980    0.0540 hn        1 HK8      0.327500
     27 H5         -0.9480    2.3550    1.3290 ha        1 HK8      0.120000
     28 H4         -3.2180    2.3730    0.2830 ha        1 HK8      0.200000
     29 H11        -2.6760   -1.6970   -1.0060 ha        1 HK8      0.133000
     30 H2         -4.2980    1.0410   -2.0340 hc        1 HK8      0.043700
     31 H3         -4.7010   -0.6270   -1.4350 hc        1 HK8      0.043700
@<TRIPOS>BOND
     1    1    2 2   
     2    2    3 1   
     3    2   11 1   
     4    3    4 ar  
     5    3    9 ar  
     6    4    5 ar  
     7    4   22 1   
     8    5    6 ar  
     9    5   23 1   
    10    6    7 1   
    11    6    8 ar  
    12    8    9 ar  
    13    8   24 1   
    14    9   10 1   
    15   10   13 1   
    16   10   25 1   
    17   11   12 1   
    18   11   26 1   
    19   12   13 ar  
    20   12   16 ar  
    21   13   14 ar  
    22   14   15 ar  
    23   14   27 1   
    24   15   17 ar  
    25   15   28 1   
    26   16   17 ar  
    27   16   29 1   
    28   17   18 1   
    29   18   19 1   
    30   18   30 1   
    31   18   31 1   
    32   19   20 1   
    33   19   21 1   
@<TRIPOS>SUBSTRUCTURE
     1 HK8         1 TEMP              0 ****  ****    0 ROOT
