@<TRIPOS>MOLECULE
HK9
   42    45     1     0     0
SMALL
bcc


@<TRIPOS>ATOM
      1 O4         -4.1250   -2.9500    1.1100 o         1 HK9     -0.654500
      2 C14        -3.8560   -1.8010    0.6930 c         1 HK9      0.737100
      3 N2         -4.9480   -1.0240    0.3280 n         1 HK9     -0.472100
      4 C13        -4.9780    0.2750   -0.1890 ca        1 HK9      0.073600
      5 C18        -6.0350    0.6250   -1.0610 ca        1 HK9     -0.165000
      6 C19        -6.1560    1.9130   -1.5650 ca        1 HK9     -0.124000
      7 C20        -5.2230    2.8880   -1.2250 ca        1 HK9     -0.137000
      8 C21        -4.1650    2.5710   -0.3810 ca        1 HK9     -0.146000
      9 C12        -4.0240    1.2770    0.1610 ca        1 HK9      0.087600
     10 N1         -2.9960    1.0040    1.1010 na        1 HK9     -0.587000
     11 C15        -2.4600   -1.3360    0.5510 ca        1 HK9     -0.171600
     12 C11        -2.0560    0.0010    0.7440 ca        1 HK9      0.148600
     13 C10        -0.6840    0.3200    0.6560 ca        1 HK9     -0.189000
     14 C16        -1.4930   -2.3140    0.2730 ca        1 HK9     -0.061000
     15 C17        -0.1490   -1.9860    0.1760 ca        1 HK9     -0.159000
     16 C9          0.2730   -0.6610    0.3750 cp        1 HK9      0.062000
     17 C4          1.6850   -0.3040    0.2800 cp        1 HK9     -0.100000
     18 C3          2.5030   -0.9080   -0.6810 ca        1 HK9     -0.134000
     19 C5          2.2410    0.6500    1.1450 ca        1 HK9     -0.135000
     20 C6          3.5840    0.9930    1.0400 ca        1 HK9     -0.115000
     21 C7          4.4180    0.4090    0.0790 ca        1 HK9     -0.095600
     22 C8          5.8740    0.8690    0.0400 c         1 HK9      0.917200
     23 O3          6.1050    2.0200   -0.4160 o         1 HK9     -0.816800
     24 O2          6.7500    0.0880    0.5080 o         1 HK9     -0.816800
     25 C2          3.8560   -0.5460   -0.7830 ca        1 HK9      0.104100
     26 O1          4.5420   -1.1080   -1.8540 os        1 HK9     -0.352900
     27 C1          5.5890   -2.0030   -1.4780 c3        1 HK9      0.099700
     28 H9         -5.8350   -1.4770    0.4010 hn        1 HK9      0.320500
     29 H12        -6.7820   -0.1340   -1.3450 ha        1 HK9      0.132000
     30 H13        -6.9900    2.1570   -2.2390 ha        1 HK9      0.129000
     31 H14        -5.3150    3.9080   -1.6260 ha        1 HK9      0.132000
     32 H15        -3.4310    3.3520   -0.1260 ha        1 HK9      0.135000
     33 H8         -2.5330    1.8500    1.3850 hn        1 HK9      0.394800
     34 H7         -0.3470    1.3590    0.8050 ha        1 HK9      0.143000
     35 H10        -1.8220   -3.3590    0.1460 ha        1 HK9      0.149000
     36 H11         0.5970   -2.7660   -0.0430 ha        1 HK9      0.148000
     37 H4          2.0920   -1.6490   -1.3820 ha        1 HK9      0.127000
     38 H5          1.6130    1.1200    1.9160 ha        1 HK9      0.112000
     39 H6          4.0140    1.7500    1.7130 ha        1 HK9      0.141000
     40 H3          6.2610   -1.5450   -0.7090 h1        1 HK9      0.046700
     41 H2          5.1420   -2.9560   -1.1010 h1        1 HK9      0.046700
     42 H1          6.1380   -2.1830   -2.4360 h1        1 HK9      0.046700
@<TRIPOS>BOND
     1    1    2 2   
     2    2    3 1   
     3    2   11 1   
     4    3    4 1   
     5    3   28 1   
     6    4    5 ar  
     7    4    9 ar  
     8    5    6 ar  
     9    5   29 1   
    10    6    7 ar  
    11    6   30 1   
    12    7    8 ar  
    13    7   31 1   
    14    8    9 ar  
    15    8   32 1   
    16    9   10 1   
    17   10   12 1   
    18   10   33 1   
    19   11   12 ar  
    20   11   14 ar  
    21   12   13 ar  
    22   13   16 ar  
    23   13   34 1   
    24   14   15 ar  
    25   14   35 1   
    26   15   16 ar  
    27   15   36 1   
    28   16   17 1   
    29   17   18 ar  
    30   17   19 ar  
    31   18   25 ar  
    32   18   37 1   
    33   19   20 ar  
    34   19   38 1   
    35   20   21 ar  
    36   20   39 1   
    37   21   22 1   
    38   21   25 ar  
    39   22   23 1   
    40   22   24 1   
    41   25   26 1   
    42   26   27 1   
    43   27   40 1   
    44   27   41 1   
    45   27   42 1   
@<TRIPOS>SUBSTRUCTURE
     1 HK9         1 TEMP              0 ****  ****    0 ROOT
