@<TRIPOS>MOLECULE
HK9
   42    45     1     0     0
SMALL
bcc


@<TRIPOS>ATOM
      1 O4         -0.0890   -0.2560    0.3450 o         1 HK9     -0.645500
      2 C14         1.1550   -0.2480    0.2240 c         1 HK9      0.716100
      3 N2          1.8790   -0.2360    1.4160 n         1 HK9     -0.477100
      4 C13         3.2570   -0.0250    1.5710 ca        1 HK9      0.039600
      5 C18         3.7240    0.7840    2.6310 ca        1 HK9     -0.172000
      6 C19         5.0860    0.9690    2.8290 ca        1 HK9     -0.109000
      7 C20         6.0120    0.3630    1.9820 ca        1 HK9     -0.155000
      8 C21         5.5780   -0.4430    0.9350 ca        1 HK9     -0.074000
      9 C12         4.2070   -0.6650    0.7210 ca        1 HK9      0.056600
     10 N1          3.8110   -1.5330   -0.3460 na        1 HK9     -0.582000
     11 C15         1.8100   -0.2450   -1.1030 ca        1 HK9     -0.191600
     12 C11         3.0580   -0.8540   -1.3610 ca        1 HK9      0.111600
     13 C10         3.5890   -0.8110   -2.6610 ca        1 HK9     -0.117000
     14 C16         1.1160    0.3740   -2.1510 ca        1 HK9     -0.071000
     15 C17         1.6510    0.4130   -3.4320 ca        1 HK9     -0.146000
     16 C9          2.8940   -0.1780   -3.7020 cp        1 HK9      0.043000
     17 C4          3.4590   -0.1370   -5.0470 cp        1 HK9     -0.099000
     18 C3          3.2870    0.9960   -5.8510 ca        1 HK9     -0.135000
     19 C5          4.1810   -1.2280   -5.5540 ca        1 HK9     -0.133000
     20 C6          4.7160   -1.1790   -6.8360 ca        1 HK9     -0.115000
     21 C7          4.5590   -0.0540   -7.6560 ca        1 HK9     -0.095600
     22 C8          5.1910   -0.1030   -9.0450 c         1 HK9      0.916200
     23 O3          6.4440   -0.0050   -9.1170 o         1 HK9     -0.816800
     24 O2          4.4240   -0.2830  -10.0330 o         1 HK9     -0.816800
     25 C2          3.8390    1.0360   -7.1410 ca        1 HK9      0.103100
     26 O1          3.7190    2.2530   -7.8020 os        1 HK9     -0.352900
     27 C1          2.8990    2.2110   -8.9690 c3        1 HK9      0.099700
     28 H9          1.3300   -0.1040    2.2410 hn        1 HK9      0.317500
     29 H12         3.0070    1.2780    3.3050 ha        1 HK9      0.131000
     30 H13         5.4320    1.6060    3.6570 ha        1 HK9      0.129000
     31 H14         7.0880    0.5230    2.1370 ha        1 HK9      0.134000
     32 H15         6.3140   -0.9180    0.2660 ha        1 HK9      0.153000
     33 H8          3.2660   -2.2960    0.0230 hn        1 HK9      0.380800
     34 H7          4.5680   -1.2730   -2.8700 ha        1 HK9      0.159000
     35 H10         0.1310    0.8240   -1.9450 ha        1 HK9      0.147000
     36 H11         1.0930    0.9030   -4.2450 ha        1 HK9      0.148000
     37 H4          2.7430    1.8730   -5.4740 ha        1 HK9      0.126000
     38 H5          4.3160   -2.1280   -4.9380 ha        1 HK9      0.115000
     39 H6          5.2910   -2.0330   -7.2270 ha        1 HK9      0.141000
     40 H3          3.0880    3.1980   -9.4600 h1        1 HK9      0.046033
     41 H2          3.1890    1.3650   -9.6420 h1        1 HK9      0.046033
     42 H1          1.8260    2.1280   -8.6640 h1        1 HK9      0.046033
@<TRIPOS>BOND
     1    1    2 2   
     2    2    3 1   
     3    2   11 1   
     4    3    4 1   
     5    3   28 1   
     6    4    5 ar  
     7    4    9 ar  
     8    5    6 ar  
     9    5   29 1   
    10    6    7 ar  
    11    6   30 1   
    12    7    8 ar  
    13    7   31 1   
    14    8    9 ar  
    15    8   32 1   
    16    9   10 1   
    17   10   12 1   
    18   10   33 1   
    19   11   12 ar  
    20   11   14 ar  
    21   12   13 ar  
    22   13   16 ar  
    23   13   34 1   
    24   14   15 ar  
    25   14   35 1   
    26   15   16 ar  
    27   15   36 1   
    28   16   17 1   
    29   17   18 ar  
    30   17   19 ar  
    31   18   25 ar  
    32   18   37 1   
    33   19   20 ar  
    34   19   38 1   
    35   20   21 ar  
    36   20   39 1   
    37   21   22 1   
    38   21   25 ar  
    39   22   23 1   
    40   22   24 1   
    41   25   26 1   
    42   26   27 1   
    43   27   40 1   
    44   27   41 1   
    45   27   42 1   
@<TRIPOS>SUBSTRUCTURE
     1 HK9         1 TEMP              0 ****  ****    0 ROOT
