@<TRIPOS>MOLECULE
HK9
   42    45     1     0     0
SMALL
bcc


@<TRIPOS>ATOM
      1 O4         -0.0900   -0.2490    0.3450 o         1 HK9     -0.645500
      2 C14         1.1550   -0.2450    0.2230 c         1 HK9      0.716100
      3 N2          1.8790   -0.2370    1.4160 ns        1 HK9     -0.477100
      4 C13         3.2570   -0.0310    1.5710 ca        1 HK9      0.039600
      5 C18         3.7270    0.7750    2.6320 ca        1 HK9     -0.172000
      6 C19         5.0900    0.9560    2.8300 ca        1 HK9     -0.109000
      7 C20         6.0130    0.3480    1.9820 ca        1 HK9     -0.155000
      8 C21         5.5760   -0.4550    0.9340 ca        1 HK9     -0.074000
      9 C12         4.2040   -0.6720    0.7200 ca        1 HK9      0.056600
     10 N1          3.8050   -1.5380   -0.3480 na        1 HK9     -0.582000
     11 C15         1.8090   -0.2420   -1.1030 ca        1 HK9     -0.191600
     12 C11         3.0560   -0.8550   -1.3620 ca        1 HK9      0.111600
     13 C10         3.5860   -0.8120   -2.6620 ca        1 HK9     -0.117000
     14 C16         1.1170    0.3810   -2.1500 ca        1 HK9     -0.071000
     15 C17         1.6510    0.4200   -3.4310 ca        1 HK9     -0.146000
     16 C9          2.8930   -0.1750   -3.7030 cp        1 HK9      0.043000
     17 C4          3.4580   -0.1340   -5.0470 cp        1 HK9     -0.099000
     18 C3          3.2890    1.0000   -5.8500 ca        1 HK9     -0.135000
     19 C5          4.1760   -1.2260   -5.5560 ca        1 HK9     -0.133000
     20 C6          4.7110   -1.1770   -6.8380 ca        1 HK9     -0.115000
     21 C7          4.5580   -0.0510   -7.6570 ca        1 HK9     -0.095600
     22 C8          5.1890   -0.1000   -9.0460 c         1 HK9      0.916200
     23 O3          6.4420   -0.0070   -9.1180 o         1 HK9     -0.816800
     24 O2          4.4210   -0.2760  -10.0340 o         1 HK9     -0.816800
     25 C2          3.8410    1.0400   -7.1400 ca        1 HK9      0.103100
     26 O1          3.7250    2.2590   -7.7990 os        1 HK9     -0.352900
     27 C1          2.9050    2.2220   -8.9660 c3        1 HK9      0.099700
     28 H9          1.3300   -0.1040    2.2410 hn        1 HK9      0.317500
     29 H12         3.0120    1.2700    3.3070 ha        1 HK9      0.131000
     30 H13         5.4380    1.5900    3.6590 ha        1 HK9      0.129000
     31 H14         7.0900    0.5040    2.1370 ha        1 HK9      0.134000
     32 H15         6.3110   -0.9310    0.2640 ha        1 HK9      0.153000
     33 H8          3.2590   -2.3000    0.0200 hn        1 HK9      0.380800
     34 H7          4.5630   -1.2770   -2.8730 ha        1 HK9      0.159000
     35 H10         0.1330    0.8330   -1.9430 ha        1 HK9      0.147000
     36 H11         1.0960    0.9130   -4.2440 ha        1 HK9      0.148000
     37 H4          2.7480    1.8800   -5.4720 ha        1 HK9      0.126000
     38 H5          4.3080   -2.1280   -4.9410 ha        1 HK9      0.115000
     39 H6          5.2830   -2.0330   -7.2300 ha        1 HK9      0.141000
     40 H3          3.0980    3.2080   -9.4560 h1        1 HK9      0.046033
     41 H2          3.1910    1.3750   -9.6400 h1        1 HK9      0.046033
     42 H1          1.8320    2.1420   -8.6610 h1        1 HK9      0.046033
@<TRIPOS>BOND
     1    1    2 2   
     2    2    3 1   
     3    2   11 1   
     4    3    4 1   
     5    3   28 1   
     6    4    5 ar  
     7    4    9 ar  
     8    5    6 ar  
     9    5   29 1   
    10    6    7 ar  
    11    6   30 1   
    12    7    8 ar  
    13    7   31 1   
    14    8    9 ar  
    15    8   32 1   
    16    9   10 1   
    17   10   12 1   
    18   10   33 1   
    19   11   12 ar  
    20   11   14 ar  
    21   12   13 ar  
    22   13   16 ar  
    23   13   34 1   
    24   14   15 ar  
    25   14   35 1   
    26   15   16 ar  
    27   15   36 1   
    28   16   17 1   
    29   17   18 ar  
    30   17   19 ar  
    31   18   25 ar  
    32   18   37 1   
    33   19   20 ar  
    34   19   38 1   
    35   20   21 ar  
    36   20   39 1   
    37   21   22 1   
    38   21   25 ar  
    39   22   23 1   
    40   22   24 1   
    41   25   26 1   
    42   26   27 1   
    43   27   40 1   
    44   27   41 1   
    45   27   42 1   
@<TRIPOS>SUBSTRUCTURE
     1 HK9         1 TEMP              0 ****  ****    0 ROOT
