@<TRIPOS>MOLECULE
HK9
   42    37     1     0     0
SMALL
bcc


@<TRIPOS>ATOM
      1 O4         -2.8710    0.5770    3.3670 o         1 HK9     -0.378000
      2 C14        -1.7060    0.8970    3.2870 c1        1 HK9      0.375000
      3 N2         -0.8610    1.1430    4.4040 n2        1 HK9     -0.326000
      4 C13         0.5180    0.8200    4.0950 c1        1 HK9      0.082000
      5 C18         1.4770    1.4590    4.8990 c1        1 HK9     -0.143250
      6 C19         2.5640    0.7420    5.3890 c1        1 HK9     -0.143250
      7 C20         2.7020   -0.6110    5.0820 c1        1 HK9     -0.143250
      8 C21         1.7530   -1.2450    4.2850 c1        1 HK9     -0.143250
      9 C12         0.6560   -0.5230    3.7910 c1        1 HK9      0.006000
     10 N1         -0.1630   -0.8830    2.6630 n3        1 HK9     -0.219000
     11 C15        -0.9740    1.1760    1.9750 c2        1 HK9     -0.151000
     12 C11        -0.1300    0.1400    1.6530 c2        1 HK9      0.066000
     13 C10         0.2480   -0.0680    0.3160 c1        1 HK9     -0.190000
     14 C16        -1.4570    2.0250    0.9690 c1        1 HK9     -0.061000
     15 C17        -1.0830    1.8200   -0.3530 c1        1 HK9     -0.159000
     16 C9         -0.2300    0.7720   -0.6780 c1        1 HK9      0.062000
     17 C4         -0.0320    0.4040   -2.1340 c2        1 HK9     -0.100000
     18 C3         -1.1000   -0.0730   -2.8810 c2        1 HK9     -0.133000
     19 C5          1.2230    0.5180   -2.7140 c1        1 HK9     -0.135000
     20 C6          1.4110    0.1540   -4.0390 c1        1 HK9     -0.116000
     21 C7          0.3440   -0.3230   -4.7850 c1        1 HK9     -0.075000
     22 C8          0.5430   -0.6950   -6.2390 c2        1 HK9      0.365000
     23 O3          0.9750   -1.8390   -6.5420 o         1 HK9     -0.551000
     24 O2          0.3160    0.1510   -7.1420 o         1 HK9     -0.551000
     25 C2         -0.9120   -0.4360   -4.2060 c1        1 HK9      0.059000
     26 O1         -2.0100   -0.8480   -4.9840 os        1 HK9     -0.236000
     27 C1         -2.3010   -2.2230   -4.8770 c3        1 HK9     -0.090000
     28 H9         -1.1450    1.4810    5.2030 hn        1 HK9      0.234000
     29 H12         1.1080    1.7790    5.7470 ha        1 HK9      0.131500
     30 H13         2.7210    0.7140    6.3540 ha        1 HK9      0.131500
     31 H14         3.5110   -1.0610    5.3880 ha        1 HK9      0.131500
     32 H15         2.2750   -1.9470    3.8510 ha        1 HK9      0.131500
     33 H8          0.1360   -1.6720    2.3070 hn        1 HK9      0.190000
     34 H7          0.8470   -0.8040    0.0860 ha        1 HK9      0.142000
     35 H10        -2.0560    2.7610    1.1980 ha        1 HK9      0.149000
     36 H11        -1.4660    2.3720   -1.0590 ha        1 HK9      0.150000
     37 H4         -1.9860   -0.1530   -2.4720 ha        1 HK9      0.128000
     38 H5          1.9670    0.8880   -2.1980 ha        1 HK9      0.111000
     39 H6          2.2970    0.2340   -4.4480 ha        1 HK9      0.140000
     40 H3         -2.9700   -2.4680   -5.5520 h1        1 HK9      0.086000
     41 H2         -2.6540   -2.4140   -3.9820 h1        1 HK9      0.086000
     42 H1         -1.4820   -2.7430   -5.0240 h1        1 HK9      0.086000
@<TRIPOS>BOND
     1    1    2 1   
     2    2   11 1   
     3    3    4 1   
     4    3   28 1   
     5    4    9 1   
     6    5    6 1   
     7    5   29 1   
     8    6   30 1   
     9    7    8 1   
    10    7   31 1   
    11    8   32 1   
    12    9   10 1   
    13   10   12 1   
    14   10   33 1   
    15   11   12 1   
    16   11   14 1   
    17   12   13 1   
    18   13   34 1   
    19   14   35 1   
    20   15   16 1   
    21   15   36 1   
    22   16   17 1   
    23   17   18 1   
    24   17   19 1   
    25   18   25 1   
    26   18   37 1   
    27   19   38 1   
    28   20   21 1   
    29   20   39 1   
    30   21   22 1   
    31   22   23 1   
    32   22   24 1   
    33   25   26 1   
    34   26   27 1   
    35   27   40 1   
    36   27   41 1   
    37   27   42 1   
@<TRIPOS>SUBSTRUCTURE
     1 HK9         1 TEMP              0 ****  ****    0 ROOT
