@<TRIPOS>MOLECULE
HK9
   42    45     1     0     0
SMALL
bcc


@<TRIPOS>ATOM
      1 O4         -0.0790   -0.1790    0.3650 o         1 HK9     -0.645500
      2 C14         1.1650   -0.1900    0.2370 c         1 HK9      0.716100
      3 N2          1.8950   -0.1790    1.4260 n         1 HK9     -0.477100
      4 C13         3.2760    0.0130    1.5740 ca        1 HK9      0.039600
      5 C18         3.7590    0.8240    2.6240 ca        1 HK9     -0.172000
      6 C19         5.1250    0.9910    2.8160 ca        1 HK9     -0.109000
      7 C20         6.0380    0.3660    1.9690 ca        1 HK9     -0.155000
      8 C21         5.5870   -0.4420    0.9300 ca        1 HK9     -0.074000
      9 C12         4.2120   -0.6460    0.7240 ca        1 HK9      0.056600
     10 N1          3.7990   -1.5170   -0.3340 na        1 HK9     -0.582000
     11 C15         1.8130   -0.2060   -1.0920 ca        1 HK9     -0.191600
     12 C11         3.0520   -0.8350   -1.3510 ca        1 HK9      0.111600
     13 C10         3.5770   -0.8090   -2.6540 ca        1 HK9     -0.117000
     14 C16         1.1230    0.4150   -2.1410 ca        1 HK9     -0.071000
     15 C17         1.6520    0.4370   -3.4250 ca        1 HK9     -0.146000
     16 C9          2.8860   -0.1740   -3.6970 cp        1 HK9      0.043000
     17 C4          3.4460   -0.1510   -5.0440 cp        1 HK9     -0.099000
     18 C3          3.2850    0.9780   -5.8570 ca        1 HK9     -0.135000
     19 C5          4.1500   -1.2560   -5.5460 ca        1 HK9     -0.133000
     20 C6          4.6800   -1.2240   -6.8310 ca        1 HK9     -0.115000
     21 C7          4.5350   -0.1030   -7.6590 ca        1 HK9     -0.095600
     22 C8          5.1610   -0.1710   -9.0500 c         1 HK9      0.916200
     23 O3          6.4140   -0.0910   -9.1280 o         1 HK9     -0.816800
     24 O2          4.3870   -0.3480  -10.0330 o         1 HK9     -0.816800
     25 C2          3.8330    1.0000   -7.1490 ca        1 HK9      0.103100
     26 O1          3.7270    2.2150   -7.8180 os        1 HK9     -0.352900
     27 C1          2.9020    2.1760   -8.9820 c3        1 HK9      0.099700
     28 H9          1.3510   -0.0330    2.2520 hn        1 HK9      0.317500
     29 H12         3.0530    1.3330    3.2980 ha        1 HK9      0.131000
     30 H13         5.4840    1.6290    3.6370 ha        1 HK9      0.129000
     31 H14         7.1170    0.5110    2.1170 ha        1 HK9      0.134000
     32 H15         6.3140   -0.9320    0.2610 ha        1 HK9      0.153000
     33 H8          3.2450   -2.2690    0.0430 hn        1 HK9      0.380800
     34 H7          4.5480   -1.2870   -2.8640 ha        1 HK9      0.159000
     35 H10         0.1450    0.8800   -1.9340 ha        1 HK9      0.147000
     36 H11         1.0980    0.9280   -4.2400 ha        1 HK9      0.148000
     37 H4          2.7560    1.8660   -5.4840 ha        1 HK9      0.126000
     38 H5          4.2740   -2.1530   -4.9240 ha        1 HK9      0.115000
     39 H6          5.2410   -2.0890   -7.2180 ha        1 HK9      0.141000
     40 H3          1.8290    2.1100   -8.6720 h1        1 HK9      0.046033
     41 H2          3.1780    1.3200   -9.6500 h1        1 HK9      0.046033
     42 H1          3.1030    3.1560   -9.4810 h1        1 HK9      0.046033
@<TRIPOS>BOND
     1    1    2 2   
     2    2    3 1   
     3    2   11 1   
     4    3    4 1   
     5    3   28 1   
     6    4    5 ar  
     7    4    9 ar  
     8    5    6 ar  
     9    5   29 1   
    10    6    7 ar  
    11    6   30 1   
    12    7    8 ar  
    13    7   31 1   
    14    8    9 ar  
    15    8   32 1   
    16    9   10 1   
    17   10   12 1   
    18   10   33 1   
    19   11   12 ar  
    20   11   14 ar  
    21   12   13 ar  
    22   13   16 ar  
    23   13   34 1   
    24   14   15 ar  
    25   14   35 1   
    26   15   16 ar  
    27   15   36 1   
    28   16   17 1   
    29   17   18 ar  
    30   17   19 ar  
    31   18   25 ar  
    32   18   37 1   
    33   19   20 ar  
    34   19   38 1   
    35   20   21 ar  
    36   20   39 1   
    37   21   22 1   
    38   21   25 ar  
    39   22   23 1   
    40   22   24 1   
    41   25   26 1   
    42   26   27 1   
    43   27   40 1   
    44   27   41 1   
    45   27   42 1   
@<TRIPOS>SUBSTRUCTURE
     1 HK9         1 TEMP              0 ****  ****    0 ROOT
