@<TRIPOS>MOLECULE
HKA
   29    24     1     0     0
SMALL
bcc


@<TRIPOS>ATOM
      1 CAL         0.8540    0.5430   -1.3920 c1        1 HKA      0.050000
      2 CAJ         2.2430    0.5750   -1.3360 c1        1 HKA     -0.174000
      3 CAP         2.8880    0.6200   -0.1060 c1        1 HKA     -0.069000
      4 CAI         2.1470    0.6320    1.0660 c1        1 HKA     -0.140250
      5 CAK         0.7590    0.5990    1.0110 c1        1 HKA     -0.140250
      6 CAR         0.1120    0.5550   -0.2190 c1        1 HKA     -0.036000
      7 CAO         4.3990    0.6450   -0.0460 c1        1 HKA      0.357000
      8 OAN        -1.3030    0.6230   -0.2780 os        1 HKA     -0.147000
      9 OAB         5.0460   -0.4300   -0.0810 os        1 HKA     -0.562000
     10 OAA         5.0050    1.7390    0.0910 o         1 HKA     -0.556000
     11 CAM         0.2880    1.7360   -3.3550 c3        1 HKA     -0.073000
     12 CAG        -2.4120    0.0050    1.7850 c1        1 HKA     -0.170000
     13 CAE        -3.0710   -0.9410    2.5630 c1        1 HKA     -0.140250
     14 C2         -1.8580   -0.3630    0.5690 c2        1 HKA      0.102000
     15 CAD        -3.1730   -2.2510    2.1230 c1        1 HKA     -0.140250
     16 CAF        -2.6180   -2.6190    0.9060 c1        1 HKA     -0.101000
     17 OAL         0.1990    0.5200   -2.6400 os        1 HKA     -0.213000
     18 CAH        -1.9610   -1.6750    0.1290 c2        1 HKA     -0.186000
     19 HAJ         2.7640    0.5670   -2.1600 ha        1 HKA      0.165000
     20 HAI         2.6030    0.6560    1.9350 ha        1 HKA      0.130000
     21 HAK         0.2370    0.6610    1.8340 ha        1 HKA      0.130000
     22 HAM1        0.1920    2.4900   -2.7320 h1        1 HKA      0.077000
     23 HAM2       -0.4270    1.7740   -4.0280 h1        1 HKA      0.077000
     24 HAM3        1.1620    1.7900   -3.8020 h1        1 HKA      0.077000
     25 HAH        -1.8630   -2.2250   -0.6780 ha        1 HKA      0.159000
     26 HAF        -2.7150   -3.5700    0.6910 ha        1 HKA      0.123000
     27 HAD        -3.6350   -2.9150    2.6690 ha        1 HKA      0.130000
     28 HAG        -2.3710    0.9370    2.0790 ha        1 HKA      0.140000
     29 HAE        -3.4900   -0.6750    3.4030 ha        1 HKA      0.130000
@<TRIPOS>BOND
     1    1    6 1   
     2    1   17 1   
     3    2    3 1   
     4    2   19 1   
     5    3    7 1   
     6    4    5 1   
     7    4   20 1   
     8    5   21 1   
     9    6    8 1   
    10    7   10 1   
    11    8   14 1   
    12   11   17 1   
    13   11   22 1   
    14   11   23 1   
    15   11   24 1   
    16   12   14 1   
    17   12   28 1   
    18   13   15 1   
    19   13   29 1   
    20   14   18 1   
    21   15   27 1   
    22   16   18 1   
    23   16   26 1   
    24   18   25 1   
@<TRIPOS>SUBSTRUCTURE
     1 HKA         1 TEMP              0 ****  ****    0 ROOT
