@<TRIPOS>MOLECULE
HKA
   29    30     1     0     0
SMALL
bcc


@<TRIPOS>ATOM
      1 CAL         0.0700   -0.3020    0.5110 ca        1 HKA      0.095100
      2 CAJ         1.3310    0.2230    0.2040 ca        1 HKA     -0.174000
      3 CAP         2.3370    0.2440    1.1710 ca        1 HKA     -0.089600
      4 CAI         2.0860   -0.2670    2.4500 ca        1 HKA     -0.132000
      5 CAK         0.8390   -0.7920    2.7710 ca        1 HKA     -0.134000
      6 CAR        -0.1730   -0.8140    1.8020 ca        1 HKA      0.009100
      7 CAO         3.7040    0.8290    0.8280 c         1 HKA      0.908200
      8 OAN        -1.3780   -1.4660    2.0810 os        1 HKA     -0.237200
      9 OAB         4.5830    0.8390    1.7340 o         1 HKA     -0.824300
     10 OAA         3.8750    1.2710   -0.3420 o         1 HKA     -0.824300
     11 CAM        -0.7180    0.1240   -1.6860 c3        1 HKA      0.116700
     12 CAG        -2.2070    0.6430    3.0490 ca        1 HKA     -0.178000
     13 CAE        -3.2670    1.3060    3.6610 ca        1 HKA     -0.106000
     14 C2         -2.3620   -0.7010    2.6820 ca        1 HKA      0.147100
     15 CAD        -4.4700    0.6450    3.9080 ca        1 HKA     -0.184000
     16 CAF        -4.6170   -0.6920    3.5370 ca        1 HKA     -0.106000
     17 OAL        -0.9910   -0.3610   -0.3770 os        1 HKA     -0.329900
     18 CAH        -3.5730   -1.3760    2.9240 ca        1 HKA     -0.178000
     19 HAJ         1.5690    0.6300   -0.7920 ha        1 HKA      0.165000
     20 HAI         2.9010   -0.2390    3.1910 ha        1 HKA      0.159000
     21 HAK         0.6320   -1.1980    3.7700 ha        1 HKA      0.126000
     22 HAM1       -1.6830   -0.0310   -2.2300 h1        1 HKA      0.037700
     23 HAM2        0.1030   -0.4650   -2.1630 h1        1 HKA      0.037700
     24 HAM3       -0.4500    1.2080   -1.6580 h1        1 HKA      0.037700
     25 HAH        -3.6750   -2.4270    2.6230 ha        1 HKA      0.149500
     26 HAF        -5.5670   -1.2130    3.7290 ha        1 HKA      0.120000
     27 HAD        -5.3010    1.1760    4.3910 ha        1 HKA      0.118000
     28 HAG        -1.2560    1.1590    2.8490 ha        1 HKA      0.149500
     29 HAE        -3.1500    2.3610    3.9500 ha        1 HKA      0.120000
@<TRIPOS>BOND
     1    1    2 ar  
     2    1    6 ar  
     3    1   17 1   
     4    2    3 ar  
     5    2   19 1   
     6    3    4 ar  
     7    3    7 1   
     8    4    5 ar  
     9    4   20 1   
    10    5    6 ar  
    11    5   21 1   
    12    6    8 1   
    13    7    9 1   
    14    7   10 1   
    15    8   14 1   
    16   11   17 1   
    17   11   22 1   
    18   11   23 1   
    19   11   24 1   
    20   12   13 ar  
    21   12   14 ar  
    22   12   28 1   
    23   13   15 ar  
    24   13   29 1   
    25   14   18 ar  
    26   15   16 ar  
    27   15   27 1   
    28   16   18 ar  
    29   16   26 1   
    30   18   25 1   
@<TRIPOS>SUBSTRUCTURE
     1 HKA         1 TEMP              0 ****  ****    0 ROOT
