@<TRIPOS>MOLECULE
HKA
   29    30     1     0     0
SMALL
bcc


@<TRIPOS>ATOM
      1 CAL         0.0790   -0.2970    0.5160 ca        1 HKA      0.095100
      2 CAJ         1.3430    0.2290    0.2220 ca        1 HKA     -0.174000
      3 CAP         2.3410    0.2440    1.1970 ca        1 HKA     -0.089600
      4 CAI         2.0790   -0.2740    2.4720 ca        1 HKA     -0.132000
      5 CAK         0.8290   -0.8000    2.7780 ca        1 HKA     -0.134000
      6 CAR        -0.1750   -0.8150    1.8010 ca        1 HKA      0.009100
      7 CAO         3.7110    0.8290    0.8690 c         1 HKA      0.908200
      8 OAN        -1.3830   -1.4670    2.0660 os        1 HKA     -0.237200
      9 OAB         4.5820    0.8330    1.7820 o         1 HKA     -0.824300
     10 OAA         3.8930    1.2780   -0.2980 o         1 HKA     -0.824300
     11 CAM        -0.6900    0.1430   -1.6850 c3        1 HKA      0.116700
     12 CAG        -2.2170    0.6360    3.0420 ca        1 HKA     -0.178000
     13 CAE        -3.2810    1.2970    3.6490 ca        1 HKA     -0.106000
     14 C2         -2.3710   -0.7050    2.6640 ca        1 HKA      0.147100
     15 CAD        -4.4870    0.6360    3.8820 ca        1 HKA     -0.184000
     16 CAF        -4.6330   -0.6990    3.5010 ca        1 HKA     -0.106000
     17 OAL        -0.9750   -0.3480   -0.3820 os        1 HKA     -0.329900
     18 CAH        -3.5850   -1.3800    2.8920 ca        1 HKA     -0.178000
     19 HAJ         1.5890    0.6420   -0.7700 ha        1 HKA      0.165000
     20 HAI         2.8880   -0.2510    3.2190 ha        1 HKA      0.159000
     21 HAK         0.6140   -1.2120    3.7740 ha        1 HKA      0.126000
     22 HAM1       -1.6510   -0.0080   -2.2390 h1        1 HKA      0.037700
     23 HAM2        0.1340   -0.4440   -2.1590 h1        1 HKA      0.037700
     24 HAM3       -0.4220    1.2270   -1.6500 h1        1 HKA      0.037700
     25 HAH        -3.6860   -2.4290    2.5840 ha        1 HKA      0.149500
     26 HAF        -5.5850   -1.2190    3.6830 ha        1 HKA      0.120500
     27 HAD        -5.3210    1.1650    4.3620 ha        1 HKA      0.118000
     28 HAG        -1.2640    1.1530    2.8520 ha        1 HKA      0.149500
     29 HAE        -3.1660    2.3500    3.9460 ha        1 HKA      0.120500
@<TRIPOS>BOND
     1    1    2 ar  
     2    1    6 ar  
     3    1   17 1   
     4    2    3 ar  
     5    2   19 1   
     6    3    4 ar  
     7    3    7 1   
     8    4    5 ar  
     9    4   20 1   
    10    5    6 ar  
    11    5   21 1   
    12    6    8 1   
    13    7    9 1   
    14    7   10 1   
    15    8   14 1   
    16   11   17 1   
    17   11   22 1   
    18   11   23 1   
    19   11   24 1   
    20   12   13 ar  
    21   12   14 ar  
    22   12   28 1   
    23   13   15 ar  
    24   13   29 1   
    25   14   18 ar  
    26   15   16 ar  
    27   15   27 1   
    28   16   18 ar  
    29   16   26 1   
    30   18   25 1   
@<TRIPOS>SUBSTRUCTURE
     1 HKA         1 TEMP              0 ****  ****    0 ROOT
