@<TRIPOS>MOLECULE
HKA
   29    30     1     0     0
SMALL
bcc


@<TRIPOS>ATOM
      1 CAL        -0.8220   -0.8400   -0.2870 ca        1 HKA      0.095100
      2 CAJ        -2.0820   -0.5330    0.2420 ca        1 HKA     -0.174000
      3 CAP        -2.5420    0.7850    0.2370 ca        1 HKA     -0.089600
      4 CAI        -1.7440    1.8010   -0.3030 ca        1 HKA     -0.132000
      5 CAK        -0.4920    1.5110   -0.8320 ca        1 HKA     -0.134000
      6 CAR        -0.0260    0.1900   -0.8280 ca        1 HKA      0.009100
      7 CAO        -3.9120    1.1100    0.8250 c         1 HKA      0.908200
      8 OAN         1.1690   -0.1200   -1.4830 os        1 HKA     -0.237200
      9 OAB        -4.2870    2.3150    0.8110 o         1 HKA     -0.824300
     10 OAA        -4.5900    0.1530    1.2940 o         1 HKA     -0.824300
     11 CAM        -1.1080   -3.1460    0.1940 c3        1 HKA      0.116700
     12 CAG         2.3630    0.4160    0.6060 ca        1 HKA     -0.178000
     13 CAE         3.5910    0.4970    1.2580 ca        1 HKA     -0.106000
     14 C2          2.3250   -0.0120   -0.7290 ca        1 HKA      0.147100
     15 CAD         4.7700    0.1590    0.5950 ca        1 HKA     -0.184000
     16 CAF         4.7230   -0.2680   -0.7330 ca        1 HKA     -0.106000
     17 OAL        -0.2770   -2.1130   -0.3210 os        1 HKA     -0.329900
     18 CAH         3.5100   -0.3580   -1.4060 ca        1 HKA     -0.178000
     19 HAJ        -2.7400   -1.3040    0.6720 ha        1 HKA      0.165000
     20 HAI        -2.1370    2.8300   -0.2950 ha        1 HKA      0.159000
     21 HAK         0.1410    2.3000   -1.2620 ha        1 HKA      0.126000
     22 HAM1       -2.0610   -3.2140   -0.3860 h1        1 HKA      0.037700
     23 HAM2       -0.4940   -4.0700    0.0550 h1        1 HKA      0.037700
     24 HAM3       -1.3260   -2.9750    1.2770 h1        1 HKA      0.037700
     25 HAH         3.4570   -0.6960   -2.4490 ha        1 HKA      0.149500
     26 HAF         5.6530   -0.5370   -1.2550 ha        1 HKA      0.120000
     27 HAD         5.7340    0.2270    1.1170 ha        1 HKA      0.118000
     28 HAG         1.4280    0.6780    1.1230 ha        1 HKA      0.149500
     29 HAE         3.6250    0.8320    2.3050 ha        1 HKA      0.120000
@<TRIPOS>BOND
     1    1    2 ar  
     2    1    6 ar  
     3    1   17 1   
     4    2    3 ar  
     5    2   19 1   
     6    3    4 ar  
     7    3    7 1   
     8    4    5 ar  
     9    4   20 1   
    10    5    6 ar  
    11    5   21 1   
    12    6    8 1   
    13    7    9 1   
    14    7   10 1   
    15    8   14 1   
    16   11   17 1   
    17   11   22 1   
    18   11   23 1   
    19   11   24 1   
    20   12   13 ar  
    21   12   14 ar  
    22   12   28 1   
    23   13   15 ar  
    24   13   29 1   
    25   14   18 ar  
    26   15   16 ar  
    27   15   27 1   
    28   16   18 ar  
    29   16   26 1   
    30   18   25 1   
@<TRIPOS>SUBSTRUCTURE
     1 HKA         1 TEMP              0 ****  ****    0 ROOT
