@<TRIPOS>MOLECULE
HKC
   43    47     1     0     0
SMALL
bcc


@<TRIPOS>ATOM
      1 C19         0.0550    0.1330   -0.1370 c3        1 HKC      0.109700
      2 O2          1.4700    0.0180   -0.0440 os        1 HKC     -0.301900
      3 C18         1.9950    0.0010    1.2330 ca        1 HKC      0.100100
      4 C2          3.4100   -0.1070    1.2980 ca        1 HKC      0.110100
      5 O1          4.0450   -0.1800    0.0750 os        1 HKC     -0.300900
      6 C1          5.4640   -0.2800    0.1120 c3        1 HKC      0.109700
      7 C17         1.2310    0.0820    2.4040 ca        1 HKC     -0.152000
      8 C16         1.8910    0.0530    3.6230 ca        1 HKC     -0.022000
      9 C4          3.3150   -0.0560    3.6930 ca        1 HKC     -0.075300
     10 C3          4.0690   -0.1360    2.5350 ca        1 HKC     -0.163000
     11 C7          1.4210    0.1160    4.9890 cc        1 HKC     -0.080300
     12 N1          0.2790    0.2240    5.7530 na        1 HKC      0.040400
     13 N2          0.5650    0.2290    7.0540 nc        1 HKC     -0.516800
     14 C8          1.9380    0.1230    7.2010 cd        1 HKC      0.384800
     15 C6          2.5320    0.0460    5.9000 cd        1 HKC     -0.252600
     16 C5          3.7990   -0.0680    5.1290 c3        1 HKC      0.048200
     17 C9          2.6160    0.0990    8.4840 ca        1 HKC     -0.078500
     18 C15         1.9170    0.2850    9.6860 ca        1 HKC     -0.118000
     19 C14         2.5880    0.2570   10.9060 ca        1 HKC     -0.097500
     20 C12         3.9720    0.0390   10.9450 ca        1 HKC     -0.144500
     21 C11         4.6770   -0.1410    9.7460 ca        1 HKC     -0.097500
     22 C10         4.0040   -0.1120    8.5300 ca        1 HKC     -0.118000
     23 C13         4.6550    0.0110   12.2260 cc        1 HKC      0.457000
     24 N6          5.9120   -0.5810   12.4840 na        1 HKC     -0.184400
     25 N5          6.1980   -0.4040   13.7810 nc        1 HKC     -0.196800
     26 N4          5.2220    0.2390   14.3100 nd        1 HKC     -0.047000
     27 N3          4.2590    0.5230   13.4380 nd        1 HKC     -0.372000
     28 H191       -0.1310    0.1280   -1.2410 h1        1 HKC      0.045033
     29 H192       -0.2960    1.0910    0.3180 h1        1 HKC      0.045033
     30 H193       -0.4460   -0.7390    0.3500 h1        1 HKC      0.045033
     31 H13         5.9130    0.6170    0.6030 h1        1 HKC      0.045700
     32 H11         5.7820   -1.2140    0.6350 h1        1 HKC      0.045700
     33 H12         5.7460   -0.3200   -0.9710 h1        1 HKC      0.045700
     34 H8          0.1370    0.1670    2.3600 ha        1 HKC      0.143000
     35 H1          5.1630   -0.2200    2.5900 ha        1 HKC      0.146000
     36 H9         -0.6640    0.2910    5.4460 hn        1 HKC      0.329700
     37 H2          4.3420   -1.0210    5.3560 hc        1 HKC      0.074200
     38 H3          4.4860    0.7940    5.3260 hc        1 HKC      0.074200
     39 H7          0.8290    0.4580    9.6760 ha        1 HKC      0.149500
     40 H6          2.0260    0.4090   11.8420 ha        1 HKC      0.144500
     41 H5          5.7660   -0.2950    9.7510 ha        1 HKC      0.144500
     42 H4          4.5640   -0.2540    7.5920 ha        1 HKC      0.149500
     43 H10         6.5140   -1.0630   11.8600 hn        1 HKC      0.332700
@<TRIPOS>BOND
     1    1    2 1   
     2    1   28 1   
     3    1   29 1   
     4    1   30 1   
     5    2    3 1   
     6    3    4 ar  
     7    3    7 ar  
     8    4    5 1   
     9    4   10 ar  
    10    5    6 1   
    11    6   31 1   
    12    6   32 1   
    13    6   33 1   
    14    7    8 ar  
    15    7   34 1   
    16    8    9 ar  
    17    8   11 1   
    18    9   10 ar  
    19    9   16 1   
    20   10   35 1   
    21   11   12 1   
    22   11   15 2   
    23   12   13 1   
    24   12   36 1   
    25   13   14 2   
    26   14   15 1   
    27   14   17 1   
    28   15   16 1   
    29   16   37 1   
    30   16   38 1   
    31   17   18 ar  
    32   17   22 ar  
    33   18   19 ar  
    34   18   39 1   
    35   19   20 ar  
    36   19   40 1   
    37   20   21 ar  
    38   20   23 1   
    39   21   22 ar  
    40   21   41 1   
    41   22   42 1   
    42   23   24 1   
    43   23   27 2   
    44   24   25 1   
    45   24   43 1   
    46   25   26 2   
    47   26   27 1   
@<TRIPOS>SUBSTRUCTURE
     1 HKC         1 TEMP              0 ****  ****    0 ROOT
