@<TRIPOS>MOLECULE
HKC
   43    47     1     0     0
SMALL
bcc


@<TRIPOS>ATOM
      1 C19         0.0540    0.1390   -0.1360 c3        1 HKC      0.109700
      2 O2          1.4680    0.0160   -0.0440 os        1 HKC     -0.301900
      3 C18         1.9930   -0.0010    1.2330 ca        1 HKC      0.100100
      4 C2          3.4080   -0.1180    1.2980 ca        1 HKC      0.110100
      5 O1          4.0410   -0.1970    0.0750 os        1 HKC     -0.300900
      6 C1          5.4600   -0.3050    0.1110 c3        1 HKC      0.109700
      7 C17         1.2300    0.0870    2.4040 ca        1 HKC     -0.152000
      8 C16         1.8910    0.0560    3.6230 ca        1 HKC     -0.022000
      9 C4          3.3140   -0.0620    3.6930 ca        1 HKC     -0.075300
     10 C3          4.0670   -0.1480    2.5350 ca        1 HKC     -0.163000
     11 C7          1.4220    0.1240    4.9900 cc        1 HKC     -0.080300
     12 N1          0.2800    0.2410    5.7540 na        1 HKC      0.040400
     13 N2          0.5670    0.2470    7.0540 nc        1 HKC     -0.516800
     14 C8          1.9400    0.1330    7.2010 cd        1 HKC      0.384800
     15 C6          2.5330    0.0500    5.9000 cd        1 HKC     -0.252600
     16 C5          3.7980   -0.0740    5.1290 c3        1 HKC      0.048200
     17 C9          2.6190    0.1070    8.4840 ca        1 HKC     -0.078500
     18 C15         1.9220    0.3070    9.6850 ca        1 HKC     -0.118000
     19 C14         2.5930    0.2770   10.9050 ca        1 HKC     -0.097500
     20 C12         3.9750    0.0450   10.9440 ca        1 HKC     -0.144500
     21 C11         4.6770   -0.1490    9.7460 ca        1 HKC     -0.097500
     22 C10         4.0040   -0.1180    8.5300 ca        1 HKC     -0.118000
     23 C13         4.6590    0.0160   12.2250 cc        1 HKC      0.457000
     24 N6          5.9080   -0.5900   12.4850 na        1 HKC     -0.184400
     25 N5          6.1980   -0.4100   13.7810 nc        1 HKC     -0.196800
     26 N4          5.2290    0.2480   14.3070 nd        1 HKC     -0.047000
     27 N3          4.2690    0.5380   13.4340 nd        1 HKC     -0.372000
     28 H191       -0.2910    1.1010    0.3170 h1        1 HKC      0.045033
     29 H192       -0.4530   -0.7290    0.3530 h1        1 HKC      0.045033
     30 H193       -0.1330    0.1340   -1.2400 h1        1 HKC      0.045033
     31 H13         5.7730   -1.2400    0.6370 h1        1 HKC      0.045700
     32 H11         5.7410   -0.3480   -0.9720 h1        1 HKC      0.045700
     33 H12         5.9140    0.5910    0.6010 h1        1 HKC      0.045700
     34 H8          0.1370    0.1780    2.3610 ha        1 HKC      0.143000
     35 H1          5.1610   -0.2390    2.5890 ha        1 HKC      0.146000
     36 H9         -0.6620    0.3130    5.4470 hn        1 HKC      0.329700
     37 H2          4.4910    0.7840    5.3240 hc        1 HKC      0.074200
     38 H3          4.3350   -1.0300    5.3580 hc        1 HKC      0.074200
     39 H7          0.8360    0.4910    9.6760 ha        1 HKC      0.149500
     40 H6          2.0330    0.4390   11.8410 ha        1 HKC      0.144500
     41 H5          5.7650   -0.3140    9.7500 ha        1 HKC      0.144500
     42 H4          4.5620   -0.2690    7.5930 ha        1 HKC      0.149500
     43 H10         6.5040   -1.0830   11.8630 hn        1 HKC      0.332700
@<TRIPOS>BOND
     1    1    2 1   
     2    1   28 1   
     3    1   29 1   
     4    1   30 1   
     5    2    3 1   
     6    3    4 ar  
     7    3    7 ar  
     8    4    5 1   
     9    4   10 ar  
    10    5    6 1   
    11    6   31 1   
    12    6   32 1   
    13    6   33 1   
    14    7    8 ar  
    15    7   34 1   
    16    8    9 ar  
    17    8   11 1   
    18    9   10 ar  
    19    9   16 1   
    20   10   35 1   
    21   11   12 1   
    22   11   15 2   
    23   12   13 1   
    24   12   36 1   
    25   13   14 2   
    26   14   15 1   
    27   14   17 1   
    28   15   16 1   
    29   16   37 1   
    30   16   38 1   
    31   17   18 ar  
    32   17   22 ar  
    33   18   19 ar  
    34   18   39 1   
    35   19   20 ar  
    36   19   40 1   
    37   20   21 ar  
    38   20   23 1   
    39   21   22 ar  
    40   21   41 1   
    41   22   42 1   
    42   23   24 1   
    43   23   27 2   
    44   24   25 1   
    45   24   43 1   
    46   25   26 2   
    47   26   27 1   
@<TRIPOS>SUBSTRUCTURE
     1 HKC         1 TEMP              0 ****  ****    0 ROOT
