@<TRIPOS>MOLECULE
HKC
   43    39     1     0     0
SMALL
bcc


@<TRIPOS>ATOM
      1 C19         2.0730   -0.4570   -6.1100 c3        1 HKC     -0.078000
      2 O2          1.8430    0.7310   -5.3740 os        1 HKC     -0.205000
      3 C18         2.1480    0.6210   -3.9980 c2        1 HKC      0.053000
      4 C2          2.8430    1.7230   -3.4840 c1        1 HKC      0.037000
      5 O1          3.6300    2.6610   -4.1950 o         1 HKC     -0.213000
      6 C1          4.9830    2.2720   -4.3530 c3        1 HKC     -0.074000
      7 C17         1.1910   -0.0290   -3.2150 c2        1 HKC     -0.166000
      8 C16         0.9260    0.4220   -1.9150 c1        1 HKC      0.002000
      9 C4          1.6190    1.5210   -1.4020 c2        1 HKC     -0.089000
     10 C3          2.5800    2.1720   -2.1890 c2        1 HKC     -0.097000
     11 C7          0.0020   -0.0900   -0.8420 c1        1 HKC     -0.059500
     12 N1         -0.9010   -1.0640   -0.5420 n2        1 HKC     -0.094000
     13 N2         -1.3120   -0.8790    0.7750 n2        1 HKC     -0.094000
     14 C8         -0.6570    0.2100    1.2750 c1        1 HKC     -0.059500
     15 C6          0.1610    0.7080    0.2830 c1        1 HKC     -0.169000
     16 C5          1.1590    1.7420   -0.0330 c2        1 HKC     -0.046000
     17 C9         -1.4730   -0.2230    2.4990 c1        1 HKC      0.028000
     18 C15        -2.7930    0.1950    2.6360 c2        1 HKC     -0.125000
     19 C14        -3.5660   -0.2760    3.6920 c1        1 HKC     -0.080000
     20 C12        -3.0190   -1.1650    4.6120 c1        1 HKC     -0.036000
     21 C11        -1.6990   -1.5830    4.4750 c1        1 HKC     -0.115000
     22 C10        -0.9270   -1.1120    3.4190 c1        1 HKC     -0.110000
     23 C13        -3.8890   -1.7470    5.7150 c2        1 HKC     -0.003000
     24 N6         -4.6050   -2.8850    5.6400 nc        1 HKC     -0.163000
     25 N5         -5.2250   -3.0640    6.8210 nc        1 HKC     -0.036500
     26 N4         -4.8940   -2.0380    7.6240 nc        1 HKC     -0.036500
     27 N3         -4.0670   -1.2240    6.9400 nc        1 HKC     -0.163000
     28 H191        1.8890   -1.2360   -5.5400 h1        1 HKC      0.085667
     29 H192        3.0090   -0.4830   -6.4070 h1        1 HKC      0.085667
     30 H193        1.4800   -0.4780   -6.8930 h1        1 HKC      0.085667
     31 H13         5.2870    1.8040   -3.5440 h1        1 HKC      0.084333
     32 H11         5.0630    1.6720   -5.1270 h1        1 HKC      0.084333
     33 H12         5.5380    3.0690   -4.4980 h1        1 HKC      0.084333
     34 H8          0.7050   -0.8000   -3.5750 ha        1 HKC      0.141000
     35 H1          3.0670    2.9450   -1.8290 ha        1 HKC      0.156000
     36 H9         -1.1890   -1.7250   -1.1070 DU        1 HKC      0.281500
     37 H2          0.7500    2.6330    0.0400 ha        1 HKC      0.116500
     38 H3          1.9180    1.6730    0.5870 ha        1 HKC      0.116500
     39 H7         -3.1790    0.8230    1.9880 ha        1 HKC      0.144000
     40 H6         -4.4970    0.0190    3.7890 ha        1 HKC      0.161000
     41 H5         -1.3130   -2.2110    5.1240 ha        1 HKC      0.128000
     42 H4          0.0040   -1.4070    3.3230 ha        1 HKC      0.156000
     43 H10        -4.6590   -3.4390    4.9140 DU        1 HKC      0.281500
@<TRIPOS>BOND
     1    1    2 1   
     2    1   28 1   
     3    1   29 1   
     4    1   30 1   
     5    2    3 1   
     6    3    4 1   
     7    3    7 1   
     8    4   10 1   
     9    5    6 1   
    10    6   31 1   
    11    6   32 1   
    12    6   33 1   
    13    7    8 1   
    14    7   34 1   
    15    8    9 1   
    16    9   10 1   
    17    9   16 1   
    18   10   35 1   
    19   11   12 1   
    20   11   15 1   
    21   12   13 1   
    22   13   14 1   
    23   14   15 1   
    24   16   37 1   
    25   16   38 1   
    26   17   18 1   
    27   17   22 1   
    28   18   19 1   
    29   18   39 1   
    30   19   40 1   
    31   20   21 1   
    32   20   23 1   
    33   21   41 1   
    34   22   42 1   
    35   23   24 1   
    36   23   27 1   
    37   24   25 1   
    38   25   26 1   
    39   26   27 1   
@<TRIPOS>SUBSTRUCTURE
     1 HKC         1 TEMP              0 ****  ****    0 ROOT
