@<TRIPOS>MOLECULE
HKC
   43    47     1     0     0
SMALL
bcc


@<TRIPOS>ATOM
      1 C19         6.9950    1.7360    0.0230 c3        1 HKC      0.109700
      2 O2          6.6300    0.3610    0.0060 os        1 HKC     -0.301900
      3 C18         5.2750    0.0940    0.0040 ca        1 HKC      0.100100
      4 C2          4.9360   -1.2860   -0.0060 ca        1 HKC      0.110100
      5 O1          6.0120   -2.1490   -0.0130 os        1 HKC     -0.300900
      6 C1          5.7000   -3.5380   -0.0140 c3        1 HKC      0.109700
      7 C17         4.2750    1.0750    0.0110 ca        1 HKC     -0.152000
      8 C16         2.9510    0.6620    0.0080 ca        1 HKC     -0.022000
      9 C4          2.6050   -0.7250   -0.0030 ca        1 HKC     -0.075300
     10 C3          3.5940   -1.6930   -0.0100 ca        1 HKC     -0.163000
     11 C7          1.7010    1.3910    0.0140 cc        1 HKC     -0.080300
     12 N1          1.1740    2.6650    0.0280 na        1 HKC      0.040400
     13 N2         -0.1580    2.6380    0.0300 nc        1 HKC     -0.516800
     14 C8         -0.5690    1.3150    0.0180 cd        1 HKC      0.384800
     15 C6          0.5930    0.4760    0.0060 cd        1 HKC     -0.252600
     16 C5          1.1020   -0.9210   -0.0060 c3        1 HKC      0.048200
     17 C9         -1.9590    0.8980    0.0200 ca        1 HKC     -0.078500
     18 C15        -3.0020    1.8290    0.1360 ca        1 HKC     -0.118000
     19 C14        -4.3300    1.4070    0.1340 ca        1 HKC     -0.097500
     20 C12        -4.6360    0.0440    0.0130 ca        1 HKC     -0.144500
     21 C11        -3.5970   -0.8910   -0.0970 ca        1 HKC     -0.097500
     22 C10        -2.2740   -0.4660   -0.0940 ca        1 HKC     -0.118000
     23 C13        -6.0260   -0.3780    0.0110 cc        1 HKC      0.457000
     24 N6         -6.5210   -1.6000   -0.4960 na        1 HKC     -0.184400
     25 N5         -7.8500   -1.6160   -0.3220 nc        1 HKC     -0.196800
     26 N4         -8.1810   -0.5120    0.2420 nd        1 HKC     -0.047000
     27 N3         -7.1390    0.2820    0.4730 nd        1 HKC     -0.372000
     28 H191        6.6180    2.2580   -0.8900 h1        1 HKC      0.045033
     29 H192        6.6150    2.2360    0.9470 h1        1 HKC      0.045033
     30 H193        8.1140    1.7030    0.0250 h1        1 HKC      0.045033
     31 H13         5.1280   -3.8170    0.9040 h1        1 HKC      0.045700
     32 H11         5.1280   -3.8140   -0.9330 h1        1 HKC      0.045700
     33 H12         6.7080   -4.0260   -0.0150 h1        1 HKC      0.045700
     34 H8          4.5300    2.1420    0.0200 ha        1 HKC      0.143000
     35 H1          3.3280   -2.7590   -0.0180 ha        1 HKC      0.146000
     36 H9          1.6590    3.5330    0.0350 hn        1 HKC      0.329700
     37 H2          0.7770   -1.4770   -0.9220 hc        1 HKC      0.074200
     38 H3          0.7730   -1.4930    0.8990 hc        1 HKC      0.074200
     39 H7         -2.7820    2.9040    0.2320 ha        1 HKC      0.149500
     40 H6         -5.1390    2.1490    0.2300 ha        1 HKC      0.144500
     41 H5         -3.8130   -1.9660   -0.1730 ha        1 HKC      0.144500
     42 H4         -1.4620   -1.2060   -0.1790 ha        1 HKC      0.149500
     43 H10        -6.0240   -2.3450   -0.9240 hn        1 HKC      0.332700
@<TRIPOS>BOND
     1    1    2 1   
     2    1   28 1   
     3    1   29 1   
     4    1   30 1   
     5    2    3 1   
     6    3    4 ar  
     7    3    7 ar  
     8    4    5 1   
     9    4   10 ar  
    10    5    6 1   
    11    6   31 1   
    12    6   32 1   
    13    6   33 1   
    14    7    8 ar  
    15    7   34 1   
    16    8    9 ar  
    17    8   11 1   
    18    9   10 ar  
    19    9   16 1   
    20   10   35 1   
    21   11   12 1   
    22   11   15 2   
    23   12   13 1   
    24   12   36 1   
    25   13   14 2   
    26   14   15 1   
    27   14   17 1   
    28   15   16 1   
    29   16   37 1   
    30   16   38 1   
    31   17   18 ar  
    32   17   22 ar  
    33   18   19 ar  
    34   18   39 1   
    35   19   20 ar  
    36   19   40 1   
    37   20   21 ar  
    38   20   23 1   
    39   21   22 ar  
    40   21   41 1   
    41   22   42 1   
    42   23   24 1   
    43   23   27 2   
    44   24   25 1   
    45   24   43 1   
    46   25   26 2   
    47   26   27 1   
@<TRIPOS>SUBSTRUCTURE
     1 HKC         1 TEMP              0 ****  ****    0 ROOT
