@<TRIPOS>MOLECULE
HKI
   74    77     1     0     0
SMALL
bcc


@<TRIPOS>ATOM
      1 CAJ        -7.3800    2.7280    6.4940 cg        1 HKI      0.137800
      2 CAL         1.7720    2.5650    0.6400 ca        1 HKI     -0.085000
      3 CAK         2.6490    1.5540    1.0260 ca        1 HKI     -0.206300
      4 CAO        -3.5960    2.3310    6.5300 ca        1 HKI     -0.037000
      5 CAP        -2.6230    2.4540    5.5530 ca        1 HKI     -0.195000
      6 CAN         0.7030    2.8930    1.4820 ca        1 HKI     -0.205300
      7 CAS        -6.0820   -1.8980    7.8440 ca        1 HKI     -0.051000
      8 CAT        -8.7050   -2.6850    7.1600 ca        1 HKI     -0.196300
      9 CAR        -4.1860    0.1270    5.6520 ca        1 HKI     -0.077000
     10 CAM         2.4200    0.9000    2.2550 ca        1 HKI      0.398200
     11 CAQ        -8.9000    0.8030    6.2800 ca        1 HKI      0.499200
     12 CBL        -7.6100    1.3400    6.6670 ca        1 HKI     -0.018300
     13 CBR        -6.9810   -0.9250    7.3560 ca        1 HKI     -0.170300
     14 CBQ        -8.3060   -1.3320    6.9780 ca        1 HKI      0.482600
     15 CBI        -4.3720    1.1580    6.5920 ca        1 HKI     -0.152400
     16 CBM        -6.4850   -3.2190    8.0140 ca        1 HKI     -0.065400
     17 CBP        -6.6660    0.4790    7.2070 ca        1 HKI      0.047600
     18 CBN        -2.4030    1.4240    4.6140 ca        1 HKI      0.243100
     19 CBO        -7.8240   -3.6160    7.6790 ca        1 HKI      0.171100
     20 CBJ        -3.2120    0.2480    4.6710 ca        1 HKI     -0.017600
     21 CBK         0.5630    2.1930    2.6940 ca        1 HKI      0.354600
     22 CBH        -4.8820   -5.0600    7.4990 c         1 HKI      0.556100
     23 CAA        -9.5840   -6.7310    8.3320 c3        1 HKI     -0.112100
     24 CAB        -4.0160  -11.0040    5.9200 c3        1 HKI      0.078600
     25 CAC        -4.3580   -9.4090    4.0980 c3        1 HKI      0.078600
     26 CAV        -0.5470    2.5860    3.6310 c3        1 HKI      0.086100
     27 CAX        -5.2850   -6.5080    7.4490 c3        1 HKI     -0.150400
     28 CBT        -4.4660   -7.2440    6.3980 c3        1 HKI     -0.108400
     29 CAY        -4.7970   -8.7340    6.4380 c3        1 HKI      0.104800
     30 NAD        -7.2200    3.8690    6.3310 n1        1 HKI     -0.183800
     31 NBA        -9.2330   -0.4550    6.4340 nb        1 HKI     -0.600000
     32 NAZ         1.4060    1.2000    3.0810 nb        1 HKI     -0.656000
     33 NBU        -3.9520   -9.5670    5.5210 n4        1 HKI     -0.678400
     34 OAG        -4.0640   -4.4780    6.8090 o         1 HKI     -0.389100
     35 OBE        -1.4770    1.4690    3.6330 os        1 HKI     -0.267900
     36 OBD        -8.1170   -4.9360    7.8930 os        1 HKI     -0.388900
     37 CLA        -3.0230   -1.0120    3.5610 cl        1 HKI     -0.009400
     38 H1          1.9140    3.1020   -0.3110 ha        1 HKI      0.163000
     39 H2          3.5040    1.2690    0.3970 ha        1 HKI      0.166000
     40 H3         -3.7410    3.1620    7.2440 ha        1 HKI      0.166000
     41 H4         -2.0250    3.3810    5.5090 ha        1 HKI      0.190000
     42 H5         -0.0050    3.6860    1.2020 ha        1 HKI      0.151000
     43 H6         -5.0390   -1.6210    8.0800 ha        1 HKI      0.152000
     44 H7         -9.7360   -2.9770    6.8800 ha        1 HKI      0.213000
     45 H8         -4.8150   -0.7780    5.6810 ha        1 HKI      0.142000
     46 H9          3.0950    0.0940    2.5990 h4        1 HKI      0.035100
     47 H10        -9.6620    1.4830    5.8340 h4        1 HKI      0.102100
     48 H11       -10.6410   -7.0910    8.2470 hc        1 HKI      0.067367
     49 H12        -8.9270   -7.3950    7.7210 hc        1 HKI      0.067367
     50 H13        -9.2700   -6.7960    9.4010 hc        1 HKI      0.067367
     51 H14        -3.3900  -11.6100    5.2070 hx        1 HKI      0.116533
     52 H15        -3.6140  -11.1250    6.9620 hx        1 HKI      0.116533
     53 H16        -5.0800  -11.3610    5.8760 hx        1 HKI      0.116533
     54 H17        -4.3000   -8.3270    3.8080 hx        1 HKI      0.116533
     55 H18        -3.6610  -10.0080    3.4470 hx        1 HKI      0.116533
     56 H19        -5.4060   -9.7870    3.9580 hx        1 HKI      0.116533
     57 H20        -0.1550    2.7520    4.6700 h1        1 HKI      0.073200
     58 H21        -1.0980    3.4880    3.2570 h1        1 HKI      0.073200
     59 H22        -5.1260   -6.9760    8.4610 hc        1 HKI      0.121700
     60 H23        -6.3880   -6.5670    7.2120 hc        1 HKI      0.121700
     61 H24        -4.6900   -6.8150    5.3840 hc        1 HKI      0.092700
     62 H25        -3.3710   -7.0770    6.5970 hc        1 HKI      0.092700
     63 H26        -4.6440   -9.1250    7.4870 hx        1 HKI      0.111700
     64 H27        -5.8770   -8.8990    6.1520 hx        1 HKI      0.111700
     65 H28        -9.8570   -5.2250    6.7660 h1        1 HKI      0.077200
     66 H29       -10.1130   -4.6150    8.4880 h1        1 HKI      0.077200
     67 H30        -4.9920    0.4210    8.3950 hn        1 HKI      0.463800
     68 H31        -6.1290   -4.8420    9.1820 hn        1 HKI      0.477800
     69 HBU1       -2.9730   -9.2550    5.6110 hn        1 HKI      0.456800
     70 HBC2       -5.5440    1.9600    8.0610 hn        1 HKI      0.463800
     71 HBB2       -4.8540   -3.7480    9.1360 hn        1 HKI      0.477800
     72 NBC        -5.3770    1.0210    7.6550 n4        1 HKI     -0.490800
     73 NBB        -5.5730   -4.2220    8.5720 n4        1 HKI     -0.536200
     74 CAU        -9.5240   -5.3100    7.8340 c3        1 HKI      0.133400
@<TRIPOS>BOND
     1    1   12 1   
     2    1   30 3   
     3    2    3 ar  
     4    2    6 ar  
     5    2   38 1   
     6    3   10 ar  
     7    3   39 1   
     8    4    5 ar  
     9    4   15 ar  
    10    4   40 1   
    11    5   18 ar  
    12    5   41 1   
    13    6   21 ar  
    14    6   42 1   
    15    7   13 ar  
    16    7   16 ar  
    17    7   43 1   
    18    8   14 ar  
    19    8   19 ar  
    20    8   44 1   
    21    9   15 ar  
    22    9   20 ar  
    23    9   45 1   
    24   10   32 ar  
    25   10   46 1   
    26   11   12 ar  
    27   11   31 ar  
    28   11   47 1   
    29   12   17 ar  
    30   13   14 ar  
    31   13   17 ar  
    32   14   31 ar  
    33   15   72 1   
    34   16   19 ar  
    35   16   73 1   
    36   17   72 1   
    37   18   20 ar  
    38   18   35 1   
    39   19   36 1   
    40   20   37 1   
    41   21   26 1   
    42   21   32 ar  
    43   22   27 1   
    44   22   34 2   
    45   22   73 1   
    46   23   48 1   
    47   23   49 1   
    48   23   50 1   
    49   23   74 1   
    50   24   33 1   
    51   24   51 1   
    52   24   52 1   
    53   24   53 1   
    54   25   33 1   
    55   25   54 1   
    56   25   55 1   
    57   25   56 1   
    58   26   35 1   
    59   26   57 1   
    60   26   58 1   
    61   27   28 1   
    62   27   59 1   
    63   27   60 1   
    64   28   29 1   
    65   28   61 1   
    66   28   62 1   
    67   29   33 1   
    68   29   63 1   
    69   29   64 1   
    70   33   69 1   
    71   36   74 1   
    72   65   74 1   
    73   66   74 1   
    74   67   72 1   
    75   68   73 1   
    76   70   72 1   
    77   71   73 1   
@<TRIPOS>SUBSTRUCTURE
     1 HKI         1 TEMP              0 ****  ****    0 ROOT
