@<TRIPOS>MOLECULE
HKI
   72    75     1     0     0
SMALL
bcc


@<TRIPOS>ATOM
      1 CAJ        -6.3580    2.5660    8.2090 cg        1 HKI      0.215800
      2 CAL         0.0000    0.0000    0.0000 ca        1 HKI     -0.083000
      3 CAK         1.3860    0.0000    0.0000 ca        1 HKI     -0.204300
      4 CAO        -2.9580   -0.0090    7.0420 ca        1 HKI     -0.100000
      5 CAP        -2.1730   -0.0060    5.9060 ca        1 HKI     -0.155000
      6 CAN        -0.6610    0.0020    1.2200 ca        1 HKI     -0.219300
      7 CAS        -6.7730   -2.3030    7.7270 ca        1 HKI     -0.095000
      8 CAT        -9.5470   -1.9740    7.5170 ca        1 HKI     -0.259300
      9 CAR        -4.9360    0.0450    5.6740 ca        1 HKI     -0.125000
     10 CAM         2.0590    0.0000    1.2080 ca        1 HKI      0.408200
     11 CAQ        -8.5330    1.4530    7.9160 ca        1 HKI      0.463200
     12 CBL        -7.1360    1.3760    8.0330 ca        1 HKI     -0.121300
     13 CBR        -7.3290   -1.0170    7.7970 ca        1 HKI     -0.171300
     14 CBQ        -8.7300   -0.8460    7.6910 ca        1 HKI      0.397600
     15 CBI        -4.3430    0.0130    6.9290 ca        1 HKI     -0.063400
     16 CBM        -7.5880   -3.3860    7.5520 ca        1 HKI     -0.137400
     17 CBP        -6.5090    0.1220    7.9720 ca        1 HKI      0.093600
     18 CBN        -2.7650    0.0210    4.6520 ca        1 HKI      0.141100
     19 CBO        -8.9780   -3.2240    7.4400 ca        1 HKI      0.180100
     20 CBJ        -4.1490    0.0440    4.5380 ca        1 HKI     -0.034600
     21 CBK         0.0800   -0.0040    2.3860 ca        1 HKI      0.352600
     22 CBH        -5.7570   -4.8300    7.0750 c         1 HKI      0.565100
     23 CAA       -11.8990   -5.4180    6.9700 c3        1 HKI     -0.031100
     24 CAB        -0.9750   -8.6850    6.2480 c3        1 HKI      0.031600
     25 CAC        -1.6410   -6.9900    4.6510 c3        1 HKI      0.031600
     26 CAV        -0.6270   -0.0030    3.7180 c3        1 HKI      0.145100
     27 CAX        -5.1390   -6.2050    7.0560 c3        1 HKI     -0.076400
     28 CBT        -3.6960   -6.1090    6.5560 c3        1 HKI      0.061600
     29 CAY        -3.0690   -7.5050    6.5380 c3        1 HKI     -0.158200
     30 NAD        -5.7340    3.5020    8.3660 n1        1 HKI     -0.347800
     31 NBA        -9.2670    0.3820    7.7550 nb        1 HKI     -0.585000
     32 NAZ         1.3980    0.0010    2.3490 nb        1 HKI     -0.578000
     33 NBU        -1.6840   -7.4120    6.0580 nx        1 HKI      0.005600
     34 OAG        -5.1080   -3.8680    6.7220 o         1 HKI     -0.620100
     35 OBE        -2.0400    0.0030    3.5060 os        1 HKI     -0.312900
     36 OBD        -9.7700   -4.3140    7.2670 os        1 HKI     -0.364900
     37 ClA        -4.8900    0.0540    2.9680 cl        1 HKI     -0.000400
     38 H1         -0.6730   -0.2740   -0.8030 ha        1 HKI      0.115000
     39 H2          1.8760   -0.1540   -0.9540 ha        1 HKI      0.116000
     40 H3         -2.7540    0.2110    8.0820 ha        1 HKI      0.118000
     41 H4         -1.1320    0.1330    6.1740 ha        1 HKI      0.128000
     42 H5         -1.7200    0.1760    1.0740 ha        1 HKI      0.134000
     43 H6         -5.9430   -2.2880    7.0320 ha        1 HKI      0.186000
     44 H7        -10.4230   -1.5180    7.0710 ha        1 HKI      0.163000
     45 H8         -5.9810   -0.2160    5.7830 ha        1 HKI      0.131000
     46 H9          3.1290    0.1720    1.2370 h4        1 HKI     -0.013900
     47 H10        -9.0860    2.3810    7.8400 h4        1 HKI     -0.003900
     48 H11       -11.1510   -6.0400    7.4460 hc        1 HKI      0.030700
     49 H12       -12.9530   -5.2440    6.7930 hc        1 HKI      0.030700
     50 H13       -11.7040   -5.5800    5.9160 hc        1 HKI      0.030700
     51 H14        -0.1140   -8.7110    5.5910 hx        1 HKI      0.074367
     52 H15        -1.6730   -9.3630    5.7720 hx        1 HKI      0.074367
     53 H16        -0.8640   -9.1240    7.2320 hx        1 HKI      0.074367
     54 H17        -1.3340   -7.8680    4.0960 hx        1 HKI      0.074367
     55 H18        -1.1940   -6.0280    4.4340 hx        1 HKI      0.074367
     56 H19        -2.7150   -6.9490    4.5170 hx        1 HKI      0.074367
     57 H20        -0.6070   -1.0750    3.8760 h1        1 HKI      0.038700
     58 H21        -0.3750    0.8050    4.3930 h1        1 HKI      0.038700
     59 H22        -5.5690   -6.8360    6.2870 hc        1 HKI      0.040700
     60 H23        -5.2470   -6.6880    8.0200 hc        1 HKI      0.040700
     61 H24        -3.3930   -5.8120    5.5590 hc        1 HKI      0.028200
     62 H25        -2.9890   -5.8740    7.3420 hc        1 HKI      0.028200
     63 H26        -3.6830   -8.0580    5.8380 hx        1 HKI      0.081200
     64 H27        -3.3410   -8.1740    7.3450 hx        1 HKI      0.081200
     65 H28       -10.9930   -3.4450    6.3050 h1        1 HKI      0.034200
     66 H29       -11.5450   -3.8180    8.1430 h1        1 HKI      0.034200
     67 H30        -4.6200    0.6460    8.6460 hn        1 HKI      0.275800
     68 H31        -7.7230   -5.3780    7.3330 hn        1 HKI      0.179500
     69 HBU1       -1.5520   -6.9290    6.9250 hn        1 HKI      0.294800
     70 NBC        -5.1380    0.0040    8.0800 nu        1 HKI     -0.241000
     71 NBB        -7.0320   -4.6700    7.4820 ns        1 HKI      0.010900
     72 CAU       -11.1760   -4.0840    7.1600 c3        1 HKI      0.174400
@<TRIPOS>BOND
     1    1   12 1   
     2    1   30 3   
     3    2    3 ar  
     4    2    6 ar  
     5    2   38 1   
     6    3   10 ar  
     7    3   39 1   
     8    4    5 ar  
     9    4   15 ar  
    10    4   40 1   
    11    5   18 ar  
    12    5   41 1   
    13    6   21 ar  
    14    6   42 1   
    15    7   13 ar  
    16    7   16 ar  
    17    7   43 1   
    18    8   14 ar  
    19    8   19 ar  
    20    8   44 1   
    21    9   15 ar  
    22    9   20 ar  
    23    9   45 1   
    24   10   32 ar  
    25   10   46 1   
    26   11   12 ar  
    27   11   31 ar  
    28   11   47 1   
    29   12   17 ar  
    30   13   14 ar  
    31   13   17 ar  
    32   14   31 ar  
    33   15   70 1   
    34   16   19 ar  
    35   16   71 1   
    36   17   70 1   
    37   18   20 ar  
    38   18   35 1   
    39   19   36 1   
    40   20   37 1   
    41   21   26 1   
    42   21   32 ar  
    43   22   27 1   
    44   22   34 2   
    45   22   71 1   
    46   23   48 1   
    47   23   49 1   
    48   23   50 1   
    49   23   72 1   
    50   24   33 1   
    51   24   51 1   
    52   24   52 1   
    53   24   53 1   
    54   25   33 1   
    55   25   54 1   
    56   25   55 1   
    57   25   56 1   
    58   26   35 1   
    59   26   57 1   
    60   26   58 1   
    61   27   28 1   
    62   27   59 1   
    63   27   60 1   
    64   28   29 1   
    65   28   61 1   
    66   28   62 1   
    67   29   33 1   
    68   29   63 1   
    69   29   64 1   
    70   33   69 1   
    71   36   72 1   
    72   65   72 1   
    73   66   72 1   
    74   67   70 1   
    75   68   71 1   
@<TRIPOS>SUBSTRUCTURE
     1 HKI         1 TEMP              0 ****  ****    0 ROOT
