@<TRIPOS>MOLECULE
HKI
   71    74     1     0     0
SMALL
bcc


@<TRIPOS>ATOM
      1 CAJ        -1.0610   -4.7800   -0.3070 cg        1 HKI      0.244800
      2 CAL         6.6910   -1.3520    1.4990 ca        1 HKI     -0.094000
      3 CAK         7.1640   -0.2700    0.7580 ca        1 HKI     -0.241300
      4 CAO         1.8120   -2.7270   -2.2020 ca        1 HKI     -0.130000
      5 CAP         3.0860   -3.2620   -2.0750 ca        1 HKI     -0.136000
      6 CAN         6.2570   -2.4940    0.8250 ca        1 HKI     -0.220300
      7 CAS        -1.9910    0.1190   -0.3860 ca        1 HKI     -0.128000
      8 CAT        -4.3070   -0.4280    1.1030 ca        1 HKI     -0.247300
      9 CAR         1.3860   -3.1990    0.1440 ca        1 HKI     -0.145000
     10 CAM         7.1780   -0.3780   -0.6450 ca        1 HKI      0.393200
     11 CAQ        -2.9400   -3.7590    0.8570 ca        1 HKI      0.471200
     12 CBL        -1.7690   -3.6070    0.0470 ca        1 HKI     -0.211300
     13 CBR        -2.2730   -1.2200   -0.0210 ca        1 HKI     -0.189300
     14 CBQ        -3.4330   -1.5040    0.7560 ca        1 HKI      0.442600
     15 CBI         0.9390   -2.6890   -1.0910 ca        1 HKI      0.133600
     16 CBM        -2.8410    1.1680   -0.0620 ca        1 HKI      0.052600
     17 CBP        -1.4100   -2.3260   -0.4020 ca        1 HKI      0.264600
     18 CBN         3.5300   -3.7640   -0.8450 ca        1 HKI      0.101100
     19 CBO        -4.0330    0.8590    0.7040 ca        1 HKI      0.121100
     20 CBJ         2.6710   -3.7300    0.2690 ca        1 HKI      0.031400
     21 CBK         6.3060   -2.5140   -0.5850 ca        1 HKI      0.359600
     22 CBH        -1.6970    2.9520   -1.3830 c         1 HKI      0.669100
     23 CAA        -6.7030    3.0020    1.9600 c3        1 HKI     -0.102100
     24 CAB        -0.0000    8.7830   -0.2230 c3        1 HKI      0.156600
     25 CAC        -1.3610    7.6660    1.4200 c3        1 HKI      0.156600
     26 CAV         5.8780   -3.7640   -1.3140 c3        1 HKI      0.080100
     27 CAX        -1.6810    4.4500   -1.6390 c3        1 HKI     -0.156400
     28 CBT        -1.2160    5.2270   -0.4270 c3        1 HKI     -0.081400
     29 CAY        -1.0890    6.7080   -0.7920 c3        1 HKI      0.172800
     30 CAU        -6.0140    1.6710    1.7760 c3        1 HKI      0.131400
     31 NAD        -0.5170   -5.7670   -0.6000 n1        1 HKI     -0.361800
     32 NBA        -3.7470   -2.7760    1.1980 nb        1 HKI     -0.684000
     33 NAZ         6.7610   -1.4660   -1.3160 nb        1 HKI     -0.662000
     34 NBU        -0.5040    7.5190    0.2670 n3        1 HKI     -0.739600
     35 OAG        -0.9450    2.1900   -2.0190 o         1 HKI     -0.600100
     36 OBE         4.7550   -4.3950   -0.6970 os        1 HKI     -0.321900
     37 OBD        -4.8390    1.9420    0.9960 os        1 HKI     -0.350900
     38 CLA         3.1450   -4.3300    1.7870 cl        1 HKI     -0.074400
     39 H1          6.6590   -1.3100    2.5970 ha        1 HKI      0.141000
     40 H2          7.5160    0.6470    1.2480 ha        1 HKI      0.144000
     41 H3          1.4870   -2.3380   -3.1800 ha        1 HKI      0.146000
     42 H4          3.7460   -3.2940   -2.9550 ha        1 HKI      0.150000
     43 H5          5.8660   -3.3690    1.3670 ha        1 HKI      0.162000
     44 H6         -1.0630    0.3530   -0.9350 ha        1 HKI      0.171000
     45 H7         -5.2050   -0.6640    1.6950 ha        1 HKI      0.162000
     46 H8          0.7200   -3.1840    1.0230 ha        1 HKI      0.158000
     47 H9          7.5420    0.4550   -1.2730 h4        1 HKI      0.022100
     48 H10        -3.2110   -4.7690    1.2230 h4        1 HKI      0.034100
     49 H11        -7.6320    2.8500    2.5600 hc        1 HKI      0.051033
     50 H12        -6.0360    3.7190    2.4950 hc        1 HKI      0.051033
     51 H13        -6.9740    3.4440    0.9710 hc        1 HKI      0.051033
     52 H14         0.4980    9.3260    0.6230 h1        1 HKI      0.032200
     53 H15         0.7630    8.5890   -1.0220 h1        1 HKI      0.032200
     54 H16        -0.8030    9.4460   -0.6490 h1        1 HKI      0.032200
     55 H17        -1.5790    6.6510    1.8440 h1        1 HKI      0.032200
     56 H18        -0.8260    8.2690    2.1990 h1        1 HKI      0.032200
     57 H19        -2.3380    8.1720    1.1860 h1        1 HKI      0.032200
     58 H20         5.6800   -3.5710   -2.4000 h1        1 HKI      0.076200
     59 H21         6.6820   -4.5460   -1.2090 h1        1 HKI      0.076200
     60 H22        -0.9840    4.6280   -2.5020 hc        1 HKI      0.075200
     61 H23        -2.7040    4.7880   -1.9520 hc        1 HKI      0.075200
     62 H24        -1.9440    5.1020    0.4160 hc        1 HKI      0.057700
     63 H25        -0.2250    4.8330   -0.0790 hc        1 HKI      0.057700
     64 H26        -0.4220    6.7890   -1.6980 h1        1 HKI      0.031700
     65 H27        -2.1110    7.0900   -1.0900 h1        1 HKI      0.031700
     66 H28        -5.7090    1.2300    2.7620 h1        1 HKI      0.047700
     67 H29        -6.6670    0.9470    1.2210 h1        1 HKI      0.047700
     68 H30        -0.3450   -1.2680   -1.7860 hn        1 HKI      0.448800
     69 H31        -3.1900    3.1770    0.0010 hn        1 HKI      0.334500
     70 NBC        -0.3360   -2.1140   -1.2550 nh        1 HKI     -0.639000
     71 NBB        -2.5860    2.5020   -0.4180 n         1 HKI     -0.461100
@<TRIPOS>BOND
     1    1   12 1   
     2    1   31 3   
     3    2    3 ar  
     4    2    6 ar  
     5    2   39 1   
     6    3   10 ar  
     7    3   40 1   
     8    4    5 ar  
     9    4   15 ar  
    10    4   41 1   
    11    5   18 ar  
    12    5   42 1   
    13    6   21 ar  
    14    6   43 1   
    15    7   13 ar  
    16    7   16 ar  
    17    7   44 1   
    18    8   14 ar  
    19    8   19 ar  
    20    8   45 1   
    21    9   15 ar  
    22    9   20 ar  
    23    9   46 1   
    24   10   33 ar  
    25   10   47 1   
    26   11   12 ar  
    27   11   32 ar  
    28   11   48 1   
    29   12   17 ar  
    30   13   14 ar  
    31   13   17 ar  
    32   14   32 ar  
    33   15   70 1   
    34   16   19 ar  
    35   16   71 1   
    36   17   70 1   
    37   18   20 ar  
    38   18   36 1   
    39   19   37 1   
    40   20   38 1   
    41   21   26 1   
    42   21   33 ar  
    43   22   27 1   
    44   22   35 2   
    45   22   71 1   
    46   23   30 1   
    47   23   49 1   
    48   23   50 1   
    49   23   51 1   
    50   24   34 1   
    51   24   52 1   
    52   24   53 1   
    53   24   54 1   
    54   25   34 1   
    55   25   55 1   
    56   25   56 1   
    57   25   57 1   
    58   26   36 1   
    59   26   58 1   
    60   26   59 1   
    61   27   28 1   
    62   27   60 1   
    63   27   61 1   
    64   28   29 1   
    65   28   62 1   
    66   28   63 1   
    67   29   34 1   
    68   29   64 1   
    69   29   65 1   
    70   30   37 1   
    71   30   66 1   
    72   30   67 1   
    73   68   70 1   
    74   69   71 1   
@<TRIPOS>SUBSTRUCTURE
     1 HKI         1 TEMP              0 ****  ****    0 ROOT
