@<TRIPOS>MOLECULE
HKI
   71    57     1     0     0
SMALL
bcc


@<TRIPOS>ATOM
      1 CAJ         1.9560    3.1810    2.5980 c1        1 HKI     -0.081000
      2 CAL         7.9830    7.9450   -1.4230 c1        1 HKI     -0.136500
      3 CAK         7.8610    8.3710   -0.1350 c1        1 HKI     -0.136500
      4 CAO         4.3070    0.9850    0.8940 c1        1 HKI     -0.136500
      5 CAP         5.3860    1.6670    0.3500 c1        1 HKI     -0.136500
      6 CAN         7.6900    6.6520   -1.7430 c1        1 HKI     -0.151000
      7 CAS        -0.6920   -0.9280    0.9480 c1        1 HKI     -0.125000
      8 CAT        -2.8710    0.8190    1.0610 c1        1 HKI     -0.182000
      9 CAR         2.8020    2.6180   -0.0250 c1        1 HKI     -0.130000
     10 CAM         7.4380    7.4870    0.8530 c1        1 HKI     -0.072000
     11 CAQ        -0.1440    3.0400    2.1610 c1        1 HKI      0.009000
     12 CBL         0.9510    2.1670    2.1060 c1        1 HKI      0.030000
     13 CBR        -0.5030    0.4140    1.3600 c1        1 HKI     -0.126000
     14 CBQ        -1.5800    1.2770    1.4160 c2        1 HKI      0.050000
     15 CBI         3.0110    1.4650    0.7040 c1        1 HKI      0.031000
     16 CBM        -1.9640   -1.3770    0.5980 c1        1 HKI      0.030000
     17 CBP         0.7710    0.8670    1.7090 c1        1 HKI      0.030000
     18 CBN         5.1770    2.8230   -0.3810 c1        1 HKI      0.030000
     19 CBO        -3.0550   -0.5030    0.6540 c1        1 HKI      0.030000
     20 CBJ         3.8840    3.3010   -0.5700 c1        1 HKI      0.030000
     21 CBK         7.2650    5.7690   -0.7520 c1        1 HKI     -0.067000
     22 CBH        -2.4970   -3.8280    0.7310 c1        1 HKI      0.311000
     23 CAA        -6.5370   -0.6880    0.1150 c3        1 HKI     -0.252000
     24 CAB        -4.9160   -5.9630   -3.2870 c3        1 HKI     -0.119500
     25 CAC        -6.4380   -7.1630   -1.9680 c3        1 HKI     -0.119500
     26 CAV         7.0510    4.2630   -0.6070 c3        1 HKI      0.022000
     27 CAX        -2.6160   -5.1850    0.0590 c2        1 HKI     -0.185000
     28 CBT        -4.0960   -5.6350    0.0620 c3        1 HKI     -0.161000
     29 CAY        -4.3300   -6.6540   -1.0900 c3        1 HKI     -0.064000
     30 CAU        -5.3760   -0.9200    1.0300 c3        1 HKI     -0.018000
     31 NAD         2.7140    3.9460    2.9700 n1        1 HKI     -0.044000
     32 NBA        -1.3960    2.5950    1.8180 n2        1 HKI     -0.162000
     33 NAZ         7.1450    6.1960    0.5330 n1        1 HKI     -0.141000
     34 NBC         2.1950    0.5570    1.4700 n2        1 HKI     -0.270000
     35 NBB        -2.1410   -2.6650   -0.0530 n2        1 HKI     -0.313000
     36 NBU        -5.4150   -6.1880   -1.9380 n3        1 HKI     -0.265000
     37 OAG        -2.6490   -3.7290    1.9400 o         1 HKI     -0.362000
     38 OBE         5.7330    3.9270   -1.0460 o         1 HKI     -0.198000
     39 OBD        -4.2010   -1.2170    0.2520 o         1 HKI     -0.234000
     40 CLA         3.2320    4.8010   -1.1910 cl        1 HKI      0.009000
     41 H1          8.2850    8.5740   -2.1270 ha        1 HKI      0.148500
     42 H2          8.0710    9.2940    0.0950 ha        1 HKI      0.148500
     43 H3          4.4510    0.1890    1.3970 ha        1 HKI      0.148500
     44 H4          6.3100    1.3240    0.4850 ha        1 HKI      0.148500
     45 H5          7.7750    6.3530   -2.6440 ha        1 HKI      0.162000
     46 H6          0.0580   -1.5300    0.9080 ha        1 HKI      0.170000
     47 H7         -3.6350    1.4300    1.1000 ha        1 HKI      0.162000
     48 H8          1.9000    2.9520   -0.1570 ha        1 HKI      0.158000
     49 H9          7.3490    7.7960    1.7870 ha        1 HKI      0.159000
     50 H10        -0.0050    3.9970    2.4010 ha        1 HKI      0.170000
     51 H11        -7.3610   -0.6190    0.6450 hc        1 HKI      0.091667
     52 H12        -6.6120   -1.4250   -0.5020 hc        1 HKI      0.091667
     53 H13        -6.4000    0.1360   -0.3790 hc        1 HKI      0.091667
     54 H14        -4.2070   -5.2780   -3.2660 h1        1 HKI      0.071333
     55 H15        -5.6450   -5.6570   -3.8560 h1        1 HKI      0.071333
     56 H16        -4.5480   -6.8040   -3.6470 h1        1 HKI      0.071333
     57 H17        -7.1850   -6.8430   -2.5350 h1        1 HKI      0.071333
     58 H18        -6.0800   -7.9980   -2.3390 h1        1 HKI      0.071333
     59 H19        -6.7640   -7.3230   -1.0570 h1        1 HKI      0.071333
     60 H20         7.1610    4.0000    0.3550 h1        1 HKI      0.119500
     61 H21         7.7090    3.7850   -1.1540 h1        1 HKI      0.119500
     62 H22        -2.2920   -5.1200   -0.8740 ha        1 HKI      0.115000
     63 H23        -2.0660   -5.8500    0.5550 ha        1 HKI      0.115000
     64 H24        -4.3120   -6.0670    0.9390 hc        1 HKI      0.097000
     65 H25        -4.6930   -4.8320   -0.0730 hc        1 HKI      0.097000
     66 H26        -3.5080   -6.7390   -1.6260 h1        1 HKI      0.071000
     67 H27        -4.5670   -7.5390   -0.7050 h1        1 HKI      0.071000
     68 H28        -5.5760   -1.6810    1.6290 h1        1 HKI      0.100000
     69 H29        -5.2140   -0.1050    1.5740 h1        1 HKI      0.100000
     70 H30         2.5710   -0.1830    1.8540 hn        1 HKI      0.245000
     71 H31        -2.1020   -2.7240   -0.9650 hn        1 HKI      0.247000
@<TRIPOS>BOND
     1    1   31 1   
     2    2    3 1   
     3    2   41 1   
     4    3   42 1   
     5    4    5 1   
     6    4   43 1   
     7    5   44 1   
     8    6   21 1   
     9    6   45 1   
    10    7   13 1   
    11    7   46 1   
    12    8   14 1   
    13    8   47 1   
    14    9   15 1   
    15    9   48 1   
    16   10   33 1   
    17   10   49 1   
    18   11   32 1   
    19   11   50 1   
    20   12   17 1   
    21   13   14 1   
    22   14   32 1   
    23   15   34 1   
    24   16   19 1   
    25   18   20 1   
    26   21   26 1   
    27   22   35 1   
    28   22   37 1   
    29   23   30 1   
    30   23   51 1   
    31   23   52 1   
    32   23   53 1   
    33   24   36 1   
    34   24   54 1   
    35   24   55 1   
    36   24   56 1   
    37   25   36 1   
    38   25   57 1   
    39   25   58 1   
    40   25   59 1   
    41   26   38 1   
    42   26   60 1   
    43   26   61 1   
    44   27   28 1   
    45   27   62 1   
    46   27   63 1   
    47   28   29 1   
    48   28   64 1   
    49   28   65 1   
    50   29   36 1   
    51   29   66 1   
    52   29   67 1   
    53   30   39 1   
    54   30   68 1   
    55   30   69 1   
    56   34   70 1   
    57   35   71 1   
@<TRIPOS>SUBSTRUCTURE
     1 HKI         1 TEMP              0 ****  ****    0 ROOT
