@<TRIPOS>MOLECULE
HKI
   72    75     1     0     0
SMALL
bcc


@<TRIPOS>ATOM
      1 CAJ        -6.5010    2.8290    8.4190 cg        1 HKI      0.222800
      2 CAL        -0.6360   -0.8610    1.0160 ca        1 HKI     -0.075000
      3 CAK        -0.9540   -2.1290    0.5290 ca        1 HKI     -0.221300
      4 CAO        -2.7870   -0.2550    8.0300 ca        1 HKI     -0.158000
      5 CAP        -1.7870   -0.9050    7.3260 ca        1 HKI     -0.091000
      6 CAN        -0.4040   -0.7010    2.3840 ca        1 HKI     -0.217300
      7 CAS        -6.6750   -2.0830    7.6520 ca        1 HKI     -0.121000
      8 CAT        -9.4090   -1.7780    7.0850 ca        1 HKI     -0.243300
      9 CAR        -4.3830   -0.8220    6.2770 ca        1 HKI     -0.164000
     10 CAM        -1.0270   -3.1940    1.4460 ca        1 HKI      0.390200
     11 CAQ        -8.5740    1.6460    7.8660 ca        1 HKI      0.473200
     12 CBL        -7.1630    1.6160    8.1060 ca        1 HKI     -0.196300
     13 CBR        -7.2470   -0.7860    7.7030 ca        1 HKI     -0.174300
     14 CBQ        -8.6420   -0.6270    7.4470 ca        1 HKI      0.445600
     15 CBI        -4.1180   -0.2330    7.5340 ca        1 HKI      0.191600
     16 CBM        -7.4030   -3.1920    7.2480 ca        1 HKI      0.039600
     17 CBP        -6.4760    0.3940    8.0200 ca        1 HKI      0.241600
     18 CBN        -2.0770   -1.5580    6.1190 ca        1 HKI      0.024100
     19 CBO        -8.8180   -3.0140    6.9750 ca        1 HKI      0.132100
     20 CBJ        -3.3740   -1.4980    5.5900 ca        1 HKI      0.042400
     21 CBK        -0.4940   -1.8270    3.2290 ca        1 HKI      0.369600
     22 CBH        -5.5160   -4.8240    7.2000 c         1 HKI      0.661100
     23 CAA       -11.4170   -5.4440    6.1870 c3        1 HKI     -0.104100
     24 CAB        -0.3790   -5.0400    5.7620 c3        1 HKI      0.093600
     25 CAC        -1.6190   -6.0540    3.9220 c3        1 HKI      0.093600
     26 CAV        -0.1770   -1.6390    4.6910 c3        1 HKI      0.079100
     27 CAX        -5.0980   -6.1780    6.6330 c3        1 HKI     -0.154400
     28 CBT        -4.0860   -5.9800    5.5190 c3        1 HKI     -0.090400
     29 CAY        -2.7070   -5.6950    6.1060 c3        1 HKI      0.089800
     30 NAD        -5.9640    3.8300    8.6720 n1        1 HKI     -0.339800
     31 NBA        -9.2900    0.5900    7.5390 nb        1 HKI     -0.661000
     32 NAZ        -0.8060   -3.0640    2.7670 nb        1 HKI     -0.722000
     33 NBU        -1.7100   -5.1760    5.1130 n4        1 HKI     -0.670400
     34 OAG        -4.6550   -4.1010    7.7450 o         1 HKI     -0.615100
     35 OBE        -1.0930   -2.3490    5.5380 os        1 HKI     -0.379900
     36 OBD        -9.4910   -4.1560    6.5950 os        1 HKI     -0.355900
     37 CLA        -3.7660   -2.2660    4.1200 cl        1 HKI     -0.095400
     38 H1         -0.5700    0.0020    0.3350 ha        1 HKI      0.159000
     39 H2         -1.1420   -2.3010   -0.5400 ha        1 HKI      0.161000
     40 H3         -2.5410    0.2340    8.9860 ha        1 HKI      0.157000
     41 H4         -0.7580   -0.9300    7.7180 ha        1 HKI      0.154000
     42 H5         -0.1540    0.2870    2.7970 ha        1 HKI      0.156000
     43 H6         -5.6180   -2.2060    7.9510 ha        1 HKI      0.184000
     44 H7        -10.4860   -1.6410    6.8930 ha        1 HKI      0.172000
     45 H8         -5.3950   -0.7670    5.8420 ha        1 HKI      0.170000
     46 H9         -1.2730   -4.2140    1.1000 h4        1 HKI      0.015100
     47 H10        -9.1170    2.6090    7.9450 h4        1 HKI      0.047100
     48 H11       -10.9670   -5.8300    5.2410 hc        1 HKI      0.054700
     49 H12       -12.5280   -5.4170    6.0780 hc        1 HKI      0.054700
     50 H13       -11.1490   -6.1400    7.0170 hc        1 HKI      0.054700
     51 H14        -0.4860   -4.4040    6.6830 hx        1 HKI      0.098033
     52 H15         0.3150   -4.5220    5.0470 hx        1 HKI      0.098033
     53 H16         0.0180   -6.0520    6.0300 hx        1 HKI      0.098033
     54 H17        -2.5840   -6.0040    3.3510 hx        1 HKI      0.098033
     55 H18        -1.4250   -7.1100    4.2470 hx        1 HKI      0.098033
     56 H19        -0.7810   -5.7020    3.2620 hx        1 HKI      0.098033
     57 H20         0.8230   -2.1040    4.9240 h1        1 HKI      0.075200
     58 H21        -0.1590   -0.5480    4.9500 h1        1 HKI      0.075200
     59 H22        -4.6530   -6.7740    7.4750 hc        1 HKI      0.085200
     60 H23        -5.9680   -6.7600    6.2320 hc        1 HKI      0.085200
     61 H24        -4.4170   -5.1340    4.8580 hc        1 HKI      0.069200
     62 H25        -4.0480   -6.9110    4.8940 hc        1 HKI      0.069200
     63 H26        -2.2870   -6.6390    6.5540 hx        1 HKI      0.115700
     64 H27        -2.8030   -4.9150    6.9240 hx        1 HKI      0.115700
     65 H28       -11.3430   -3.6590    7.4460 h1        1 HKI      0.052700
     66 H29       -11.1670   -3.3420    5.6440 h1        1 HKI      0.052700
     67 H30        -4.7890    1.0820    8.9290 hn        1 HKI      0.450800
     68 H31        -7.4770   -5.1650    6.7340 hn        1 HKI      0.343500
     69 HBU1       -2.0100   -4.2260    4.8100 hn        1 HKI      0.490800
     70 NBC        -5.1100    0.3510    8.3250 nh        1 HKI     -0.636000
     71 NBB        -6.8380   -4.4660    7.0550 n         1 HKI     -0.442100
     72 CAU       -10.9220   -4.0480    6.4810 c3        1 HKI      0.131400
@<TRIPOS>BOND
     1    1   12 1   
     2    1   30 3   
     3    2    3 ar  
     4    2    6 ar  
     5    2   38 1   
     6    3   10 ar  
     7    3   39 1   
     8    4    5 ar  
     9    4   15 ar  
    10    4   40 1   
    11    5   18 ar  
    12    5   41 1   
    13    6   21 ar  
    14    6   42 1   
    15    7   13 ar  
    16    7   16 ar  
    17    7   43 1   
    18    8   14 ar  
    19    8   19 ar  
    20    8   44 1   
    21    9   15 ar  
    22    9   20 ar  
    23    9   45 1   
    24   10   32 ar  
    25   10   46 1   
    26   11   12 ar  
    27   11   31 ar  
    28   11   47 1   
    29   12   17 ar  
    30   13   14 ar  
    31   13   17 ar  
    32   14   31 ar  
    33   15   70 1   
    34   16   19 ar  
    35   16   71 1   
    36   17   70 1   
    37   18   20 ar  
    38   18   35 1   
    39   19   36 1   
    40   20   37 1   
    41   21   26 1   
    42   21   32 ar  
    43   22   27 1   
    44   22   34 2   
    45   22   71 1   
    46   23   48 1   
    47   23   49 1   
    48   23   50 1   
    49   23   72 1   
    50   24   33 1   
    51   24   51 1   
    52   24   52 1   
    53   24   53 1   
    54   25   33 1   
    55   25   54 1   
    56   25   55 1   
    57   25   56 1   
    58   26   35 1   
    59   26   57 1   
    60   26   58 1   
    61   27   28 1   
    62   27   59 1   
    63   27   60 1   
    64   28   29 1   
    65   28   61 1   
    66   28   62 1   
    67   29   33 1   
    68   29   63 1   
    69   29   64 1   
    70   33   69 1   
    71   36   72 1   
    72   65   72 1   
    73   66   72 1   
    74   67   70 1   
    75   68   71 1   
@<TRIPOS>SUBSTRUCTURE
     1 HKI         1 TEMP              0 ****  ****    0 ROOT
