@<TRIPOS>MOLECULE
HKV
   14    13     1     0     0
SMALL
bcc


@<TRIPOS>ATOM
      1 O4          1.1290   -0.8820    0.5310 o         1 HKV     -0.848300
      2 C5          2.1390   -0.4930   -0.1170 c         1 HKV      0.909600
      3 O3          3.3290   -0.5880    0.3110 o         1 HKV     -0.848300
      4 C4          1.8880    0.1220   -1.5050 c3        1 HKV     -0.196400
      5 C3          3.0970    0.8150   -2.0970 c3        1 HKV     -0.156400
      6 C2          4.0260   -0.1640   -2.7520 c         1 HKV      0.481100
      7 O5          3.8540   -0.6140   -3.8900 o         1 HKV     -0.555100
      8 C1          5.1770   -0.6000   -1.8840 c         1 HKV      0.483900
      9 O2          6.3440   -0.2930   -2.1350 o         1 HKV     -0.556100
     10 HA          1.5310   -0.6880   -2.1880 hc        1 HKV      0.039200
     11 H3C1        2.7700    1.5640   -2.8660 hc        1 HKV      0.054200
     12 H3C2        3.6430    1.3530   -1.2760 hc        1 HKV      0.054200
     13 H1          4.8630   -1.1710   -0.9750 h4        1 HKV      0.098200
     14 H41         1.0600    0.8690   -1.4010 hc        1 HKV      0.039200
@<TRIPOS>BOND
     1    1    2 1   
     2    2    3 1   
     3    2    4 1   
     4    4    5 1   
     5    4   10 1   
     6    4   14 1   
     7    5    6 1   
     8    5   11 1   
     9    5   12 1   
    10    6    7 2   
    11    6    8 1   
    12    8    9 2   
    13    8   13 1   
@<TRIPOS>SUBSTRUCTURE
     1 HKV         1 TEMP              0 ****  ****    0 ROOT
