@<TRIPOS>MOLECULE
HKV
   14    13     1     0     0
SMALL
bcc


@<TRIPOS>ATOM
      1 O4         -2.8220   -0.5370    1.9630 o         1 HKV     -0.838800
      2 C5         -1.7030   -0.7430    1.4200 c         1 HKV      0.911600
      3 O3         -1.4760   -1.6430    0.5610 o         1 HKV     -0.838800
      4 C4         -0.5430    0.1970    1.8170 c3        1 HKV     -0.196400
      5 C3          0.7910   -0.5170    1.7600 c3        1 HKV     -0.173400
      6 C2          1.9050    0.4250    1.4390 c         1 HKV      0.474100
      7 O5          2.6800    0.9110    2.2700 o         1 HKV     -0.541100
      8 C1          2.0000    0.7920   -0.0190 c         1 HKV      0.483900
      9 O2          2.9520    0.4830   -0.7350 o         1 HKV     -0.523100
     10 HA         -0.7280    0.5970    2.8430 hc        1 HKV      0.028700
     11 H3C1        0.7310   -1.3160    0.9650 hc        1 HKV      0.083200
     12 H3C2        0.9950   -1.0200    2.7400 hc        1 HKV      0.083200
     13 H1          1.1190    1.3470   -0.4110 h4        1 HKV      0.018200
     14 H41        -0.5620    1.0590    1.1030 hc        1 HKV      0.028700
@<TRIPOS>BOND
     1    1    2 1   
     2    2    3 1   
     3    2    4 1   
     4    4    5 1   
     5    4   10 1   
     6    4   14 1   
     7    5    6 1   
     8    5   11 1   
     9    5   12 1   
    10    6    7 2   
    11    6    8 1   
    12    8    9 2   
    13    8   13 1   
@<TRIPOS>SUBSTRUCTURE
     1 HKV         1 TEMP              0 ****  ****    0 ROOT
