@<TRIPOS>MOLECULE
HKV
   14    13     1     0     0
SMALL
bcc


@<TRIPOS>ATOM
      1 O4          1.0190   -1.1220    0.2990 o         1 HKV     -0.848300
      2 C5          2.0710   -0.6880   -0.2450 c         1 HKV      0.909600
      3 O3          3.2390   -0.9440    0.1770 o         1 HKV     -0.848300
      4 C4          1.9010    0.1980   -1.4920 c3        1 HKV     -0.196400
      5 C3          3.1700    0.9010   -1.9230 c3        1 HKV     -0.156400
      6 C2          4.0490    0.0000   -2.7390 c         1 HKV      0.481100
      7 O5          3.8800   -0.2120   -3.9450 o         1 HKV     -0.555100
      8 C1          5.1430   -0.6750   -1.9530 c         1 HKV      0.483900
      9 O2          6.3350   -0.4120   -2.1240 o         1 HKV     -0.556100
     10 HA          1.5090   -0.4400   -2.3240 hc        1 HKV      0.039200
     11 H3C1        2.9170    1.8040   -2.5390 hc        1 HKV      0.054200
     12 H3C2        3.7280    1.2330   -1.0060 hc        1 HKV      0.054200
     13 H1          4.7650   -1.3830   -1.1750 h4        1 HKV      0.098200
     14 H41         1.1230    0.9680   -1.2580 hc        1 HKV      0.039200
@<TRIPOS>BOND
     1    1    2 1   
     2    2    3 1   
     3    2    4 1   
     4    4    5 1   
     5    4   10 1   
     6    4   14 1   
     7    5    6 1   
     8    5   11 1   
     9    5   12 1   
    10    6    7 2   
    11    6    8 1   
    12    8    9 2   
    13    8   13 1   
@<TRIPOS>SUBSTRUCTURE
     1 HKV         1 TEMP              0 ****  ****    0 ROOT
