@<TRIPOS>MOLECULE
HKY
   23    24     1     0     0
SMALL
bcc


@<TRIPOS>ATOM
      1 C1          0.0540    0.0870   -0.0400 ca        1 HKY     -0.106000
      2 C2          1.4460    0.0740   -0.0310 ca        1 HKY     -0.154000
      3 C3          0.0350   -0.0840    2.3650 ca        1 HKY     -0.103000
      4 C4         -0.6620    0.0080    1.1590 ca        1 HKY     -0.120600
      5 C5          2.1440   -0.0190    1.1780 ca        1 HKY     -0.143300
      6 C6          1.4340   -0.0980    2.3850 ca        1 HKY     -0.110300
      7 C7         -2.1840    0.0210    1.1490 c         1 HKY      0.907200
      8 C8          2.1440   -0.2190    3.6880 c3        1 HKY     -0.060100
      9 C9          3.6440   -0.0030    1.1690 c3        1 HKY      0.200100
     10 C10         3.6410    0.0730    3.5730 c3        1 HKY      0.149800
     11 N11         4.2890   -0.4630    2.3890 n3        1 HKY     -0.799200
     12 O12        -2.7840   -0.0540    2.2590 o         1 HKY     -0.831300
     13 O13        -2.7680    0.1050    0.0310 o         1 HKY     -0.831300
     14 H1         -0.5110    0.1590   -0.9830 ha        1 HKY      0.151000
     15 H2          2.0060    0.1360   -0.9750 ha        1 HKY      0.105000
     16 H3         -0.5440   -0.1440    3.3000 ha        1 HKY      0.151000
     17 H91C        4.0240   -0.6280    0.3120 h1        1 HKY      0.044200
     18 H92C        3.9860    1.0580    0.9930 h1        1 HKY      0.044200
     19 H81C        1.9940   -1.2600    4.0840 hc        1 HKY      0.043200
     20 H82C        1.6930    0.4860    4.4340 hc        1 HKY      0.043200
     21 H101        4.1700   -0.3390    4.4770 h1        1 HKY      0.039700
     22 H102        3.7940    1.1890    3.5630 h1        1 HKY      0.039700
     23 H11         4.2460   -1.4680    2.4240 hn        1 HKY      0.340800
@<TRIPOS>BOND
     1    1    2 ar  
     2    1    4 ar  
     3    1   14 1   
     4    2    5 ar  
     5    2   15 1   
     6    3    4 ar  
     7    3    6 ar  
     8    3   16 1   
     9    4    7 1   
    10    5    6 ar  
    11    5    9 1   
    12    6    8 1   
    13    7   12 1   
    14    7   13 1   
    15    8   10 1   
    16    8   19 1   
    17    8   20 1   
    18    9   11 1   
    19    9   17 1   
    20    9   18 1   
    21   10   11 1   
    22   10   21 1   
    23   10   22 1   
    24   11   23 1   
@<TRIPOS>SUBSTRUCTURE
     1 HKY         1 TEMP              0 ****  ****    0 ROOT
