@<TRIPOS>MOLECULE
HKY
   23    24     1     0     0
SMALL
bcc


@<TRIPOS>ATOM
      1 C1          0.0430    0.0500   -0.0340 ca        1 HKY     -0.106000
      2 C2          1.4350    0.0430   -0.0320 ca        1 HKY     -0.154000
      3 C3          0.0380   -0.0820    2.3730 ca        1 HKY     -0.103000
      4 C4         -0.6670   -0.0120    1.1700 ca        1 HKY     -0.120600
      5 C5          2.1400   -0.0270    1.1730 ca        1 HKY     -0.143300
      6 C6          1.4370   -0.0890    2.3860 ca        1 HKY     -0.110300
      7 C7         -2.1880   -0.0060    1.1690 c         1 HKY      0.907200
      8 C8          2.1550   -0.1870    3.6870 c3        1 HKY     -0.060100
      9 C9          3.6390   -0.0060    1.1570 c3        1 HKY      0.200100
     10 C10         3.6500    0.1100    3.5590 c3        1 HKY      0.149800
     11 N11         4.2940   -0.4430    2.3800 n3        1 HKY     -0.799200
     12 O12        -2.7820   -0.0640    2.2830 o         1 HKY     -0.831300
     13 O13        -2.7790    0.0550    0.0530 o         1 HKY     -0.831300
     14 H1         -0.5280    0.1040   -0.9750 ha        1 HKY      0.151000
     15 H2          1.9900    0.0920   -0.9800 ha        1 HKY      0.105000
     16 H3         -0.5360   -0.1290    3.3130 ha        1 HKY      0.151000
     17 H91C        3.9760    1.0540    0.9620 h1        1 HKY      0.044200
     18 H92C        4.0170   -0.6430    0.3080 h1        1 HKY      0.044200
     19 H81C        2.0110   -1.2210    4.1010 hc        1 HKY      0.043200
     20 H82C        1.7050    0.5290    4.4230 hc        1 HKY      0.043200
     21 H101        3.7980    1.2260    3.5300 h1        1 HKY      0.039700
     22 H102        4.1850   -0.2850    4.4660 h1        1 HKY      0.039700
     23 H11         4.2550   -1.4470    2.4310 hn        1 HKY      0.340800
@<TRIPOS>BOND
     1    1    2 ar  
     2    1    4 ar  
     3    1   14 1   
     4    2    5 ar  
     5    2   15 1   
     6    3    4 ar  
     7    3    6 ar  
     8    3   16 1   
     9    4    7 1   
    10    5    6 ar  
    11    5    9 1   
    12    6    8 1   
    13    7   12 1   
    14    7   13 1   
    15    8   10 1   
    16    8   19 1   
    17    8   20 1   
    18    9   11 1   
    19    9   17 1   
    20    9   18 1   
    21   10   11 1   
    22   10   21 1   
    23   10   22 1   
    24   11   23 1   
@<TRIPOS>SUBSTRUCTURE
     1 HKY         1 TEMP              0 ****  ****    0 ROOT
