@<TRIPOS>MOLECULE
HKY
   23    24     1     0     0
SMALL
bcc


@<TRIPOS>ATOM
      1 C1          0.0660    0.0380   -0.0520 ca        1 HKY     -0.106000
      2 C2          1.4570    0.0900   -0.0300 ca        1 HKY     -0.154000
      3 C3          0.0340   -0.1590    2.3500 ca        1 HKY     -0.103000
      4 C4         -0.6570   -0.0870    1.1390 ca        1 HKY     -0.120600
      5 C5          2.1470    0.0170    1.1840 ca        1 HKY     -0.143300
      6 C6          1.4310   -0.1080    2.3840 ca        1 HKY     -0.110300
      7 C7         -2.1780   -0.1460    1.1150 c         1 HKY      0.907200
      8 C8          2.1350   -0.2090    3.6920 c3        1 HKY     -0.060100
      9 C9          3.6450    0.1030    1.1900 c3        1 HKY      0.200100
     10 C10         3.6170    0.1540    3.5940 c3        1 HKY      0.149800
     11 N11         4.3000   -0.3390    2.4110 n7        1 HKY     -0.799200
     12 O12        -2.7830   -0.2590    2.2190 o         1 HKY     -0.831300
     13 O13        -2.7550   -0.0790   -0.0070 o         1 HKY     -0.831300
     14 H1         -0.4940    0.0930   -0.9990 ha        1 HKY      0.151000
     15 H2          2.0210    0.1880   -0.9680 ha        1 HKY      0.105000
     16 H3         -0.5510   -0.2560    3.2800 ha        1 HKY      0.151000
     17 H91C        4.0610   -0.4950    0.3300 h1        1 HKY      0.044200
     18 H92C        3.9380    1.1810    1.0280 h1        1 HKY      0.044200
     19 H81C        1.6440    0.4660    4.4410 hc        1 HKY      0.043200
     20 H82C        2.0300   -1.2600    4.0760 hc        1 HKY      0.043200
     21 H101        4.1560   -0.2430    4.4980 h1        1 HKY      0.039700
     22 H102        3.7180    1.2760    3.5970 h1        1 HKY      0.039700
     23 H11         4.3040   -1.3450    2.4340 hn        1 HKY      0.340800
@<TRIPOS>BOND
     1    1    2 ar  
     2    1    4 ar  
     3    1   14 1   
     4    2    5 ar  
     5    2   15 1   
     6    3    4 ar  
     7    3    6 ar  
     8    3   16 1   
     9    4    7 1   
    10    5    6 ar  
    11    5    9 1   
    12    6    8 1   
    13    7   12 1   
    14    7   13 1   
    15    8   10 1   
    16    8   19 1   
    17    8   20 1   
    18    9   11 1   
    19    9   17 1   
    20    9   18 1   
    21   10   11 1   
    22   10   21 1   
    23   10   22 1   
    24   11   23 1   
@<TRIPOS>SUBSTRUCTURE
     1 HKY         1 TEMP              0 ****  ****    0 ROOT
