@<TRIPOS>MOLECULE
HL0
   44    44     1     0     0
SMALL
bcc


@<TRIPOS>ATOM
      1 N           0.1520    0.8180    0.4080 n4        1 HL0     -0.682800
      2 C1        -10.2240    2.3180   -6.4650 c3        1 HL0     -0.094100
      3 O1          0.1980    2.0900   -1.5330 o         1 HL0     -0.396100
      4 C2         -8.7790    2.7040   -6.2840 c3        1 HL0     -0.079400
      5 O2          1.0080   -2.6360    0.5780 os        1 HL0     -0.343900
      6 C3         -8.1590    1.9930   -5.1000 c3        1 HL0     -0.079400
      7 O3         -0.7150   -1.8790   -0.6310 o         1 HL0     -0.528500
      8 C4         -6.7080    2.3850   -4.9220 c3        1 HL0     -0.079400
      9 C5         -6.0900    1.6720   -3.7370 c3        1 HL0     -0.079400
     10 C6         -4.6390    2.0670   -3.5600 c3        1 HL0     -0.079400
     11 C7         -4.0240    1.3520   -2.3750 c3        1 HL0     -0.081400
     12 C8         -2.5740    1.7540   -2.2030 c3        1 HL0     -0.081400
     13 C9         -1.9730    1.0310   -1.0100 c3        1 HL0     -0.157400
     14 C10        -0.5340    1.4030   -0.8460 c         1 HL0      0.567100
     15 C11         1.0770   -0.2980    0.0610 c3        1 HL0      0.003500
     16 C12         2.1720   -0.5890    1.1030 c3        1 HL0     -0.134400
     17 C13         2.1920   -2.1150    1.2330 c3        1 HL0      0.116400
     18 C14         0.3420   -1.6430   -0.0660 c         1 HL0      0.704600
     19 HN          0.7000    1.5590    0.8620 hn        1 HL0      0.460300
     20 H1        -10.3200    1.2180   -6.6390 hc        1 HL0      0.036367
     21 H1A       -10.6600    2.8530   -7.3430 hc        1 HL0      0.036367
     22 H1B       -10.8200    2.5820   -5.5590 hc        1 HL0      0.036367
     23 H2         -8.2020    2.4540   -7.2140 hc        1 HL0      0.040200
     24 H2A        -8.7010    3.8140   -6.1360 hc        1 HL0      0.040200
     25 H3         -8.2340    0.8830   -5.2480 hc        1 HL0      0.041200
     26 H3A        -8.7340    2.2420   -4.1690 hc        1 HL0      0.041200
     27 H4         -6.1340    2.1350   -5.8530 hc        1 HL0      0.042700
     28 H4A        -6.6340    3.4950   -4.7740 hc        1 HL0      0.042700
     29 H5         -6.1640    0.5620   -3.8860 hc        1 HL0      0.043700
     30 H5A        -6.6660    1.9210   -2.8070 hc        1 HL0      0.043700
     31 H6         -4.5670    3.1770   -3.4120 hc        1 HL0      0.048200
     32 H6A        -4.0650    1.8170   -4.4910 hc        1 HL0      0.048200
     33 H7         -4.6010    1.6020   -1.4450 hc        1 HL0      0.051200
     34 H7A        -4.0960    0.2430   -2.5260 hc        1 HL0      0.051200
     35 H8         -1.9950    1.5020   -3.1310 hc        1 HL0      0.070700
     36 H8A        -2.4990    2.8640   -2.0530 hc        1 HL0      0.070700
     37 H9         -2.5450    1.2900   -0.0770 hc        1 HL0      0.119200
     38 H9A        -2.0410   -0.0880   -1.1630 hc        1 HL0      0.119200
     39 H11         1.5540   -0.0480   -0.9370 hx        1 HL0      0.153700
     40 H12         3.1640   -0.2100    0.7470 hc        1 HL0      0.097700
     41 H12A        1.9620   -0.1160    2.0960 hc        1 HL0      0.097700
     42 H13         3.0720   -2.5770    0.7160 h1        1 HL0      0.106200
     43 H13A        2.1320   -2.4640    2.2960 h1        1 HL0      0.106200
     44 HN3        -0.5620    0.4840    1.0620 hn        1 HL0      0.460300
@<TRIPOS>BOND
     1    1   14 1   
     2    1   15 1   
     3    1   19 1   
     4    1   44 1   
     5    2    4 1   
     6    2   20 1   
     7    2   21 1   
     8    2   22 1   
     9    3   14 2   
    10    4    6 1   
    11    4   23 1   
    12    4   24 1   
    13    5   17 1   
    14    5   18 1   
    15    6    8 1   
    16    6   25 1   
    17    6   26 1   
    18    7   18 2   
    19    8    9 1   
    20    8   27 1   
    21    8   28 1   
    22    9   10 1   
    23    9   29 1   
    24    9   30 1   
    25   10   11 1   
    26   10   31 1   
    27   10   32 1   
    28   11   12 1   
    29   11   33 1   
    30   11   34 1   
    31   12   13 1   
    32   12   35 1   
    33   12   36 1   
    34   13   14 1   
    35   13   37 1   
    36   13   38 1   
    37   15   16 1   
    38   15   18 1   
    39   15   39 1   
    40   16   17 1   
    41   16   40 1   
    42   16   41 1   
    43   17   42 1   
    44   17   43 1   
@<TRIPOS>SUBSTRUCTURE
     1 HL0         1 TEMP              0 ****  ****    0 ROOT
