@<TRIPOS>MOLECULE
HL0
   44    44     1     0     0
SMALL
bcc


@<TRIPOS>ATOM
      1 N           0.1090    0.8050    0.4610 ny        1 HL0     -0.682800
      2 C1        -10.1910    2.2850   -6.5290 c3        1 HL0     -0.094100
      3 O1          0.1470    2.1640   -1.4200 o         1 HL0     -0.396100
      4 C2         -8.7630    2.7090   -6.3030 c3        1 HL0     -0.079400
      5 O2          1.0710   -2.6240    0.4960 os        1 HL0     -0.343900
      6 C3         -8.1400    1.9640   -5.1410 c3        1 HL0     -0.079400
      7 O3         -0.6550   -1.8680   -0.7100 o         1 HL0     -0.528500
      8 C4         -6.7070    2.3940   -4.9180 c3        1 HL0     -0.079400
      9 C5         -6.0860    1.6480   -3.7560 c3        1 HL0     -0.079400
     10 C6         -4.6520    2.0810   -3.5340 c3        1 HL0     -0.079400
     11 C7         -4.0350    1.3330   -2.3710 c3        1 HL0     -0.081400
     12 C8         -2.6010    1.7720   -2.1550 c3        1 HL0     -0.081400
     13 C9         -1.9970    1.0150   -0.9840 c3        1 HL0     -0.157400
     14 C10        -0.5740    1.4240   -0.7770 c         1 HL0      0.567100
     15 C11         1.0750   -0.2650    0.0830 c3        1 HL0      0.003500
     16 C12         2.1610   -0.5670    1.1310 c3        1 HL0     -0.134400
     17 C13         2.2270   -2.0970    1.1940 c3        1 HL0      0.116400
     18 C14         0.3850   -1.6250   -0.1160 c         1 HL0      0.704600
     19 HN          0.6250    1.5420    0.9580 hn        1 HL0      0.460300
     20 H1        -10.8110    2.4870   -5.6220 hc        1 HL0      0.036367
     21 H1A       -10.6300    2.8450   -7.3890 hc        1 HL0      0.036367
     22 H1B       -10.2480    1.1920   -6.7540 hc        1 HL0      0.036367
     23 H2         -8.1630    2.5210   -7.2330 hc        1 HL0      0.040200
     24 H2A        -8.7250    3.8130   -6.1040 hc        1 HL0      0.040200
     25 H3         -8.1770    0.8610   -5.3410 hc        1 HL0      0.041200
     26 H3A        -8.7390    2.1520   -4.2110 hc        1 HL0      0.041200
     27 H4         -6.6710    3.4980   -4.7200 hc        1 HL0      0.042700
     28 H4A        -6.1090    2.2060   -5.8490 hc        1 HL0      0.042700
     29 H5         -6.6850    1.8360   -2.8260 hc        1 HL0      0.043700
     30 H5A        -6.1210    0.5450   -3.9560 hc        1 HL0      0.043700
     31 H6         -4.0540    1.8920   -4.4650 hc        1 HL0      0.048200
     32 H6A        -4.6180    3.1840   -3.3350 hc        1 HL0      0.048200
     33 H7         -4.0670    0.2300   -2.5730 hc        1 HL0      0.051200
     34 H7A        -4.6350    1.5220   -1.4420 hc        1 HL0      0.051200
     35 H8         -1.9980    1.5800   -3.0820 hc        1 HL0      0.070700
     36 H8A        -2.5650    2.8760   -1.9540 hc        1 HL0      0.070700
     37 H9         -2.5940    1.2150   -0.0520 hc        1 HL0      0.119200
     38 H9A        -2.0270   -0.0970   -1.1880 hc        1 HL0      0.119200
     39 H11         1.5600    0.0440   -0.8950 hx        1 HL0      0.153700
     40 H12         3.1460   -0.1420    0.8100 hc        1 HL0      0.097700
     41 H12A        1.9190   -0.1460    2.1400 hc        1 HL0      0.097700
     42 H13         3.1300   -2.5080    0.6740 h1        1 HL0      0.106200
     43 H13A        2.1600   -2.4940    2.2400 h1        1 HL0      0.106200
     44 HN3        -0.6060    0.4210    1.0870 hn        1 HL0      0.460300
@<TRIPOS>BOND
     1    1   14 1   
     2    1   15 1   
     3    1   19 1   
     4    1   44 1   
     5    2    4 1   
     6    2   20 1   
     7    2   21 1   
     8    2   22 1   
     9    3   14 2   
    10    4    6 1   
    11    4   23 1   
    12    4   24 1   
    13    5   17 1   
    14    5   18 1   
    15    6    8 1   
    16    6   25 1   
    17    6   26 1   
    18    7   18 2   
    19    8    9 1   
    20    8   27 1   
    21    8   28 1   
    22    9   10 1   
    23    9   29 1   
    24    9   30 1   
    25   10   11 1   
    26   10   31 1   
    27   10   32 1   
    28   11   12 1   
    29   11   33 1   
    30   11   34 1   
    31   12   13 1   
    32   12   35 1   
    33   12   36 1   
    34   13   14 1   
    35   13   37 1   
    36   13   38 1   
    37   15   16 1   
    38   15   18 1   
    39   15   39 1   
    40   16   17 1   
    41   16   40 1   
    42   16   41 1   
    43   17   42 1   
    44   17   43 1   
@<TRIPOS>SUBSTRUCTURE
     1 HL0         1 TEMP              0 ****  ****    0 ROOT
