@<TRIPOS>MOLECULE
HL0
   44    44     1     0     0
SMALL
bcc


@<TRIPOS>ATOM
      1 N           0.1300    0.8100    0.4300 n4        1 HL0     -0.682800
      2 C1        -10.2220    2.2920   -6.4840 c3        1 HL0     -0.094100
      3 O1          0.1610    2.1450   -1.4690 o         1 HL0     -0.396100
      4 C2         -8.7890    2.7080   -6.2760 c3        1 HL0     -0.079400
      5 O2          1.0580   -2.6280    0.5000 os        1 HL0     -0.343900
      6 C3         -8.1620    1.9720   -5.1100 c3        1 HL0     -0.079400
      7 O3         -0.6730   -1.8700   -0.6980 o         1 HL0     -0.528500
      8 C4         -6.7220    2.3940   -4.9050 c3        1 HL0     -0.079400
      9 C5         -6.0980    1.6570   -3.7390 c3        1 HL0     -0.079400
     10 C6         -4.6580    2.0800   -3.5360 c3        1 HL0     -0.079400
     11 C7         -4.0370    1.3420   -2.3680 c3        1 HL0     -0.081400
     12 C8         -2.5970    1.7710   -2.1710 c3        1 HL0     -0.081400
     13 C9         -1.9890    1.0230   -0.9970 c3        1 HL0     -0.157400
     14 C10        -0.5600    1.4210   -0.8090 c         1 HL0      0.567100
     15 C11         1.0810   -0.2740    0.0560 c3        1 HL0      0.003500
     16 C12         2.1750   -0.5740    1.0960 c3        1 HL0     -0.134400
     17 C13         2.2260   -2.1030    1.1790 c3        1 HL0      0.116400
     18 C14         0.3740   -1.6300   -0.1180 c         1 HL0      0.704600
     19 HN         -0.5830    0.4420    1.0680 hn        1 HL0      0.460300
     20 H1        -10.6640    2.8450   -7.3470 hc        1 HL0      0.036367
     21 H1A       -10.8320    2.5110   -5.5750 hc        1 HL0      0.036367
     22 H1B       -10.2890    1.1970   -6.6960 hc        1 HL0      0.036367
     23 H2         -8.7400    3.8130   -6.0900 hc        1 HL0      0.040200
     24 H2A        -8.1980    2.5040   -7.2080 hc        1 HL0      0.040200
     25 H3         -8.2080    0.8670   -5.2950 hc        1 HL0      0.041200
     26 H3A        -8.7510    2.1770   -4.1770 hc        1 HL0      0.041200
     27 H4         -6.1340    2.1890   -5.8380 hc        1 HL0      0.042700
     28 H4A        -6.6770    3.4990   -4.7210 hc        1 HL0      0.042700
     29 H5         -6.1440    0.5520   -3.9250 hc        1 HL0      0.043700
     30 H5A        -6.6870    1.8620   -2.8060 hc        1 HL0      0.043700
     31 H6         -4.0700    1.8740   -4.4690 hc        1 HL0      0.048200
     32 H6A        -4.6130    3.1860   -3.3510 hc        1 HL0      0.048200
     33 H7         -4.6260    1.5480   -1.4360 hc        1 HL0      0.051200
     34 H7A        -4.0810    0.2360   -2.5560 hc        1 HL0      0.051200
     35 H8         -2.0050    1.5610   -3.1010 hc        1 HL0      0.070700
     36 H8A        -2.5490    2.8760   -1.9850 hc        1 HL0      0.070700
     37 H9         -2.0320   -0.0910   -1.1850 hc        1 HL0      0.119200
     38 H9A        -2.5740    1.2410   -0.0610 hc        1 HL0      0.119200
     39 H11         1.5580    0.0170   -0.9310 hx        1 HL0      0.153700
     40 H12         3.1600   -0.1630    0.7590 hc        1 HL0      0.097700
     41 H12A        1.9480   -0.1380    2.1020 hc        1 HL0      0.097700
     42 H13         3.1190   -2.5300    0.6540 h1        1 HL0      0.106200
     43 H13A        2.1660   -2.4860    2.2290 h1        1 HL0      0.106200
     44 HN3         0.6580    1.5480    0.9120 hn        1 HL0      0.460300
@<TRIPOS>BOND
     1    1   14 1   
     2    1   15 1   
     3    1   19 1   
     4    1   44 1   
     5    2    4 1   
     6    2   20 1   
     7    2   21 1   
     8    2   22 1   
     9    3   14 2   
    10    4    6 1   
    11    4   23 1   
    12    4   24 1   
    13    5   17 1   
    14    5   18 1   
    15    6    8 1   
    16    6   25 1   
    17    6   26 1   
    18    7   18 2   
    19    8    9 1   
    20    8   27 1   
    21    8   28 1   
    22    9   10 1   
    23    9   29 1   
    24    9   30 1   
    25   10   11 1   
    26   10   31 1   
    27   10   32 1   
    28   11   12 1   
    29   11   33 1   
    30   11   34 1   
    31   12   13 1   
    32   12   35 1   
    33   12   36 1   
    34   13   14 1   
    35   13   37 1   
    36   13   38 1   
    37   15   16 1   
    38   15   18 1   
    39   15   39 1   
    40   16   17 1   
    41   16   40 1   
    42   16   41 1   
    43   17   42 1   
    44   17   43 1   
@<TRIPOS>SUBSTRUCTURE
     1 HL0         1 TEMP              0 ****  ****    0 ROOT
