@<TRIPOS>MOLECULE
HL0
   43    43     1     0     0
SMALL
bcc


@<TRIPOS>ATOM
      1 N           3.1020   -0.6160   -0.2210 n         1 HL0     -0.566900
      2 C1         -9.3380   -0.1220   -0.2350 c3        1 HL0     -0.092100
      3 O1          1.9430    0.8810    1.0670 o         1 HL0     -0.594100
      4 C2         -8.0590    0.3810    0.3810 c3        1 HL0     -0.080400
      5 O2          6.5350   -0.2220   -0.9310 os        1 HL0     -0.406900
      6 C3         -6.8440   -0.2320   -0.2820 c3        1 HL0     -0.079400
      7 O3          5.0210    0.9570   -2.0320 o         1 HL0     -0.555500
      8 C4         -5.5610    0.2760    0.3410 c3        1 HL0     -0.079400
      9 C5         -4.3480   -0.3380   -0.3230 c3        1 HL0     -0.079400
     10 C6         -3.0650    0.1700    0.3010 c3        1 HL0     -0.078400
     11 C7         -1.8510   -0.4440   -0.3630 c3        1 HL0     -0.079400
     12 C8         -0.5730    0.0680    0.2640 c3        1 HL0     -0.074400
     13 C9          0.6380   -0.5510   -0.4010 c3        1 HL0     -0.147400
     14 C10         1.9210   -0.0200    0.2090 c         1 HL0      0.666100
     15 C11         4.3870   -0.1110    0.1580 c3        1 HL0      0.022700
     16 C12         5.2850   -1.1090    0.9280 c3        1 HL0     -0.130400
     17 C13         6.6570   -1.0190    0.2640 c3        1 HL0      0.119400
     18 C14         5.2600    0.2860   -1.0380 c         1 HL0      0.685600
     19 HN          3.0710   -1.2700   -0.9660 hn        1 HL0      0.314500
     20 H1        -10.2210    0.3430    0.2680 hc        1 HL0      0.032700
     21 H1A        -9.3790    0.1320   -1.3230 hc        1 HL0      0.032700
     22 H1B        -9.4170   -1.2310   -0.1320 hc        1 HL0      0.032700
     23 H2         -8.0100    1.4990    0.2900 hc        1 HL0      0.038700
     24 H2A        -8.0480    0.1400    1.4770 hc        1 HL0      0.038700
     25 H3         -6.8900   -1.3490   -0.1900 hc        1 HL0      0.039200
     26 H3A        -6.8520    0.0100   -1.3770 hc        1 HL0      0.039200
     27 H4         -5.5150    1.3930    0.2490 hc        1 HL0      0.040200
     28 H4A        -5.5540    0.0340    1.4370 hc        1 HL0      0.040200
     29 H5         -4.3940   -1.4560   -0.2310 hc        1 HL0      0.039200
     30 H5A        -4.3550   -0.0960   -1.4180 hc        1 HL0      0.039200
     31 H6         -3.0190    1.2870    0.2090 hc        1 HL0      0.043700
     32 H6A        -3.0580   -0.0720    1.3970 hc        1 HL0      0.043700
     33 H7         -1.8980   -1.5610   -0.2710 hc        1 HL0      0.038700
     34 H7A        -1.8590   -0.2020   -1.4580 hc        1 HL0      0.038700
     35 H8         -0.5180    1.1850    0.1730 hc        1 HL0      0.060700
     36 H8A        -0.5590   -0.1700    1.3600 hc        1 HL0      0.060700
     37 H9          0.6030   -1.6670   -0.2940 hc        1 HL0      0.067200
     38 H9A         0.6370   -0.3090   -1.4980 hc        1 HL0      0.067200
     39 H11         4.2360    0.8180    0.7900 h1        1 HL0      0.127700
     40 H12         5.3410   -0.8170    2.0050 hc        1 HL0      0.072200
     41 H12A        4.8910   -2.1530    0.8770 hc        1 HL0      0.072200
     42 H13         7.0430   -2.0170   -0.0650 h1        1 HL0      0.065700
     43 H13A        7.4120   -0.5090    0.9140 h1        1 HL0      0.065700
@<TRIPOS>BOND
     1    1   14 1   
     2    1   15 1   
     3    1   19 1   
     4    2    4 1   
     5    2   20 1   
     6    2   21 1   
     7    2   22 1   
     8    3   14 2   
     9    4    6 1   
    10    4   23 1   
    11    4   24 1   
    12    5   17 1   
    13    5   18 1   
    14    6    8 1   
    15    6   25 1   
    16    6   26 1   
    17    7   18 2   
    18    8    9 1   
    19    8   27 1   
    20    8   28 1   
    21    9   10 1   
    22    9   29 1   
    23    9   30 1   
    24   10   11 1   
    25   10   31 1   
    26   10   32 1   
    27   11   12 1   
    28   11   33 1   
    29   11   34 1   
    30   12   13 1   
    31   12   35 1   
    32   12   36 1   
    33   13   14 1   
    34   13   37 1   
    35   13   38 1   
    36   15   16 1   
    37   15   18 1   
    38   15   39 1   
    39   16   17 1   
    40   16   40 1   
    41   16   41 1   
    42   17   42 1   
    43   17   43 1   
@<TRIPOS>SUBSTRUCTURE
     1 HL0         1 TEMP              0 ****  ****    0 ROOT
