@<TRIPOS>MOLECULE
HL2
   22    21     1     0     0
SMALL
bcc


@<TRIPOS>ATOM
      1 C          -1.7950    0.0270   -0.1520 c         1 HL2      0.881600
      2 N          -0.4100    0.1390    1.9520 n3        1 HL2     -0.889800
      3 O          -2.1950   -1.1650    0.0160 o         1 HL2     -0.838300
      4 CA         -0.4420    0.4230    0.5250 c3        1 HL2     -0.013500
      5 CB          0.6850   -0.2860   -0.2560 c3        1 HL2      0.169100
      6 CG          2.0960    0.1490    0.1670 c3        1 HL2     -0.064700
      7 OH          0.6310   -1.6980   -0.0850 oh        1 HL2     -0.653800
      8 CD1         3.1310   -0.5550   -0.6880 c3        1 HL2     -0.084100
      9 CD2         2.2630    1.6490    0.0620 c3        1 HL2     -0.084100
     10 OXT        -2.4070    0.9040   -0.8150 o         1 HL2     -0.838300
     11 HN         -1.3220    0.3320    2.3270 hn        1 HL2      0.333300
     12 HNA        -0.2460   -0.8460    2.0760 hn        1 HL2      0.333300
     13 HA         -0.3140    1.5360    0.4030 h1        1 HL2      0.056700
     14 HB          0.5370   -0.0510   -1.3490 h1        1 HL2      0.031700
     15 HG          2.2460   -0.1640    1.2380 hc        1 HL2      0.058700
     16 HOH        -0.3070   -1.9520   -0.1260 ho        1 HL2      0.448000
     17 HD1         3.0420   -0.2330   -1.7530 hc        1 HL2      0.025700
     18 HD1A        4.1610   -0.3160   -0.3300 hc        1 HL2      0.025700
     19 HD1B        2.9760   -1.6600   -0.6380 hc        1 HL2      0.025700
     20 HD2         1.6760    2.1640    0.8610 hc        1 HL2      0.025700
     21 HD2A        3.3380    1.9260    0.1810 hc        1 HL2      0.025700
     22 HD2B        1.9090    2.0160   -0.9310 hc        1 HL2      0.025700
@<TRIPOS>BOND
     1    1    3 1   
     2    1    4 1   
     3    1   10 1   
     4    2    4 1   
     5    2   11 1   
     6    2   12 1   
     7    4    5 1   
     8    4   13 1   
     9    5    6 1   
    10    5    7 1   
    11    5   14 1   
    12    6    8 1   
    13    6    9 1   
    14    6   15 1   
    15    7   16 1   
    16    8   17 1   
    17    8   18 1   
    18    8   19 1   
    19    9   20 1   
    20    9   21 1   
    21    9   22 1   
@<TRIPOS>SUBSTRUCTURE
     1 HL2         1 TEMP              0 ****  ****    0 ROOT
