@<TRIPOS>MOLECULE
HL4
   25    25     1     0     0
SMALL
bcc


@<TRIPOS>ATOM
      1 C1          1.2610    0.1720   -0.1860 c3        1 HL4      0.022700
      2 C2          2.1340   -0.6390    0.7770 c         1 HL4      0.685600
      3 C4          3.5280    1.0600    0.0580 c3        1 HL4      0.119400
      4 C5          2.1570    1.3870   -0.5280 c3        1 HL4     -0.130400
      5 O6          1.8960   -1.6330    1.4500 o         1 HL4     -0.555500
      6 N7         -0.0260    0.4970    0.3500 n         1 HL4     -0.566900
      7 C8         -1.2040    0.1010   -0.2730 c         1 HL4      0.666100
      8 O9         -1.1790   -0.4160   -1.4050 o         1 HL4     -0.594100
      9 C10        -2.4900    0.3630    0.4870 c3        1 HL4     -0.148400
     10 C11        -3.6990    0.0220   -0.3580 c3        1 HL4     -0.075400
     11 C13        -4.9770    0.2600    0.4030 c3        1 HL4     -0.095100
     12 OAP         3.4070   -0.1250    0.8700 os        1 HL4     -0.406900
     13 H1          1.1130   -0.4550   -1.1200 h1        1 HL4      0.127700
     14 H4          4.2860    0.8300   -0.7330 h1        1 HL4      0.065700
     15 H4A         3.9110    1.8640    0.7360 h1        1 HL4      0.065700
     16 H5          2.2150    1.5170   -1.6350 hc        1 HL4      0.072200
     17 H5A         1.7600    2.3360   -0.0920 hc        1 HL4      0.072200
     18 HN7        -0.0610    0.8270    1.2850 hn        1 HL4      0.314500
     19 H10        -2.4890   -0.2620    1.4200 hc        1 HL4      0.066700
     20 H10A       -2.5330    1.4410    0.7950 hc        1 HL4      0.066700
     21 H11        -3.6840    0.6420   -1.2930 hc        1 HL4      0.059700
     22 H11A       -3.6340   -1.0510   -0.6810 hc        1 HL4      0.059700
     23 H13        -5.0150   -0.3720    1.3230 hc        1 HL4      0.035700
     24 H13A       -5.0640    1.3310    0.7090 hc        1 HL4      0.035700
     25 H13B       -5.8560    0.0040   -0.2370 hc        1 HL4      0.035700
@<TRIPOS>BOND
     1    1    2 1   
     2    1    4 1   
     3    1    6 1   
     4    1   13 1   
     5    2    5 2   
     6    2   12 1   
     7    3    4 1   
     8    3   12 1   
     9    3   14 1   
    10    3   15 1   
    11    4   16 1   
    12    4   17 1   
    13    6    7 1   
    14    6   18 1   
    15    7    8 2   
    16    7    9 1   
    17    9   10 1   
    18    9   19 1   
    19    9   20 1   
    20   10   11 1   
    21   10   21 1   
    22   10   22 1   
    23   11   23 1   
    24   11   24 1   
    25   11   25 1   
@<TRIPOS>SUBSTRUCTURE
     1 HL4         1 TEMP              0 ****  ****    0 ROOT
