@<TRIPOS>MOLECULE
HL4
   26    26     1     0     0
SMALL
bcc


@<TRIPOS>ATOM
      1 C1         -0.0920   -0.3500    0.0270 c3        1 HL4      0.003500
      2 C2          1.1960   -1.1710   -0.1520 c         1 HL4      0.704600
      3 C4          1.3160   -0.3680    2.0110 c3        1 HL4      0.116400
      4 C5         -0.0950   -0.0150    1.5290 c3        1 HL4     -0.134400
      5 O6          1.5530   -1.8210   -1.1230 o         1 HL4     -0.528500
      6 N7         -1.2960   -1.0800   -0.4620 ny        1 HL4     -0.682800
      7 C8         -1.4910   -0.9070   -1.9840 c         1 HL4      0.567100
      8 O9         -1.9030    0.1900   -2.3080 o         1 HL4     -0.396100
      9 C10        -1.1430   -2.1070   -2.8050 c3        1 HL4     -0.158400
     10 C11        -1.4750   -1.8630   -4.2680 c3        1 HL4     -0.078400
     11 C13        -1.0990   -3.0670   -5.0930 c3        1 HL4     -0.103100
     12 OAP         1.9660   -1.1350    0.9660 os        1 HL4     -0.343900
     13 H1         -0.0030    0.6040   -0.5800 hx        1 HL4      0.153700
     14 H4          1.9500    0.5400    2.1820 h1        1 HL4      0.106700
     15 H4A         1.3170   -1.0250    2.9180 h1        1 HL4      0.106700
     16 H5         -0.3050    1.0730    1.6880 hc        1 HL4      0.097700
     17 H5A        -0.8590   -0.5990    2.1020 hc        1 HL4      0.097700
     18 HN7        -2.1190   -0.7010    0.0230 hn        1 HL4      0.460800
     19 H10        -0.0370   -2.3150   -2.6910 hc        1 HL4      0.119200
     20 H10A       -1.7060   -3.0050   -2.4310 hc        1 HL4      0.119200
     21 H11        -2.5710   -1.6480   -4.3760 hc        1 HL4      0.070200
     22 H11A       -0.9190   -0.9580   -4.6330 hc        1 HL4      0.070200
     23 H13        -1.3440   -2.8750   -6.1670 hc        1 HL4      0.057367
     24 H13A       -1.6630   -3.9720   -4.7610 hc        1 HL4      0.057367
     25 H13B       -0.0050   -3.2800   -5.0150 hc        1 HL4      0.057367
     26 H72        -1.2100   -2.0760   -0.2410 hn        1 HL4      0.460800
@<TRIPOS>BOND
     1    1    2 1   
     2    1    4 1   
     3    1    6 1   
     4    1   13 1   
     5    2    5 2   
     6    2   12 1   
     7    3    4 1   
     8    3   12 1   
     9    3   14 1   
    10    3   15 1   
    11    4   16 1   
    12    4   17 1   
    13    6    7 1   
    14    6   18 1   
    15    6   26 1   
    16    7    8 2   
    17    7    9 1   
    18    9   10 1   
    19    9   19 1   
    20    9   20 1   
    21   10   11 1   
    22   10   21 1   
    23   10   22 1   
    24   11   23 1   
    25   11   24 1   
    26   11   25 1   
@<TRIPOS>SUBSTRUCTURE
     1 HL4         1 TEMP              0 ****  ****    0 ROOT
