@<TRIPOS>MOLECULE
HL4
   26    26     1     0     0
SMALL
bcc


@<TRIPOS>ATOM
      1 C1         -0.1210   -0.3350    0.0180 c3        1 HL4      0.003500
      2 C2          1.2040   -1.0930   -0.1810 c         1 HL4      0.704600
      3 C4          1.3180   -0.2820    1.9790 c3        1 HL4      0.116400
      4 C5         -0.1160    0.0000    1.5200 c3        1 HL4     -0.134400
      5 O6          1.5770   -1.7240   -1.1570 o         1 HL4     -0.528500
      6 N7         -1.2940   -1.1240   -0.4520 n4        1 HL4     -0.682800
      7 C8         -1.5220   -0.9630   -1.9700 c         1 HL4      0.567100
      8 O9         -1.9940    0.1120   -2.2870 o         1 HL4     -0.396100
      9 C10        -1.1280   -2.1440   -2.7980 c3        1 HL4     -0.158400
     10 C11        -1.4940   -1.9160   -4.2550 c3        1 HL4     -0.078400
     11 C13        -1.0720   -3.1010   -5.0860 c3        1 HL4     -0.103100
     12 OAP         1.9890   -1.0170    0.9250 os        1 HL4     -0.343900
     13 H1         -0.0880    0.6210   -0.5900 hx        1 HL4      0.153700
     14 H4          1.9090    0.6570    2.1400 h1        1 HL4      0.106700
     15 H4A         1.3660   -0.9370    2.8860 h1        1 HL4      0.106700
     16 H5         -0.3780    1.0770    1.6820 hc        1 HL4      0.097700
     17 H5A        -0.8410   -0.6200    2.1050 hc        1 HL4      0.097700
     18 HN7        -1.1560   -2.1160   -0.2320 hn        1 HL4      0.460800
     19 H10        -1.6410   -3.0690   -2.4160 hc        1 HL4      0.119200
     20 H10A       -0.0120   -2.2970   -2.7000 hc        1 HL4      0.119200
     21 H11        -0.9890   -0.9860   -4.6280 hc        1 HL4      0.070200
     22 H11A       -2.6010   -1.7560   -4.3470 hc        1 HL4      0.070200
     23 H13        -1.3420   -2.9210   -6.1560 hc        1 HL4      0.057367
     24 H13A        0.0320   -3.2600   -5.0250 hc        1 HL4      0.057367
     25 H13B       -1.5850   -4.0320   -4.7460 hc        1 HL4      0.057367
     26 H72        -2.1280   -0.7870    0.0460 hn        1 HL4      0.460800
@<TRIPOS>BOND
     1    1    2 1   
     2    1    4 1   
     3    1    6 1   
     4    1   13 1   
     5    2    5 2   
     6    2   12 1   
     7    3    4 1   
     8    3   12 1   
     9    3   14 1   
    10    3   15 1   
    11    4   16 1   
    12    4   17 1   
    13    6    7 1   
    14    6   18 1   
    15    6   26 1   
    16    7    8 2   
    17    7    9 1   
    18    9   10 1   
    19    9   19 1   
    20    9   20 1   
    21   10   11 1   
    22   10   21 1   
    23   10   22 1   
    24   11   23 1   
    25   11   24 1   
    26   11   25 1   
@<TRIPOS>SUBSTRUCTURE
     1 HL4         1 TEMP              0 ****  ****    0 ROOT
