@<TRIPOS>MOLECULE
HL4
   26    26     1     0     0
SMALL
bcc


@<TRIPOS>ATOM
      1 C1         -0.1200   -0.3490    0.0340 c3        1 HL4      0.003500
      2 C2          1.1880   -1.1400   -0.1440 c         1 HL4      0.704600
      3 C4          1.2810   -0.3460    2.0230 c3        1 HL4      0.116400
      4 C5         -0.1360   -0.0230    1.5380 c3        1 HL4     -0.134400
      5 O6          1.5630   -1.7750   -1.1170 o         1 HL4     -0.528500
      6 N7         -1.3050   -1.1040   -0.4640 n4        1 HL4     -0.682800
      7 C8         -1.4980   -0.9280   -1.9860 c         1 HL4      0.567100
      8 O9         -1.9330    0.1620   -2.3050 o         1 HL4     -0.396100
      9 C10        -1.1190   -2.1150   -2.8130 c3        1 HL4     -0.158400
     10 C11        -1.4500   -1.8690   -4.2760 c3        1 HL4     -0.078400
     11 C13        -1.0430   -3.0600   -5.1050 c3        1 HL4     -0.103100
     12 OAP         1.9530   -1.0930    0.9770 os        1 HL4     -0.343900
     13 H1         -0.0500    0.6100   -0.5670 hx        1 HL4      0.153700
     14 H4          1.2940   -1.0090    2.9260 h1        1 HL4      0.106200
     15 H4A         1.8930    0.5750    2.2020 h1        1 HL4      0.106200
     16 H5         -0.8890   -0.6280    2.1040 hc        1 HL4      0.097700
     17 H5A        -0.3730    1.0590    1.7020 hc        1 HL4      0.097700
     18 HN7        -2.1380   -0.7470    0.0190 hn        1 HL4      0.460800
     19 H10        -1.6630   -3.0270   -2.4460 hc        1 HL4      0.119200
     20 H10A       -0.0090   -2.2980   -2.6950 hc        1 HL4      0.119200
     21 H11        -0.9130   -0.9500   -4.6330 hc        1 HL4      0.070200
     22 H11A       -2.5500   -1.6790   -4.3870 hc        1 HL4      0.070200
     23 H13        -1.2880   -2.8670   -6.1790 hc        1 HL4      0.057367
     24 H13A       -1.5880   -3.9790   -4.7810 hc        1 HL4      0.057367
     25 H13B        0.0550   -3.2490   -5.0240 hc        1 HL4      0.057367
     26 H72        -1.1970   -2.1000   -0.2480 hn        1 HL4      0.460800
@<TRIPOS>BOND
     1    1    2 1   
     2    1    4 1   
     3    1    6 1   
     4    1   13 1   
     5    2    5 2   
     6    2   12 1   
     7    3    4 1   
     8    3   12 1   
     9    3   14 1   
    10    3   15 1   
    11    4   16 1   
    12    4   17 1   
    13    6    7 1   
    14    6   18 1   
    15    6   26 1   
    16    7    8 2   
    17    7    9 1   
    18    9   10 1   
    19    9   19 1   
    20    9   20 1   
    21   10   11 1   
    22   10   21 1   
    23   10   22 1   
    24   11   23 1   
    25   11   24 1   
    26   11   25 1   
@<TRIPOS>SUBSTRUCTURE
     1 HL4         1 TEMP              0 ****  ****    0 ROOT
