@<TRIPOS>MOLECULE
HL6
   32    32     1     0     0
SMALL
bcc


@<TRIPOS>ATOM
      1 N          -0.2840    0.1460    0.8290 n4        1 HL6     -0.680800
      2 C1          1.1770   -1.8750    0.7760 c         1 HL6      0.698600
      3 O1          0.4110   -2.7220    1.2080 o         1 HL6     -0.515500
      4 C2          3.2050   -0.8480    0.3820 c3        1 HL6      0.115400
      5 O2          2.5210   -2.0200    0.8910 os        1 HL6     -0.341900
      6 C3          2.1500    0.2010    0.0100 c3        1 HL6     -0.130400
      7 O3         -0.7090    2.2520   -0.0380 o         1 HL6     -0.390100
      8 C4          0.8090   -0.5460    0.0870 c3        1 HL6      0.004500
      9 C5         -1.0810    1.0940   -0.0720 c         1 HL6      0.553100
     10 C6         -2.2140    0.4620   -0.8210 c3        1 HL6     -0.150400
     11 C7         -2.7120    1.3910   -1.9150 c3        1 HL6     -0.083400
     12 C8         -3.9010    0.7730   -2.6210 c3        1 HL6     -0.082400
     13 C9         -4.4030    1.6850   -3.7220 c3        1 HL6     -0.078400
     14 C10        -5.5870    1.0800   -4.4310 c3        1 HL6     -0.097100
     15 HN         -0.9170   -0.5720    1.2120 hn        1 HL6      0.469300
     16 H2          3.8850   -0.5080    1.2050 h1        1 HL6      0.105700
     17 H2A         3.8010   -1.1880   -0.5050 h1        1 HL6      0.105700
     18 H3          2.2040    1.0750    0.7080 hc        1 HL6      0.100700
     19 H3A         2.3260    0.5850   -1.0270 hc        1 HL6      0.100700
     20 H4          0.4270   -0.7810   -0.9520 hx        1 HL6      0.138700
     21 H6         -3.0460    0.2560   -0.0890 hc        1 HL6      0.106700
     22 H6A        -1.8970   -0.5200   -1.2670 hc        1 HL6      0.106700
     23 H7         -3.0030    2.3800   -1.4700 hc        1 HL6      0.071700
     24 H7A        -1.8890    1.5860   -2.6520 hc        1 HL6      0.071700
     25 H8         -4.7260    0.5860   -1.8850 hc        1 HL6      0.050700
     26 H8A        -3.6100   -0.2190   -3.0590 hc        1 HL6      0.050700
     27 H9         -4.6910    2.6770   -3.2850 hc        1 HL6      0.048200
     28 H9A        -3.5780    1.8730   -4.4590 hc        1 HL6      0.048200
     29 H10        -5.3140    0.1010   -4.8960 hc        1 HL6      0.044700
     30 H10A       -5.9420    1.7660   -5.2380 hc        1 HL6      0.044700
     31 H10B       -6.4310    0.9080   -3.7190 hc        1 HL6      0.044700
     32 HN3         0.1210    0.6800    1.6100 hn        1 HL6      0.469300
@<TRIPOS>BOND
     1    1    8 1   
     2    1    9 1   
     3    1   15 1   
     4    1   32 1   
     5    2    3 2   
     6    2    5 1   
     7    2    8 1   
     8    4    5 1   
     9    4    6 1   
    10    4   16 1   
    11    4   17 1   
    12    6    8 1   
    13    6   18 1   
    14    6   19 1   
    15    7    9 2   
    16    8   20 1   
    17    9   10 1   
    18   10   11 1   
    19   10   21 1   
    20   10   22 1   
    21   11   12 1   
    22   11   23 1   
    23   11   24 1   
    24   12   13 1   
    25   12   25 1   
    26   12   26 1   
    27   13   14 1   
    28   13   27 1   
    29   13   28 1   
    30   14   29 1   
    31   14   30 1   
    32   14   31 1   
@<TRIPOS>SUBSTRUCTURE
     1 HL6         1 TEMP              0 ****  ****    0 ROOT
