@<TRIPOS>MOLECULE
HL6
   32    32     1     0     0
SMALL
bcc


@<TRIPOS>ATOM
      1 N          -0.0870   -0.5990   -0.1160 n4        1 HL6     -0.677800
      2 C1          1.8700   -1.9990    0.5380 c         1 HL6      0.699600
      3 O1          1.3950   -3.1140    0.3940 o         1 HL6     -0.519500
      4 C2          3.2340   -0.3730    1.4430 c3        1 HL6      0.115400
      5 O2          2.9170   -1.7870    1.3750 os        1 HL6     -0.343900
      6 C3          2.1460    0.3950    0.6830 c3        1 HL6     -0.126400
      7 O3          0.1110    0.9440   -1.8640 o         1 HL6     -0.390100
      8 C4          1.3990   -0.6860   -0.1150 c3        1 HL6     -0.000500
      9 C5         -0.6730    0.2380   -1.2570 c         1 HL6      0.552100
     10 C6         -2.1460    0.0420   -1.4640 c3        1 HL6     -0.153400
     11 C7         -2.7120    1.1560   -2.3290 c3        1 HL6     -0.083400
     12 C8         -4.1840    0.9140   -2.5910 c3        1 HL6     -0.082400
     13 C9         -4.7640    2.0210   -3.4480 c3        1 HL6     -0.078400
     14 C10        -6.2290    1.7900   -3.7150 c3        1 HL6     -0.097100
     15 HN         -0.4630   -1.5580   -0.1910 hn        1 HL6      0.468800
     16 H2          4.2470   -0.2490    0.9810 h1        1 HL6      0.104700
     17 H2A         3.2660   -0.1200    2.5340 h1        1 HL6      0.104700
     18 H3          1.4830    0.9420    1.3990 hc        1 HL6      0.097200
     19 H3A         2.6000    1.1500   -0.0080 hc        1 HL6      0.097200
     20 H4          1.7480   -0.6770   -1.1940 hx        1 HL6      0.155700
     21 H6         -2.6880    0.0130   -0.4800 hc        1 HL6      0.105700
     22 H6A        -2.2980   -0.9510   -1.9760 hc        1 HL6      0.105700
     23 H7         -2.5720    2.1440   -1.8160 hc        1 HL6      0.072700
     24 H7A        -2.1520    1.2020   -3.3020 hc        1 HL6      0.072700
     25 H8         -4.7400    0.8630   -1.6180 hc        1 HL6      0.050700
     26 H8A        -4.3220   -0.0720   -3.1090 hc        1 HL6      0.050700
     27 H9         -4.2070    2.0730   -4.4200 hc        1 HL6      0.048200
     28 H9A        -4.6250    3.0070   -2.9310 hc        1 HL6      0.048200
     29 H10        -6.3870    0.8240   -4.2520 hc        1 HL6      0.044700
     30 H10A       -6.6380    2.6150   -4.3470 hc        1 HL6      0.044700
     31 H10B       -6.8070    1.7600   -2.7600 hc        1 HL6      0.044700
     32 HN3        -0.4080   -0.1980    0.7730 hn        1 HL6      0.468800
@<TRIPOS>BOND
     1    1    8 1   
     2    1    9 1   
     3    1   15 1   
     4    1   32 1   
     5    2    3 2   
     6    2    5 1   
     7    2    8 1   
     8    4    5 1   
     9    4    6 1   
    10    4   16 1   
    11    4   17 1   
    12    6    8 1   
    13    6   18 1   
    14    6   19 1   
    15    7    9 2   
    16    8   20 1   
    17    9   10 1   
    18   10   11 1   
    19   10   21 1   
    20   10   22 1   
    21   11   12 1   
    22   11   23 1   
    23   11   24 1   
    24   12   13 1   
    25   12   25 1   
    26   12   26 1   
    27   13   14 1   
    28   13   27 1   
    29   13   28 1   
    30   14   29 1   
    31   14   30 1   
    32   14   31 1   
@<TRIPOS>SUBSTRUCTURE
     1 HL6         1 TEMP              0 ****  ****    0 ROOT
