@<TRIPOS>MOLECULE
HL6
   31    30     1     0     0
SMALL
bcc


@<TRIPOS>ATOM
      1 N           1.5250   -1.2700    0.1910 n         1 HL6     -0.376000
      2 C1          3.4440   -1.8200   -1.0810 c1        1 HL6      0.270000
      3 O1          3.3910   -1.2730   -2.1640 o         1 HL6     -0.280000
      4 C2          3.7700   -3.3380    0.5210 c3        1 HL6     -0.031000
      5 O2          4.2810   -2.7240   -0.7340 o         1 HL6     -0.245000
      6 C3          3.2910   -2.3310    1.2650 c3        1 HL6     -0.209000
      7 O3          1.4420    0.9910   -0.1130 o         1 HL6     -0.355000
      8 C4          2.8330   -1.2700    0.2670 c3        1 HL6     -0.004000
      9 C5          0.8270   -0.0510   -0.0100 c2        1 HL6      0.310000
     10 C6         -0.6830   -0.0510   -0.1010 c3        1 HL6     -0.176000
     11 C7         -1.1900    1.3740   -0.0720 c3        1 HL6     -0.154000
     12 C8         -2.6930    1.3790   -0.2430 c3        1 HL6     -0.159000
     13 C9         -3.2090    2.7960   -0.1290 c3        1 HL6     -0.158000
     14 C10        -4.6640    2.8380   -0.5410 c3        1 HL6     -0.211000
     15 HN          1.0630   -2.0540    0.2670 hn        1 HL6      0.228000
     16 H2          4.4990   -3.7890    0.9950 h1        1 HL6      0.105000
     17 H2A         3.0550   -3.9750    0.3170 h1        1 HL6      0.105000
     18 H3          2.5330   -2.6390    1.8040 hc        1 HL6      0.111500
     19 H3A         3.9950   -1.9700    1.8430 hc        1 HL6      0.111500
     20 H4          3.0080   -0.3350    0.4920 h1        1 HL6      0.167000
     21 H6         -0.9590   -0.4780   -0.9370 hc        1 HL6      0.106500
     22 H6A        -1.0550   -0.5450    0.6560 hc        1 HL6      0.106500
     23 H7         -0.7770    1.8820   -0.7980 hc        1 HL6      0.100000
     24 H7A        -0.9580    1.7850    0.7860 hc        1 HL6      0.100000
     25 H8         -3.1020    0.8260    0.4520 hc        1 HL6      0.077500
     26 H8A        -2.9210    1.0190   -1.1230 hc        1 HL6      0.077500
     27 H9         -2.6880    3.3820   -0.7140 hc        1 HL6      0.082000
     28 H9A        -3.1240    3.1010    0.7970 hc        1 HL6      0.082000
     29 H10        -5.0310    3.7280   -0.3570 hc        1 HL6      0.072333
     30 H10A       -4.7380    2.6460   -1.4990 hc        1 HL6      0.072333
     31 H10B       -5.1670    2.1660   -0.0340 hc        1 HL6      0.072333
@<TRIPOS>BOND
     1    1    8 1   
     2    1    9 1   
     3    1   15 1   
     4    2    3 1   
     5    2    8 1   
     6    4    5 1   
     7    4    6 1   
     8    4   16 1   
     9    4   17 1   
    10    6    8 1   
    11    6   18 1   
    12    6   19 1   
    13    7    9 1   
    14    8   20 1   
    15    9   10 1   
    16   10   11 1   
    17   10   21 1   
    18   10   22 1   
    19   11   12 1   
    20   11   23 1   
    21   11   24 1   
    22   12   13 1   
    23   12   25 1   
    24   12   26 1   
    25   13   14 1   
    26   13   27 1   
    27   13   28 1   
    28   14   29 1   
    29   14   30 1   
    30   14   31 1   
@<TRIPOS>SUBSTRUCTURE
     1 HL6         1 TEMP              0 ****  ****    0 ROOT
