@<TRIPOS>MOLECULE
HL6
   32    32     1     0     0
SMALL
bcc


@<TRIPOS>ATOM
      1 N           0.1160    0.8690    0.4100 ny        1 HL6     -0.682800
      2 C1          0.8910   -1.4230   -0.2670 c         1 HL6      0.704600
      3 O1         -0.0590   -1.8360   -0.9140 o         1 HL6     -0.528500
      4 C2          2.7480   -1.5900    1.0970 c3        1 HL6      0.116400
      5 O2          1.7430   -2.2980    0.3270 os        1 HL6     -0.343900
      6 C3          2.3780   -0.1030    1.1010 c3        1 HL6     -0.134400
      7 O3         -0.0580    2.3080   -1.4030 o         1 HL6     -0.396100
      8 C4          1.2880    0.0340    0.0240 c3        1 HL6      0.003500
      9 C5         -0.6360    1.4070   -0.8270 c         1 HL6      0.567100
     10 C6         -1.9420    0.7350   -1.1130 c3        1 HL6     -0.157400
     11 C7         -2.6440    1.4170   -2.2740 c3        1 HL6     -0.081400
     12 C8         -3.9530    0.7140   -2.5710 c3        1 HL6     -0.081400
     13 C9         -4.6680    1.3810   -3.7290 c3        1 HL6     -0.078400
     14 C10        -5.9730    0.6910   -4.0320 c3        1 HL6     -0.097100
     15 HN          0.4590    1.6660    0.9610 hn        1 HL6      0.460300
     16 H2          2.7280   -2.0490    2.1190 h1        1 HL6      0.106200
     17 H2A         3.7310   -1.7860    0.5960 h1        1 HL6      0.106200
     18 H3          2.0250    0.2070    2.1170 hc        1 HL6      0.097700
     19 H3A         3.2680    0.5250    0.8420 hc        1 HL6      0.097700
     20 H4          1.7320    0.4850   -0.9170 hx        1 HL6      0.153700
     21 H6         -2.5970    0.7650   -0.1990 hc        1 HL6      0.119200
     22 H6A        -1.7420   -0.3490   -1.3650 hc        1 HL6      0.119200
     23 H7         -1.9840    1.3950   -3.1820 hc        1 HL6      0.070700
     24 H7A        -2.8360    2.4940   -2.0250 hc        1 HL6      0.070700
     25 H8         -3.7590   -0.3630   -2.8210 hc        1 HL6      0.051200
     26 H8A        -4.6110    0.7350   -1.6630 hc        1 HL6      0.051200
     27 H9         -4.8590    2.4580   -3.4810 hc        1 HL6      0.047700
     28 H9A        -4.0090    1.3600   -4.6370 hc        1 HL6      0.047700
     29 H10        -6.4830    1.1960   -4.8880 hc        1 HL6      0.043700
     30 H10A       -6.6540    0.7230   -3.1480 hc        1 HL6      0.043700
     31 H10B       -5.8010   -0.3780   -4.3060 hc        1 HL6      0.043700
     32 HN3        -0.5270    0.3190    0.9870 hn        1 HL6      0.460300
@<TRIPOS>BOND
     1    1    8 1   
     2    1    9 1   
     3    1   15 1   
     4    1   32 1   
     5    2    3 2   
     6    2    5 1   
     7    2    8 1   
     8    4    5 1   
     9    4    6 1   
    10    4   16 1   
    11    4   17 1   
    12    6    8 1   
    13    6   18 1   
    14    6   19 1   
    15    7    9 2   
    16    8   20 1   
    17    9   10 1   
    18   10   11 1   
    19   10   21 1   
    20   10   22 1   
    21   11   12 1   
    22   11   23 1   
    23   11   24 1   
    24   12   13 1   
    25   12   25 1   
    26   12   26 1   
    27   13   14 1   
    28   13   27 1   
    29   13   28 1   
    30   14   29 1   
    31   14   30 1   
    32   14   31 1   
@<TRIPOS>SUBSTRUCTURE
     1 HL6         1 TEMP              0 ****  ****    0 ROOT
