@<TRIPOS>MOLECULE
HL6
   31    31     1     0     0
SMALL
bcc


@<TRIPOS>ATOM
      1 N          -0.9800    0.4290   -0.3300 n         1 HL6     -0.566900
      2 C1         -3.1410   -0.7440   -0.6340 c         1 HL6      0.685600
      3 O1         -2.9090   -1.7870   -1.2310 o         1 HL6     -0.555500
      4 C2         -4.5320    1.0020   -0.0290 c3        1 HL6      0.119400
      5 O2         -4.4180   -0.2430   -0.7480 os        1 HL6     -0.406900
      6 C3         -3.1530    1.3780    0.5090 c3        1 HL6     -0.130400
      7 O3          0.2030   -0.3410    1.4730 o         1 HL6     -0.594100
      8 C4         -2.2570    0.1430    0.2490 c3        1 HL6      0.022700
      9 C5          0.2090    0.0860    0.3040 c         1 HL6      0.666100
     10 C6          1.4820    0.2920   -0.4940 c3        1 HL6     -0.147400
     11 C7          2.7040    0.0300    0.3600 c3        1 HL6     -0.075400
     12 C8          3.9720    0.2130   -0.4450 c3        1 HL6     -0.080400
     13 C9          5.1990   -0.0470    0.4050 c3        1 HL6     -0.079400
     14 C10         6.4670    0.1320   -0.3880 c3        1 HL6     -0.093100
     15 HN         -0.9610    0.6850   -1.2880 hn        1 HL6      0.314500
     16 H2         -4.9280    1.7490   -0.7620 h1        1 HL6      0.065700
     17 H2A        -5.2770    0.8320    0.7890 h1        1 HL6      0.065700
     18 H3         -2.7670    2.2920   -0.0060 hc        1 HL6      0.072200
     19 H3A        -3.1960    1.5940    1.6030 hc        1 HL6      0.072200
     20 H4         -2.0940   -0.4090    1.2270 h1        1 HL6      0.127700
     21 H6          1.4710   -0.4080   -1.3720 hc        1 HL6      0.067200
     22 H6A         1.5130    1.3410   -0.8910 hc        1 HL6      0.067200
     23 H7          2.7020    0.7260    1.2400 hc        1 HL6      0.060700
     24 H7A         2.6540   -1.0130    0.7720 hc        1 HL6      0.060700
     25 H8          3.9690   -0.4880   -1.3210 hc        1 HL6      0.038200
     26 H8A         4.0140    1.2560   -0.8550 hc        1 HL6      0.038200
     27 H9          5.2000    0.6530    1.2820 hc        1 HL6      0.042700
     28 H9A         5.1540   -1.0900    0.8160 hc        1 HL6      0.042700
     29 H10         6.4950   -0.5750   -1.2530 hc        1 HL6      0.033033
     30 H10A        6.5420    1.1730   -0.7850 hc        1 HL6      0.033033
     31 H10B        7.3580   -0.0640    0.2570 hc        1 HL6      0.033033
@<TRIPOS>BOND
     1    1    8 1   
     2    1    9 1   
     3    1   15 1   
     4    2    3 2   
     5    2    5 1   
     6    2    8 1   
     7    4    5 1   
     8    4    6 1   
     9    4   16 1   
    10    4   17 1   
    11    6    8 1   
    12    6   18 1   
    13    6   19 1   
    14    7    9 2   
    15    8   20 1   
    16    9   10 1   
    17   10   11 1   
    18   10   21 1   
    19   10   22 1   
    20   11   12 1   
    21   11   23 1   
    22   11   24 1   
    23   12   13 1   
    24   12   25 1   
    25   12   26 1   
    26   13   14 1   
    27   13   27 1   
    28   13   28 1   
    29   14   29 1   
    30   14   30 1   
    31   14   31 1   
@<TRIPOS>SUBSTRUCTURE
     1 HL6         1 TEMP              0 ****  ****    0 ROOT
