@<TRIPOS>MOLECULE
HLC
   37    33     1     0     0
SMALL
bcc


@<TRIPOS>ATOM
      1 N1         -0.1350   -1.4700    0.4550 n8        1 HLC     -0.315000
      2 C1         -0.8540    0.0040   -1.3620 c2        1 HLC      0.362000
      3 O1         -1.9320    0.5840   -1.5270 o         1 HLC     -0.348000
      4 C2          0.9040   -1.1440   -2.5340 c3        1 HLC     -0.076000
      5 O2         -0.3530   -0.4690   -2.5450 os        1 HLC     -0.278000
      6 C3          0.3670    0.9240    0.5420 c2        1 HLC     -0.230000
      7 O3         -5.7600    1.5600   -1.0960 o         1 HLC     -0.401000
      8 C4         -0.1220   -0.1720   -0.0740 c2        1 HLC     -0.068000
      9 O4          1.3220    3.0660   -6.2380 o         1 HLC     -0.144000
     10 C5          0.3140    2.4940   -6.1000 c1        1 HLC      0.152000
     11 C6         -4.2390    1.4070    2.2150 c3        1 HLC     -0.214000
     12 C7         -4.4310    0.9270    0.8010 c3        1 HLC     -0.242000
     13 C8         -5.2560    1.8720   -0.0080 c2        1 HLC      0.235000
     14 C9         -3.1360    0.5050   -4.4450 c2        1 HLC      0.026000
     15 C10        -2.6440    0.9260   -5.7230 c2        1 HLC     -0.500000
     16 C11        -3.1690    0.8780   -6.9340 c1        1 HLC      0.326000
     17 C12        -6.5470    0.5400   -3.3360 c2        1 HLC      0.165000
     18 C13        -5.5640   -0.3250   -3.8130 c2        1 HLC     -0.203000
     19 C14        -4.3470    0.1260   -4.1600 c1        1 HLC      0.054000
     20 H1          0.3740   -1.5540    1.3110 hn        1 HLC      0.190500
     21 H2          0.7370   -2.2200   -2.2830 h1        1 HLC      0.099333
     22 H3          1.6170   -0.6690   -1.8190 h1        1 HLC      0.099333
     23 H4          1.2750   -1.0440   -3.5860 h1        1 HLC      0.099333
     24 H5          0.9170    0.8760    1.4910 ha        1 HLC      0.142500
     25 H6          0.2190    1.9290    0.1280 ha        1 HLC      0.142500
     26 H7         -3.6030    0.6830    2.7800 hc        1 HLC      0.087000
     27 H8         -5.2200    1.4980    2.7420 hc        1 HLC      0.087000
     28 H9         -3.7360    2.4050    2.2330 hc        1 HLC      0.087000
     29 H10        -3.4330    0.8190    0.2860 hc        1 HLC      0.128500
     30 H11        -4.9100   -0.0890    0.7980 hc        1 HLC      0.128500
     31 H12        -5.3940    2.8960    0.4080 h4        1 HLC      0.108000
     32 H13        -2.3930    0.5070   -3.5920 ha        1 HLC      0.259000
     33 H14        -1.6070    1.3790   -5.7120 ha        1 HLC      0.256000
     34 H15        -6.3660    1.6330   -3.2330 h4        1 HLC      0.215000
     35 H16        -5.7760   -1.4120   -3.8950 ha        1 HLC      0.194000
     36 Cl1        -8.0390    0.0210   -2.8920 cl        1 HLC      0.185000
     37 H121        0.1090   -2.1780   -0.2050 hn        1 HLC      0.190500
@<TRIPOS>BOND
     1    1    8 1   
     2    1   20 1   
     3    1   37 1   
     4    2    3 1   
     5    2    5 1   
     6    2    8 1   
     7    4    5 1   
     8    4   21 1   
     9    4   22 1   
    10    4   23 1   
    11    6    8 1   
    12    6   24 1   
    13    6   25 1   
    14    7   13 1   
    15    9   10 1   
    16   11   12 1   
    17   11   26 1   
    18   11   27 1   
    19   11   28 1   
    20   12   13 1   
    21   12   29 1   
    22   12   30 1   
    23   13   31 1   
    24   14   15 1   
    25   14   19 1   
    26   14   32 1   
    27   15   16 1   
    28   15   33 1   
    29   17   18 1   
    30   17   34 1   
    31   17   36 1   
    32   18   19 1   
    33   18   35 1   
@<TRIPOS>SUBSTRUCTURE
     1 HLC         1 TEMP              0 ****  ****    0 ROOT
