@<TRIPOS>MOLECULE
HLC
   37    38     1     0     0
SMALL
bcc


@<TRIPOS>ATOM
      1 N1         -0.6790   -0.3910    2.2000 n3        1 HLC     -0.313000
      2 C1         -0.0760    0.3050   -0.0660 c2        1 HLC      0.395000
      3 O1         -0.6890    0.9250   -0.9500 o         1 HLC     -0.410000
      4 C2          1.5360   -1.4560    0.2560 c3        1 HLC     -0.075000
      5 O2          0.6690   -0.7060   -0.5980 os        1 HLC     -0.279000
      6 C3          0.2460    1.8460    1.7950 c2        1 HLC     -0.200000
      7 O3         -4.0640    0.3230   -4.3650 os        1 HLC     -0.220000
      8 C4         -0.1130    0.6100    1.3930 c2        1 HLC     -0.080000
      9 O4         -2.4810    1.2310   -3.0580 os        1 HLC     -0.122000
     10 C5         -1.2260    0.9570   -3.2480 c2        1 HLC      0.315000
     11 C6         -0.9580   -0.4730   -3.5580 c3        1 HLC     -0.243000
     12 C7         -2.3370   -1.1350   -3.5580 c3        1 HLC     -0.197000
     13 C8         -3.3390   -0.0150   -3.2360 c3        1 HLC      0.142000
     14 C9         -5.3540    0.8650   -4.1800 cx        1 HLC      0.136000
     15 C10        -5.4640    2.0890   -3.2390 cx        1 HLC     -0.222000
     16 C11        -6.6020    3.0180   -3.0320 c2        1 HLC     -0.087000
     17 C12        -7.6430    2.3200   -2.4550 c2        1 HLC     -0.122000
     18 C13        -7.3740    0.8660   -2.5120 c2        1 HLC      0.023000
     19 C14        -6.0870    0.7380   -2.9300 cu        1 HLC     -0.304000
     20 H1         -0.8260   -0.0900    3.1420 hn        1 HLC      0.189000
     21 H2          0.9620   -2.3150    0.6830 h1        1 HLC      0.105000
     22 H3          2.3380   -1.8250   -0.4330 h1        1 HLC      0.105000
     23 H4          1.9730   -0.8160    1.0590 h1        1 HLC      0.105000
     24 H5          0.2440    2.1500    2.8510 ha        1 HLC      0.145500
     25 H6          0.5420    2.6230    1.0780 ha        1 HLC      0.145500
     26 H7         -0.4950    1.7830   -3.1590 h4        1 HLC      0.239000
     27 H8         -0.4280   -0.5830   -4.5420 hc        1 HLC      0.186500
     28 H9         -0.2840   -0.8990   -2.7570 hc        1 HLC      0.186500
     29 H10        -2.4070   -1.9330   -2.7780 hc        1 HLC      0.152000
     30 H11        -2.5720   -1.5890   -4.5550 hc        1 HLC      0.152000
     31 H12        -3.9230   -0.0930   -2.2810 h2        1 HLC      0.199000
     32 H13        -5.8490    0.7750   -5.1730 h1        1 HLC      0.183000
     33 H14        -4.5050    2.4520   -2.8300 hc        1 HLC      0.166000
     34 H15        -6.5370    4.0940   -3.1980 ha        1 HLC      0.175000
     35 H16        -8.1230    0.0990   -2.3120 ha        1 HLC      0.183000
     36 CL1        -9.0750    2.9510   -1.8770 cl        1 HLC      0.058000
     37 H121       -0.1870   -1.2600    2.1600 hn        1 HLC      0.189000
@<TRIPOS>BOND
     1    1    8 1   
     2    1   20 1   
     3    1   37 1   
     4    2    3 1   
     5    2    5 1   
     6    2    8 1   
     7    4    5 1   
     8    4   21 1   
     9    4   22 1   
    10    4   23 1   
    11    6    8 1   
    12    6   24 1   
    13    6   25 1   
    14    7   13 1   
    15    7   14 1   
    16    9   10 1   
    17    9   13 1   
    18   10   11 1   
    19   10   26 1   
    20   11   12 1   
    21   11   27 1   
    22   11   28 1   
    23   12   13 1   
    24   12   29 1   
    25   12   30 1   
    26   13   31 1   
    27   14   15 1   
    28   14   19 1   
    29   14   32 1   
    30   15   16 1   
    31   15   19 1   
    32   15   33 1   
    33   16   17 1   
    34   16   34 1   
    35   17   18 1   
    36   17   36 1   
    37   18   19 1   
    38   18   35 1   
@<TRIPOS>SUBSTRUCTURE
     1 HLC         1 TEMP              0 ****  ****    0 ROOT
