@<TRIPOS>MOLECULE
HLC
   37    36     1     0     0
SMALL
bcc


@<TRIPOS>ATOM
      1 N1          0.5170   -1.8660    0.5630 n3        1 HLC     -0.314000
      2 C1         -0.1320   -0.0850   -0.9870 c2        1 HLC      0.381000
      3 O1         -1.0630    0.7260   -0.9100 o         1 HLC     -0.393000
      4 C2          1.1520   -1.4090   -2.5240 c3        1 HLC     -0.079000
      5 O2          0.0580   -0.5290   -2.2610 os        1 HLC     -0.254000
      6 C3          1.5200    0.3590    0.7590 c2        1 HLC     -0.228000
      7 O3         -4.3430    0.3180   -1.2470 os        1 HLC     -0.106000
      8 C4          0.7270   -0.5440    0.1460 c2        1 HLC     -0.073000
      9 O4         -1.5390    2.7370   -2.6350 o         1 HLC     -0.073000
     10 C5         -2.5150    2.3510   -2.1340 c1        1 HLC      0.136000
     11 C6         -3.6700    3.4040    0.6310 c3        1 HLC     -0.224000
     12 C7         -3.6990    1.9170    0.3820 c3        1 HLC     -0.219000
     13 C8         -4.3090    1.5940   -0.9290 c2        1 HLC      0.329000
     14 C9         -5.0870   -0.1000   -2.4070 cx        1 HLC      0.109000
     15 C10        -4.3910    0.2150   -3.7450 cx        1 HLC     -0.183000
     16 C11        -4.7380   -0.2630   -5.1080 c2        1 HLC     -0.076000
     17 C12        -5.9530    0.2820   -5.4700 c2        1 HLC     -0.125000
     18 C13        -6.6120    0.8830   -4.2890 c2        1 HLC      0.064000
     19 C14        -5.6800    0.8800   -3.2950 cu        1 HLC     -0.339000
     20 H1          1.1170   -2.1430    1.3130 hn        1 HLC      0.189500
     21 H2          0.8250   -2.4600   -2.3350 h1        1 HLC      0.101000
     22 H3          2.0460   -1.1480   -1.9080 h1        1 HLC      0.101000
     23 H4          1.3650   -1.2550   -3.6130 h1        1 HLC      0.101000
     24 H5          1.5310    1.4130    0.4550 ha        1 HLC      0.142000
     25 H6          2.1800    0.0980    1.5960 ha        1 HLC      0.142000
     26 H7         -3.2060    3.6020    1.6290 hc        1 HLC      0.103333
     27 H8         -3.0610    3.9230   -0.1500 hc        1 HLC      0.103333
     28 H9         -4.7000    3.8370    0.6300 hc        1 HLC      0.103333
     29 H10        -4.2980    1.3910    1.1840 hc        1 HLC      0.179500
     30 H11        -2.6550    1.4800    0.4350 hc        1 HLC      0.179500
     31 H12        -4.8750    2.3390   -1.5330 h4        1 HLC      0.201000
     32 H13        -5.5600   -1.0620   -2.1110 h1        1 HLC      0.197000
     33 H14        -3.3790    0.6530   -3.6630 hc        1 HLC      0.174000
     34 H15        -4.0520   -0.8370   -5.7350 ha        1 HLC      0.185000
     35 H16        -7.6620    1.1850   -4.2620 ha        1 HLC      0.191000
     36 CL1        -6.6860    0.1970   -6.9630 cl        1 HLC      0.080000
     37 H121        0.5170   -2.5270   -0.1860 hn        1 HLC      0.189500
@<TRIPOS>BOND
     1    1    8 1   
     2    1   20 1   
     3    1   37 1   
     4    2    3 1   
     5    2    5 1   
     6    2    8 1   
     7    4    5 1   
     8    4   21 1   
     9    4   22 1   
    10    4   23 1   
    11    6    8 1   
    12    6   24 1   
    13    6   25 1   
    14    7   13 1   
    15    7   14 1   
    16    9   10 1   
    17   11   12 1   
    18   11   26 1   
    19   11   27 1   
    20   11   28 1   
    21   12   13 1   
    22   12   29 1   
    23   12   30 1   
    24   13   31 1   
    25   14   15 1   
    26   14   19 1   
    27   14   32 1   
    28   15   16 1   
    29   15   19 1   
    30   15   33 1   
    31   16   17 1   
    32   16   34 1   
    33   17   18 1   
    34   17   36 1   
    35   18   19 1   
    36   18   35 1   
@<TRIPOS>SUBSTRUCTURE
     1 HLC         1 TEMP              0 ****  ****    0 ROOT
