@<TRIPOS>MOLECULE
HLC
   36    37     1     0     0
SMALL
bcc


@<TRIPOS>ATOM
      1 N1         -3.5630   -0.3140    0.2860 n         1 HLC     -0.561900
      2 C1         -5.7480   -1.4750    0.3660 c         1 HLC      0.686600
      3 O1         -5.7290   -2.2210    1.3350 o         1 HLC     -0.553500
      4 C2         -6.5030   -0.8630   -1.7330 c3        1 HLC      0.119400
      5 O2         -6.6160   -1.8070   -0.6490 os        1 HLC     -0.405900
      6 C3         -5.3720    0.1110   -1.4100 c3        1 HLC     -0.131400
      7 O3          1.5870    0.0090   -0.6660 os        1 HLC     -0.329900
      8 C4         -4.9700   -0.1920    0.0530 c3        1 HLC      0.022700
      9 O4         -3.4550    1.4850    1.7020 o         1 HLC     -0.592100
     10 C5         -2.8880    0.5120    1.1710 c         1 HLC      0.669100
     11 C6         -1.4350    0.1890    1.4580 c3        1 HLC     -0.154400
     12 C7         -0.5870    0.2110    0.2070 c3        1 HLC     -0.084400
     13 C8          0.8830    0.0910    0.5790 c3        1 HLC      0.128400
     14 C9          2.9620   -0.0810   -0.5760 ca        1 HLC      0.127100
     15 C10         3.6260   -0.1330   -1.8180 ca        1 HLC     -0.172500
     16 C11         5.0110   -0.2290   -1.8460 ca        1 HLC     -0.090000
     17 C12         5.7340   -0.2720   -0.6470 ca        1 HLC     -0.017600
     18 C13         5.0730   -0.2200    0.5820 ca        1 HLC     -0.090000
     19 C14         3.6830   -0.1250    0.6230 ca        1 HLC     -0.172500
     20 H1         -3.1050   -1.1150   -0.0770 hn        1 HLC      0.318500
     21 H2         -6.3030   -1.4680   -2.6530 h1        1 HLC      0.066700
     22 H3         -7.4950   -0.3510   -1.8160 h1        1 HLC      0.066700
     23 H4         -4.5190   -0.0300   -2.1180 hc        1 HLC      0.072700
     24 H5         -5.7180    1.1690   -1.4990 hc        1 HLC      0.072700
     25 H6         -5.3760    0.6240    0.7280 h1        1 HLC      0.127700
     26 H7         -1.0630    0.9570    2.1890 hc        1 HLC      0.079200
     27 H8         -1.3740   -0.8150    1.9560 hc        1 HLC      0.079200
     28 H9         -0.8600   -0.6340   -0.4780 hc        1 HLC      0.064200
     29 H10        -0.7490    1.1660   -0.3580 hc        1 HLC      0.064200
     30 H11         1.0740   -0.8370    1.1800 h1        1 HLC      0.044700
     31 H12         1.2300    0.9910    1.1510 h1        1 HLC      0.044700
     32 H13         3.0410   -0.0970   -2.7470 ha        1 HLC      0.148000
     33 H14         5.5380   -0.2700   -2.8120 ha        1 HLC      0.149500
     34 H15         5.6440   -0.2540    1.5230 ha        1 HLC      0.149500
     35 H16         3.1750   -0.0850    1.5960 ha        1 HLC      0.148000
     36 CL1         7.4290   -0.3890   -0.6910 cl        1 HLC     -0.093400
@<TRIPOS>BOND
     1    1    8 1   
     2    1   10 1   
     3    1   20 1   
     4    2    3 2   
     5    2    5 1   
     6    2    8 1   
     7    4    5 1   
     8    4    6 1   
     9    4   21 1   
    10    4   22 1   
    11    6    8 1   
    12    6   23 1   
    13    6   24 1   
    14    7   13 1   
    15    7   14 1   
    16    8   25 1   
    17    9   10 2   
    18   10   11 1   
    19   11   12 1   
    20   11   26 1   
    21   11   27 1   
    22   12   13 1   
    23   12   28 1   
    24   12   29 1   
    25   13   30 1   
    26   13   31 1   
    27   14   15 ar  
    28   14   19 ar  
    29   15   16 ar  
    30   15   32 1   
    31   16   17 ar  
    32   16   33 1   
    33   17   18 ar  
    34   17   36 1   
    35   18   19 ar  
    36   18   34 1   
    37   19   35 1   
@<TRIPOS>SUBSTRUCTURE
     1 HLC         1 TEMP              0 ****  ****    0 ROOT
