@<TRIPOS>MOLECULE
HLD
   15    12     1     0     0
SMALL
bcc


@<TRIPOS>ATOM
      1 OAC        -3.0420   -0.2020   -0.0090 o         1 HLD     -0.455000
      2 CAM        -1.8270   -0.2020   -0.0090 c1        1 HLD      0.307000
      3 CAF        -1.0950   -0.2020    1.2590 c1        1 HLD     -0.363000
      4 CAK         0.4130   -0.0790    1.2570 c1        1 HLD      0.065000
      5 CAI         1.1660    0.0250    2.5650 c1        1 HLD      0.381000
      6 OAD         1.3550    1.1520    3.0940 o         1 HLD     -0.551000
      7 OAA         1.6040   -1.0140    3.1240 o         1 HLD     -0.551000
      8 CAG        -1.0950   -0.0830   -1.2720 c2        1 HLD     -0.363000
      9 CAL         0.4130    0.0390   -1.2590 c1        1 HLD      0.065000
     10 OAH         1.1380   -0.0540   -0.0020 o         1 HLD     -0.085000
     11 CAJ         1.1660    0.2650   -2.5510 c2        1 HLD      0.381000
     12 OAE         1.6030   -0.7180   -3.2060 o         1 HLD     -0.551000
     13 OAB         1.3550    1.4360   -2.9730 o         1 HLD     -0.551000
     14 H1         -1.5830   -0.2070    2.1040 ha        1 HLD      0.136000
     15 H3         -1.5710   -0.1570   -2.1210 ha        1 HLD      0.136000
@<TRIPOS>BOND
     1    1    2 1   
     2    2    8 1   
     3    3    4 1   
     4    3   14 1   
     5    4   10 1   
     6    5    6 1   
     7    5    7 1   
     8    8    9 1   
     9    8   15 1   
    10    9   11 1   
    11   11   12 1   
    12   11   13 1   
@<TRIPOS>SUBSTRUCTURE
     1 HLD         1 TEMP              0 ****  ****    0 ROOT
