@<TRIPOS>MOLECULE
HLD
   15    15     1     0     0
SMALL
bcc


@<TRIPOS>ATOM
      1 OAC         0.0000   -3.3380    0.5560 o         1 HLD     -0.694100
      2 CAM         0.0000   -2.1050    0.3180 c         1 HLD      0.584500
      3 CAF        -1.2170   -1.3250    0.1700 cc        1 HLD     -0.382200
      4 CAK        -1.1770    0.0090   -0.0880 cd        1 HLD      0.089900
      5 CAI        -2.4300    0.8840   -0.2540 c         1 HLD      0.930800
      6 OAD        -2.9200    0.9800   -1.4100 o         1 HLD     -0.816300
      7 OAA        -2.9150    1.4040    0.7850 o         1 HLD     -0.816300
      8 CAG         1.2170   -1.3260    0.1650 cc        1 HLD     -0.382200
      9 CAL         1.1770    0.0080   -0.0930 cd        1 HLD      0.089900
     10 OAH        -0.0000    0.7050   -0.2250 os        1 HLD     -0.173200
     11 CAJ         2.4300    0.8820   -0.2640 c         1 HLD      0.930800
     12 OAE         2.9200    1.4020    0.7730 o         1 HLD     -0.816300
     13 OAB         2.9150    0.9780   -1.4220 o         1 HLD     -0.816300
     14 H1         -2.1800   -1.8390    0.2710 ha        1 HLD      0.136000
     15 H3          2.1800   -1.8400    0.2620 ha        1 HLD      0.136000
@<TRIPOS>BOND
     1    1    2 2   
     2    2    3 1   
     3    2    8 1   
     4    3    4 2   
     5    3   14 1   
     6    4    5 1   
     7    4   10 1   
     8    5    6 1   
     9    5    7 1   
    10    8    9 2   
    11    8   15 1   
    12    9   10 1   
    13    9   11 1   
    14   11   12 1   
    15   11   13 1   
@<TRIPOS>SUBSTRUCTURE
     1 HLD         1 TEMP              0 ****  ****    0 ROOT
