@<TRIPOS>MOLECULE
HLD
   15    15     1     0     0
SMALL
bcc


@<TRIPOS>ATOM
      1 OAC        -0.0630   -0.5090    0.0010 o         1 HLD     -0.694100
      2 CAM         1.1860   -0.3820    0.0010 c         1 HLD      0.584500
      3 CAF         1.9760   -0.2990    1.2170 cc        1 HLD     -0.382200
      4 CAK         3.3280   -0.1610    1.1780 cd        1 HLD      0.089900
      5 CAI         4.2140   -0.0680    2.4300 c         1 HLD      0.930800
      6 OAD         4.4120    1.0770    2.9150 o         1 HLD     -0.816300
      7 OAA         4.6390   -1.1470    2.9200 o         1 HLD     -0.816300
      8 CAG         1.9760   -0.3040   -1.2160 cc        1 HLD     -0.382200
      9 CAL         3.3280   -0.1660   -1.1770 cd        1 HLD      0.089900
     10 OAH         4.0330   -0.0920    0.0000 os        1 HLD     -0.173200
     11 CAJ         4.2140   -0.0790   -2.4290 c         1 HLD      0.930800
     12 OAE         4.6390   -1.1600   -2.9150 o         1 HLD     -0.816300
     13 OAB         4.4130    1.0640   -2.9200 o         1 HLD     -0.816300
     14 H1          1.4550   -0.3490    2.1810 ha        1 HLD      0.136000
     15 H3          1.4550   -0.3600   -2.1790 ha        1 HLD      0.136000
@<TRIPOS>BOND
     1    1    2 2   
     2    2    3 1   
     3    2    8 1   
     4    3    4 2   
     5    3   14 1   
     6    4    5 1   
     7    4   10 1   
     8    5    6 1   
     9    5    7 1   
    10    8    9 2   
    11    8   15 1   
    12    9   10 1   
    13    9   11 1   
    14   11   12 1   
    15   11   13 1   
@<TRIPOS>SUBSTRUCTURE
     1 HLD         1 TEMP              0 ****  ****    0 ROOT
