@<TRIPOS>MOLECULE
HLE
   29    28     1     0     0
SMALL
bcc


@<TRIPOS>ATOM
      1 N           0.1730    0.4070   -0.0340 n4        1 HLE     -0.464300
      2 OH          1.3760   -0.1720   -0.2470 oh        1 HLE     -0.356300
      3 CA         -2.6670    1.2530    0.3820 c3        1 HLE     -0.202700
      4 CB         -4.1930    1.2620    0.3940 c3        1 HLE     -0.079400
      5 CG         -4.7720    2.3390   -0.5150 c3        1 HLE     -0.069700
      6 CD1        -4.7020    1.9340   -1.9720 c3        1 HLE     -0.096600
      7 CD2        -6.2100    2.6160   -0.1210 c3        1 HLE     -0.096600
      8 C          -2.1210    2.5100    1.0300 c         1 HLE      0.608900
      9 O          -0.9180    2.7810    0.9590 o         1 HLE     -0.573100
     10 C1         -2.1770   -0.0110    1.0980 c3        1 HLE      0.122100
     11 O3         -2.4970    0.1200    2.4590 oh        1 HLE     -0.546800
     12 C2         -0.6650   -0.2820    1.0330 c         1 HLE      0.484100
     13 O2         -0.0470   -1.0200    1.7810 o         1 HLE     -0.399100
     14 HN         -0.3170    0.3670   -0.9490 hn        1 HLE      0.499800
     15 HO          1.7660   -0.4360    0.6230 ho        1 HLE      0.485000
     16 HA         -2.3280    1.2220   -0.6930 hc        1 HLE      0.077700
     17 HB1        -4.5430    1.4230    1.4490 hc        1 HLE      0.071200
     18 HB2        -4.5740    0.2600    0.0630 hc        1 HLE      0.071200
     19 HG         -4.1790    3.2880   -0.3780 hc        1 HLE      0.044700
     20 HD11       -5.1260    2.7440   -2.6140 hc        1 HLE      0.046200
     21 HD12       -3.6460    1.7540   -2.2890 hc        1 HLE      0.046200
     22 HD13       -5.2910    1.0020   -2.1520 hc        1 HLE      0.046200
     23 HD21       -6.6460    3.3970   -0.7900 hc        1 HLE      0.046200
     24 HD22       -6.8270    1.6900   -0.2100 hc        1 HLE      0.046200
     25 HD23       -6.2660    2.9820    0.9330 hc        1 HLE      0.046200
     26 H          -2.8520    3.1630    1.5530 h4        1 HLE      0.074200
     27 H1         -2.6570   -0.9240    0.6310 h1        1 HLE      0.113700
     28 HO3        -2.5060   -0.7610    2.8650 ho        1 HLE      0.453000
     29 H2          0.3050    1.4180    0.2300 hn        1 HLE      0.499800
@<TRIPOS>BOND
     1    1    2 1   
     2    1   12 1   
     3    1   14 1   
     4    1   29 1   
     5    2   15 1   
     6    3    4 1   
     7    3    8 1   
     8    3   10 1   
     9    3   16 1   
    10    4    5 1   
    11    4   17 1   
    12    4   18 1   
    13    5    6 1   
    14    5    7 1   
    15    5   19 1   
    16    6   20 1   
    17    6   21 1   
    18    6   22 1   
    19    7   23 1   
    20    7   24 1   
    21    7   25 1   
    22    8    9 2   
    23    8   26 1   
    24   10   11 1   
    25   10   12 1   
    26   10   27 1   
    27   11   28 1   
    28   12   13 2   
@<TRIPOS>SUBSTRUCTURE
     1 HLE         1 TEMP              0 ****  ****    0 ROOT
