@<TRIPOS>MOLECULE
HLE
   29    28     1     0     0
SMALL
bcc


@<TRIPOS>ATOM
      1 N           0.1700    0.4010   -0.0740 ny        1 HLE     -0.464300
      2 OH          1.3680   -0.1820   -0.2980 oh        1 HLE     -0.356300
      3 CA         -2.6630    1.2560    0.3770 c3        1 HLE     -0.202700
      4 CB         -4.1890    1.2660    0.4150 c3        1 HLE     -0.079400
      5 CG         -4.7820    2.3300   -0.4990 c3        1 HLE     -0.069700
      6 CD1        -4.7360    1.9040   -1.9520 c3        1 HLE     -0.096600
      7 CD2        -6.2130    2.6140   -0.0850 c3        1 HLE     -0.096600
      8 C          -2.1050    2.5220    0.9980 c         1 HLE      0.608900
      9 O          -0.9030    2.7910    0.9020 o         1 HLE     -0.573100
     10 C1         -2.1610    0.0020    1.1030 c3        1 HLE      0.122100
     11 O3         -2.4580    0.1530    2.4680 oh        1 HLE     -0.546800
     12 C2         -0.6500   -0.2710    1.0180 c         1 HLE      0.484100
     13 O2         -0.0200   -0.9980    1.7660 o         1 HLE     -0.399100
     14 HN         -0.3360    0.3470   -0.9800 hn        1 HLE      0.499800
     15 HO          1.7730   -0.4320    0.5690 ho        1 HLE      0.485000
     16 HA         -2.3420    1.2080   -0.7020 hc        1 HLE      0.077700
     17 HB1        -4.5200    1.4430    1.4740 hc        1 HLE      0.071200
     18 HB2        -4.5750    0.2600    0.1060 hc        1 HLE      0.071200
     19 HG         -4.1870    3.2810   -0.3850 hc        1 HLE      0.044700
     20 HD11       -5.1710    2.7060   -2.5980 hc        1 HLE      0.046200
     21 HD12       -3.6860    1.7200   -2.2840 hc        1 HLE      0.046200
     22 HD13       -5.3280    0.9700   -2.1080 hc        1 HLE      0.046200
     23 HD21       -6.6600    3.3850   -0.7580 hc        1 HLE      0.046200
     24 HD22       -6.8320    1.6870   -0.1510 hc        1 HLE      0.046200
     25 HD23       -6.2520    2.9940    0.9640 hc        1 HLE      0.046200
     26 H          -2.8260    3.1830    1.5230 h4        1 HLE      0.074200
     27 H1         -2.6500   -0.9170    0.6580 h1        1 HLE      0.113700
     28 HO3        -2.4610   -0.7220    2.8870 ho        1 HLE      0.453000
     29 H2          0.3050    1.4160    0.1720 hn        1 HLE      0.499800
@<TRIPOS>BOND
     1    1    2 1   
     2    1   12 1   
     3    1   14 1   
     4    1   29 1   
     5    2   15 1   
     6    3    4 1   
     7    3    8 1   
     8    3   10 1   
     9    3   16 1   
    10    4    5 1   
    11    4   17 1   
    12    4   18 1   
    13    5    6 1   
    14    5    7 1   
    15    5   19 1   
    16    6   20 1   
    17    6   21 1   
    18    6   22 1   
    19    7   23 1   
    20    7   24 1   
    21    7   25 1   
    22    8    9 2   
    23    8   26 1   
    24   10   11 1   
    25   10   12 1   
    26   10   27 1   
    27   11   28 1   
    28   12   13 2   
@<TRIPOS>SUBSTRUCTURE
     1 HLE         1 TEMP              0 ****  ****    0 ROOT
