@<TRIPOS>MOLECULE
HLE
   29    28     1     0     0
SMALL
bcc


@<TRIPOS>ATOM
      1 N           0.1770    0.4160   -0.0370 n4        1 HLE     -0.464300
      2 OH          1.3800   -0.1650   -0.2390 oh        1 HLE     -0.356300
      3 CA         -2.6630    1.2630    0.3780 c3        1 HLE     -0.202700
      4 CB         -4.1890    1.2650    0.4100 c3        1 HLE     -0.079400
      5 CG         -4.7860    2.2980   -0.5370 c3        1 HLE     -0.069700
      6 CD1        -4.7310    1.8300   -1.9760 c3        1 HLE     -0.096600
      7 CD2        -6.2210    2.5830   -0.1370 c3        1 HLE     -0.096600
      8 C          -2.1160    2.5510    0.9640 c         1 HLE      0.608900
      9 O          -0.9160    2.8250    0.8650 o         1 HLE     -0.573100
     10 C1         -2.1560    0.0350    1.1430 c3        1 HLE      0.122100
     11 O3         -2.4590    0.2240    2.5010 oh        1 HLE     -0.546800
     12 C2         -0.6430   -0.2300    1.0700 c         1 HLE      0.484100
     13 O2         -0.0110   -0.9310    1.8420 o         1 HLE     -0.399100
     14 HN         -0.3240    0.3320   -0.9430 hn        1 HLE      0.499800
     15 HO          1.7830   -0.3870    0.6360 ho        1 HLE      0.485000
     16 HA         -2.3380    1.1870   -0.6980 hc        1 HLE      0.077700
     17 HB1        -4.5680    0.2470    0.1280 hc        1 HLE      0.071200
     18 HB2        -4.5260    1.4690    1.4620 hc        1 HLE      0.071200
     19 HG         -4.1980    3.2550   -0.4480 hc        1 HLE      0.044700
     20 HD11       -5.1690    2.6100   -2.6470 hc        1 HLE      0.046200
     21 HD12       -5.3160    0.8880   -2.1080 hc        1 HLE      0.046200
     22 HD13       -3.6790    1.6440   -2.2990 hc        1 HLE      0.046200
     23 HD21       -6.2660    2.9930    0.9010 hc        1 HLE      0.046200
     24 HD22       -6.8330    1.6500   -0.1790 hc        1 HLE      0.046200
     25 HD23       -6.6700    3.3320   -0.8340 hc        1 HLE      0.046200
     26 H          -2.8450    3.2220    1.4670 h4        1 HLE      0.074200
     27 H1         -2.6370   -0.9000    0.7230 h1        1 HLE      0.113700
     28 HO3        -2.4580   -0.6390    2.9460 ho        1 HLE      0.453000
     29 H2          0.3050    1.4390    0.1800 hn        1 HLE      0.499800
@<TRIPOS>BOND
     1    1    2 1   
     2    1   12 1   
     3    1   14 1   
     4    1   29 1   
     5    2   15 1   
     6    3    4 1   
     7    3    8 1   
     8    3   10 1   
     9    3   16 1   
    10    4    5 1   
    11    4   17 1   
    12    4   18 1   
    13    5    6 1   
    14    5    7 1   
    15    5   19 1   
    16    6   20 1   
    17    6   21 1   
    18    6   22 1   
    19    7   23 1   
    20    7   24 1   
    21    7   25 1   
    22    8    9 2   
    23    8   26 1   
    24   10   11 1   
    25   10   12 1   
    26   10   27 1   
    27   11   28 1   
    28   12   13 2   
@<TRIPOS>SUBSTRUCTURE
     1 HLE         1 TEMP              0 ****  ****    0 ROOT
