@<TRIPOS>MOLECULE
HLE
   28    27     1     0     0
SMALL
bcc


@<TRIPOS>ATOM
      1 N           0.9410    1.0180   -2.4700 n         1 HLE     -0.339400
      2 OH          1.6030    0.4790   -3.4960 oh        1 HLE     -0.429100
      3 CA          0.0280   -0.0160    0.4530 c3        1 HLE     -0.214700
      4 CB         -0.5060    0.4510    1.8020 c3        1 HLE     -0.065400
      5 CG          0.3900    0.0410    2.9620 c3        1 HLE     -0.074700
      6 CD1         1.5900    0.9570    3.0820 c3        1 HLE     -0.090100
      7 CD2        -0.4020    0.0470    4.2540 c3        1 HLE     -0.090100
      8 C          -0.0370   -1.5220    0.3830 c         1 HLE      0.565900
      9 O           0.9650   -2.2320    0.4490 o         1 HLE     -0.509100
     10 C1         -0.7900    0.6340   -0.6710 c3        1 HLE      0.081100
     11 O3         -2.1520    0.2680   -0.6140 oh        1 HLE     -0.579800
     12 C2         -0.2010    0.2870   -2.0410 c         1 HLE      0.554100
     13 O2         -0.7940   -0.4990   -2.7980 o         1 HLE     -0.558100
     14 HN          1.6090    1.1790   -1.7230 hn        1 HLE      0.304500
     15 HO          1.0440    0.6280   -4.2850 ho        1 HLE      0.438000
     16 HA          1.1000    0.3140    0.3510 hc        1 HLE      0.076700
     17 HB1        -1.5370    0.0280    1.9430 hc        1 HLE      0.057700
     18 HB2        -0.6080    1.5680    1.7860 hc        1 HLE      0.057700
     19 HG          0.7610   -1.0080    2.7760 hc        1 HLE      0.057700
     20 HD11        2.2450    0.6230    3.9220 hc        1 HLE      0.036200
     21 HD12        2.1910    0.9440    2.1410 hc        1 HLE      0.036200
     22 HD13        1.2660    2.0070    3.2830 hc        1 HLE      0.036200
     23 HD21       -0.8230    1.0620    4.4510 hc        1 HLE      0.036200
     24 HD22       -1.2460   -0.6820    4.2000 hc        1 HLE      0.036200
     25 HD23        0.2570   -0.2350    5.1100 hc        1 HLE      0.036200
     26 H          -1.0610   -1.9460    0.2850 h4        1 HLE      0.009200
     27 H1         -0.7960    1.7550   -0.5240 h1        1 HLE      0.104700
     28 HO3        -2.2670   -0.5620   -1.1010 ho        1 HLE      0.426000
@<TRIPOS>BOND
     1    1    2 1   
     2    1   12 1   
     3    1   14 1   
     4    2   15 1   
     5    3    4 1   
     6    3    8 1   
     7    3   10 1   
     8    3   16 1   
     9    4    5 1   
    10    4   17 1   
    11    4   18 1   
    12    5    6 1   
    13    5    7 1   
    14    5   19 1   
    15    6   20 1   
    16    6   21 1   
    17    6   22 1   
    18    7   23 1   
    19    7   24 1   
    20    7   25 1   
    21    8    9 2   
    22    8   26 1   
    23   10   11 1   
    24   10   12 1   
    25   10   27 1   
    26   11   28 1   
    27   12   13 2   
@<TRIPOS>SUBSTRUCTURE
     1 HLE         1 TEMP              0 ****  ****    0 ROOT
