@<TRIPOS>MOLECULE
HLI
   49    43     1     0     0
SMALL
bcc


@<TRIPOS>ATOM
      1 C1          2.3570   -1.1490   -0.9360 c3        1 HLI     -0.047000
      2 N1         -1.0660    1.8490   -0.0790 n2        1 HLI     -0.132000
      3 O1          0.8450   -1.7640    1.9550 o         1 HLI     -0.412000
      4 P1         -3.1980    5.5120   -3.7800 p3        1 HLI      2.569000
      5 CL1         3.4090   -7.4480    0.8170 cl        1 HLI     -0.060000
      6 C2         -0.1800    0.0680    0.8980 c1        1 HLI     -0.115500
      7 N2          0.6110    0.4070   -0.1810 n2        1 HLI     -0.132000
      8 O2         -3.3130    6.7210   -2.8740 o         1 HLI     -1.258667
      9 C3         -1.2110    0.9580    0.9580 c1        1 HLI     -0.115500
     10 N3         -1.1230   -1.2440    2.8780 n3        1 HLI     -0.316000
     11 O3         -4.5800    4.8370   -3.9080 o         1 HLI     -1.258667
     12 C4          0.0580    1.5060   -0.7790 c1        1 HLI      0.151000
     13 N4         -2.2990    0.7550    1.9250 n1        1 HLI     -0.160000
     14 O4         -2.7120    5.9510   -5.1680 o         1 HLI     -1.258667
     15 C5         -2.2340   -0.3690    2.8850 c2        1 HLI      0.135000
     16 N5         -3.3240   -0.6530    3.6980 n3        1 HLI     -0.260000
     17 O5          3.5690   -1.6760   -0.4710 os        1 HLI     -0.188000
     18 C6         -0.0700   -1.0440    1.9570 c1        1 HLI      0.378000
     19 C7         -0.2500    2.5330   -1.9260 c1        1 HLI     -0.155000
     20 C8          2.0370    0.1800   -0.1700 c2        1 HLI     -0.059000
     21 C9         -1.3790    2.0760   -2.5950 c2        1 HLI     -0.121000
     22 C10        -2.2460    2.9670   -3.1560 c1        1 HLI     -0.094000
     23 C11        -2.0050    4.3280   -3.0610 c1        1 HLI     -0.480000
     24 C12        -0.9030    4.7820   -2.4080 c1        1 HLI     -0.091000
     25 C13        -0.0120    3.8770   -1.8320 c1        1 HLI     -0.152000
     26 C14        -3.7210    0.2740    4.7050 c3        1 HLI     -0.126000
     27 C15         3.5050   -3.0600   -0.1620 c2        1 HLI      0.091000
     28 C16         4.0750   -4.0270   -1.0630 c2        1 HLI     -0.152000
     29 C17         4.0330   -5.3700   -0.7500 c1        1 HLI     -0.104000
     30 C18         3.4440   -5.7900    0.4280 c1        1 HLI     -0.110000
     31 C19         2.8780   -4.8380    1.3240 c1        1 HLI     -0.089000
     32 C20         2.9180   -3.4800    1.0120 c1        1 HLI     -0.194000
     33 H1          1.6360   -1.8050   -0.7800 h1        1 HLI      0.123500
     34 H1A         2.4230   -0.9720   -1.8540 h1        1 HLI      0.123500
     35 HN3        -1.0840   -1.9890    3.5150 hn        1 HLI      0.242000
     36 H8          2.3580    0.1040    0.7820 ha        1 HLI      0.131000
     37 H8A         2.4770    0.9010   -0.5940 ha        1 HLI      0.131000
     38 H9         -1.5650    1.1490   -2.6340 ha        1 HLI      0.100000
     39 H10        -3.0130    2.6310   -3.7270 ha        1 HLI      0.166000
     40 H12        -0.7630    5.7200   -2.3070 ha        1 HLI      0.175000
     41 H13         0.7560    4.2690   -1.4870 ha        1 HLI      0.086000
     42 H14        -3.2100    0.0910    5.5510 h1        1 HLI      0.077000
     43 H14A       -4.6340    0.1830    4.8670 h1        1 HLI      0.077000
     44 H16         4.5430   -3.7260   -1.8790 ha        1 HLI      0.161000
     45 H17         4.4480   -6.0730   -1.4050 ha        1 HLI      0.136000
     46 H19         2.5530   -5.1320    2.2110 ha        1 HLI      0.142000
     47 H20         2.5120   -2.7960    1.6540 ha        1 HLI      0.177000
     48 H14B       -3.5260    1.2170    4.3910 h1        1 HLI      0.077000
     49 HN5        -3.8260   -1.4370    3.5550 hn        1 HLI      0.192000
@<TRIPOS>BOND
     1    1   17 1   
     2    1   20 1   
     3    1   33 1   
     4    1   34 1   
     5    2    9 1   
     6    2   12 1   
     7    3   18 1   
     8    4    8 1   
     9    4   11 1   
    10    4   14 1   
    11    5   30 1   
    12    6    7 1   
    13    6    9 1   
    14    7   12 1   
    15   10   15 1   
    16   10   18 1   
    17   10   35 1   
    18   13   15 1   
    19   15   16 1   
    20   16   26 1   
    21   16   49 1   
    22   17   27 1   
    23   19   21 1   
    24   19   25 1   
    25   20   36 1   
    26   20   37 1   
    27   21   22 1   
    28   21   38 1   
    29   22   39 1   
    30   23   24 1   
    31   24   40 1   
    32   25   41 1   
    33   26   42 1   
    34   26   43 1   
    35   26   48 1   
    36   27   28 1   
    37   27   32 1   
    38   28   29 1   
    39   28   44 1   
    40   29   45 1   
    41   30   31 1   
    42   31   46 1   
    43   32   47 1   
@<TRIPOS>SUBSTRUCTURE
     1 HLI         1 TEMP              0 ****  ****    0 ROOT
