@<TRIPOS>MOLECULE
HLI
   49    52     1     0     0
SMALL
bcc


@<TRIPOS>ATOM
      1 C1         -0.2120    0.1540   -0.2790 c3        1 HLI      0.103400
      2 N1         -4.2020    1.0100    1.9410 nc        1 HLI     -0.669000
      3 O1         -1.4630   -2.6530    0.6840 o         1 HLI     -0.678500
      4 P1         -0.8240    7.0340    2.4550 p5        1 HLI      1.220000
      5 CL1         4.2780   -1.1050   -5.0750 cl        1 HLI     -0.131400
      6 C2         -2.8520   -0.7830    1.3410 cd        1 HLI     -0.365200
      7 N2         -2.0560    0.3640    1.3690 na        1 HLI     -0.177900
      8 O2         -1.9170    7.7530    3.2080 o         1 HLI     -0.938833
      9 C3         -4.1860   -0.3660    1.7100 cc        1 HLI      0.571300
     10 N3         -3.6710   -3.0160    1.1360 n         1 HLI     -0.478400
     11 O3         -0.5690    7.4930    1.0390 o         1 HLI     -0.938833
     12 C4         -2.9110    1.4370    1.7300 cd        1 HLI      0.615000
     13 N4         -5.2430   -1.2670    1.7830 nc        1 HLI     -0.669700
     14 O4          0.4120    6.7110    3.2600 o         1 HLI     -0.938833
     15 C5         -4.9440   -2.5430    1.5190 cd        1 HLI      0.582800
     16 N5         -5.9690   -3.5650    1.6490 nh        1 HLI     -0.775200
     17 O5          1.2220    0.1030   -0.2270 os        1 HLI     -0.312900
     18 C6         -2.5560   -2.1570    1.0330 c         1 HLI      0.739100
     19 C7         -2.4430    2.8080    1.8740 ca        1 HLI     -0.261500
     20 C8         -0.6370    0.3960    1.1820 c3        1 HLI      0.033300
     21 C9         -1.5860    3.3810    0.9130 ca        1 HLI     -0.131500
     22 C10        -1.1300    4.6820    1.0910 ca        1 HLI     -0.094000
     23 C11        -1.5120    5.4080    2.2130 ca        1 HLI     -0.084500
     24 C12        -2.3860    4.8670    3.1420 ca        1 HLI     -0.094000
     25 C13        -2.8640    3.5670    2.9810 ca        1 HLI     -0.131500
     26 C14        -6.5240   -3.9810    0.3850 c3        1 HLI      0.150100
     27 C15         1.8560   -0.1720   -1.4140 ca        1 HLI      0.159100
     28 C16         3.2650   -0.2030   -1.3350 ca        1 HLI     -0.175000
     29 C17         4.0080   -0.4880   -2.4710 ca        1 HLI     -0.092000
     30 C18         3.3570   -0.7450   -3.6840 ca        1 HLI     -0.030600
     31 C19         1.9650   -0.7040   -3.7670 ca        1 HLI     -0.092000
     32 C20         1.2080   -0.4170   -2.6320 ca        1 HLI     -0.175000
     33 H1         -0.6090   -0.8270   -0.6510 h1        1 HLI      0.060200
     34 H1A        -0.5300    0.9960   -0.9470 h1        1 HLI      0.060200
     35 HN3        -3.5260   -3.9890    0.9910 hn        1 HLI      0.327500
     36 H8         -0.1710   -0.4140    1.8150 h1        1 HLI      0.098200
     37 H8A        -0.2490    1.4020    1.5230 h1        1 HLI      0.098200
     38 H9         -1.3060    2.8080    0.0190 ha        1 HLI      0.093000
     39 H10        -0.4770    5.2000    0.3660 ha        1 HLI      0.171000
     40 H12        -2.6870    5.5110    3.9850 ha        1 HLI      0.171000
     41 H13        -3.5570    3.1270    3.7110 ha        1 HLI      0.093000
     42 H14        -5.7090   -4.3870   -0.2690 h1        1 HLI      0.037367
     43 H14A       -7.2640   -4.8000    0.5890 h1        1 HLI      0.037367
     44 H16         3.7530    0.0110   -0.3730 ha        1 HLI      0.153500
     45 H17         5.1070   -0.5090   -2.4160 ha        1 HLI      0.138000
     46 H19         1.4580   -0.8940   -4.7250 ha        1 HLI      0.138000
     47 H20         0.1120   -0.3810   -2.7070 ha        1 HLI      0.153500
     48 H14B       -7.0470   -3.1570   -0.1740 h1        1 HLI      0.037367
     49 HN5        -6.6920   -3.2400    2.2690 hn        1 HLI      0.396800
@<TRIPOS>BOND
     1    1   17 1   
     2    1   20 1   
     3    1   33 1   
     4    1   34 1   
     5    2    9 1   
     6    2   12 2   
     7    3   18 2   
     8    4    8 1   
     9    4   11 1   
    10    4   14 1   
    11    4   23 1   
    12    5   30 1   
    13    6    7 1   
    14    6    9 2   
    15    6   18 1   
    16    7   12 1   
    17    7   20 1   
    18    9   13 1   
    19   10   15 1   
    20   10   18 1   
    21   10   35 1   
    22   12   19 1   
    23   13   15 2   
    24   15   16 1   
    25   16   26 1   
    26   16   49 1   
    27   17   27 1   
    28   19   21 ar  
    29   19   25 ar  
    30   20   36 1   
    31   20   37 1   
    32   21   22 ar  
    33   21   38 1   
    34   22   23 ar  
    35   22   39 1   
    36   23   24 ar  
    37   24   25 ar  
    38   24   40 1   
    39   25   41 1   
    40   26   42 1   
    41   26   43 1   
    42   26   48 1   
    43   27   28 ar  
    44   27   32 ar  
    45   28   29 ar  
    46   28   44 1   
    47   29   30 ar  
    48   29   45 1   
    49   30   31 ar  
    50   31   32 ar  
    51   31   46 1   
    52   32   47 1   
@<TRIPOS>SUBSTRUCTURE
     1 HLI         1 TEMP              0 ****  ****    0 ROOT
