@<TRIPOS>MOLECULE
HLI
   50    53     1     0     0
SMALL
bcc


@<TRIPOS>ATOM
      1 C1          0.0000    0.0000    0.0000 c3        1 HLI      0.175400
      2 N1         -4.0440    0.7100    1.4970 nc        1 HLI     -0.624000
      3 O1         -1.4480   -2.9430    1.2140 o         1 HLI     -0.735500
      4 P1         -0.8880    6.8320    1.9760 p5        1 HLI      0.584000
      5 Cl1         4.0900   -0.0020   -5.2230 cl        1 HLI     -0.050400
      6 C2         -2.7980   -1.1060    1.3560 cd        1 HLI     -0.598200
      7 N2         -1.9750    0.0000    1.4420 na        1 HLI      0.363100
      8 O2         -2.0130    7.7120    2.7180 o         1 HLI     -0.533833
      9 C3         -4.1130   -0.6250    1.3940 cc        1 HLI      0.530300
     10 N3         -3.6550   -3.3080    1.1840 ns        1 HLI      0.002600
     11 O3          0.4790    6.8790    2.8260 o         1 HLI     -0.533833
     12 C4         -2.7870    1.0920    1.5280 cd        1 HLI      0.369000
     13 N4         -5.1360   -1.5010    1.3250 nc        1 HLI     -0.551700
     14 O4         -0.6470    7.3790    0.6230 o         1 HLI     -0.533833
     15 C5         -4.9160   -2.7910    1.2250 cd        1 HLI     -0.217200
     16 N5         -5.9890   -3.6450    1.1580 ny        1 HLI      0.291000
     17 O5          1.4290    0.0000    0.0000 os        1 HLI     -0.293900
     18 C6         -2.5800   -2.4890    1.2480 c         1 HLI      0.688100
     19 C7         -2.3240    2.4930    1.6360 ca        1 HLI     -0.181500
     20 C8         -0.5110    0.0000    1.4420 c3        1 HLI     -0.087700
     21 C9         -1.0360    2.8390    1.2240 ca        1 HLI     -0.142500
     22 C10        -0.6100    4.1470    1.3290 ca        1 HLI     -0.044500
     23 C11        -1.4560    5.1140    1.8420 ca        1 HLI     -0.031500
     24 C12        -2.7330    4.7780    2.2510 ca        1 HLI     -0.044500
     25 C13        -3.1740    3.4740    2.1470 ca        1 HLI     -0.142500
     26 C14        -7.3520   -3.1130    1.1990 c3        1 HLI     -0.004900
     27 C15         2.0460    0.0000   -1.2100 ca        1 HLI      0.169100
     28 C16         3.4310   -0.0000   -1.2840 ca        1 HLI     -0.164500
     29 C17         4.0560   -0.0010   -2.5170 ca        1 HLI     -0.057000
     30 C18         3.3030   -0.0010   -3.6760 ca        1 HLI     -0.075600
     31 C19         1.9200   -0.0010   -3.6050 ca        1 HLI     -0.057000
     32 C20         1.2910   -0.0060   -2.3750 ca        1 HLI     -0.164500
     33 H1         -0.3610    0.8840   -0.5110 h1        1 HLI      0.022700
     34 H1A        -0.3610   -0.8850   -0.5110 h1        1 HLI      0.022700
     35 HN3        -3.5240   -4.2970    1.1070 hn        1 HLI      0.147500
     36 H8         -0.1500   -0.8850    1.9530 h1        1 HLI      0.071200
     37 H8A        -0.1490    0.8840    1.9530 h1        1 HLI      0.071200
     38 H9         -0.4070    2.1020    0.7390 ha        1 HLI      0.103500
     39 H10         0.3890    4.4180    1.0100 ha        1 HLI      0.116500
     40 H12        -3.3900    5.5400    2.6550 ha        1 HLI      0.116500
     41 H13        -4.1750    3.2120    2.4680 ha        1 HLI      0.103500
     42 H14        -7.5020   -2.4390    0.3630 hx        1 HLI      0.061367
     43 H14A       -7.5030   -2.5760    2.1270 hx        1 HLI      0.061367
     44 H16         4.0220   -0.0430   -0.3780 ha        1 HLI      0.123500
     45 H17         5.1380   -0.0010   -2.5750 ha        1 HLI      0.109500
     46 H19         1.3320    0.0030   -4.5140 ha        1 HLI      0.109500
     47 H20         0.2090   -0.0060   -2.3200 ha        1 HLI      0.123500
     48 H14B       -8.0610   -3.9290    1.1350 hx        1 HLI      0.061367
     49 HN5        -5.9020   -4.2820    1.9260 hn        1 HLI      0.138800
     50 H52        -5.9010   -4.1570    0.3020 hn        1 HLI      0.138800
@<TRIPOS>BOND
     1    1   17 1   
     2    1   20 1   
     3    1   33 1   
     4    1   34 1   
     5    2    9 1   
     6    2   12 2   
     7    3   18 2   
     8    4    8 1   
     9    4   11 1   
    10    4   14 1   
    11    4   23 1   
    12    5   30 1   
    13    6    7 1   
    14    6    9 2   
    15    6   18 1   
    16    7   12 1   
    17    7   20 1   
    18    9   13 1   
    19   10   15 1   
    20   10   18 1   
    21   10   35 1   
    22   12   19 1   
    23   13   15 2   
    24   15   16 1   
    25   16   26 1   
    26   16   49 1   
    27   16   50 1   
    28   17   27 1   
    29   19   21 ar  
    30   19   25 ar  
    31   20   36 1   
    32   20   37 1   
    33   21   22 ar  
    34   21   38 1   
    35   22   23 ar  
    36   22   39 1   
    37   23   24 ar  
    38   24   25 ar  
    39   24   40 1   
    40   25   41 1   
    41   26   42 1   
    42   26   43 1   
    43   26   48 1   
    44   27   28 ar  
    45   27   32 ar  
    46   28   29 ar  
    47   28   44 1   
    48   29   30 ar  
    49   29   45 1   
    50   30   31 ar  
    51   31   32 ar  
    52   31   46 1   
    53   32   47 1   
@<TRIPOS>SUBSTRUCTURE
     1 HLI         1 TEMP              0 ****  ****    0 ROOT
