@<TRIPOS>MOLECULE
HLI
   49    52     1     0     0
SMALL
bcc


@<TRIPOS>ATOM
      1 C1         -0.6260   -1.3810    0.2270 c3        1 HLI      0.103400
      2 N1         -1.5100    3.0100   -0.9910 nc        1 HLI     -0.669000
      3 O1         -3.7290   -0.7640    0.8350 o         1 HLI     -0.678500
      4 P1          5.3350    3.0460    0.0670 p5        1 HLI      1.220000
      5 CL1         0.1920   -8.0170    0.0050 cl        1 HLI     -0.131400
      6 C2         -2.5940    1.1720   -0.0710 cd        1 HLI     -0.365200
      7 N2         -1.2250    1.0260    0.1650 na        1 HLI     -0.177900
      8 O2          5.5320    4.5020   -0.2800 o         1 HLI     -0.938833
      9 C3         -2.7570    2.4180   -0.7850 cc        1 HLI      0.571300
     10 N3         -4.9610    0.8790   -0.1630 n         1 HLI     -0.479400
     11 O3          5.9200    2.0410   -0.8980 o         1 HLI     -0.938833
     12 C4         -0.5960    2.1590   -0.4130 cd        1 HLI      0.615000
     13 N4         -4.0090    2.8860   -1.1700 nc        1 HLI     -0.669700
     14 O4          5.4910    2.7020    1.5290 o         1 HLI     -0.938833
     15 C5         -5.0470    2.1020   -0.8610 cd        1 HLI      0.582800
     16 N5         -6.3850    2.4790   -1.2840 nh        1 HLI     -0.775200
     17 O5         -0.0960   -2.2920    1.2040 os        1 HLI     -0.312900
     18 C6         -3.7240    0.3410    0.2510 c         1 HLI      0.739100
     19 C7          0.8420    2.3810   -0.3550 ca        1 HLI     -0.261500
     20 C8         -0.6220   -0.0150    0.9400 c3        1 HLI      0.033300
     21 C9          1.7450    1.3340   -0.6290 ca        1 HLI     -0.131500
     22 C10         3.1120    1.5640   -0.5290 ca        1 HLI     -0.094500
     23 C11         3.5830    2.8180   -0.1550 ca        1 HLI     -0.084500
     24 C12         2.7030    3.8640    0.0750 ca        1 HLI     -0.094500
     25 C13         1.3290    3.6590   -0.0270 ca        1 HLI     -0.131500
     26 C14        -7.1810    3.0440   -0.2220 c3        1 HLI      0.150100
     27 C15        -0.0530   -3.6130    0.8310 ca        1 HLI      0.159100
     28 C16         0.4910   -4.4800    1.8030 ca        1 HLI     -0.175000
     29 C17         0.5670   -5.8400    1.5400 ca        1 HLI     -0.092000
     30 C18         0.1040   -6.3410    0.3170 ca        1 HLI     -0.030600
     31 C19        -0.4240   -5.4840   -0.6490 ca        1 HLI     -0.092000
     32 C20        -0.5040   -4.1160   -0.3970 ca        1 HLI     -0.175000
     33 H1          0.0360   -1.3790   -0.6770 h1        1 HLI      0.060200
     34 H1A        -1.6720   -1.6870   -0.0410 h1        1 HLI      0.060200
     35 HN3        -5.7810    0.3380   -0.0060 hn        1 HLI      0.327500
     36 H8         -1.1970   -0.1280    1.9040 h1        1 HLI      0.097700
     37 H8A         0.4440    0.2800    1.1770 h1        1 HLI      0.097700
     38 H9          1.3650    0.3520   -0.9430 ha        1 HLI      0.093000
     39 H10         3.8740    0.7970   -0.7520 ha        1 HLI      0.171000
     40 H12         3.1430    4.8450    0.3210 ha        1 HLI      0.171000
     41 H13         0.6220    4.4810    0.1530 ha        1 HLI      0.093000
     42 H14        -8.2030    3.2540   -0.6350 h1        1 HLI      0.037033
     43 H14A       -7.2770    2.3020    0.6140 h1        1 HLI      0.037033
     44 H16         0.8560   -4.0610    2.7510 ha        1 HLI      0.153500
     45 H17         0.9950   -6.5200    2.2920 ha        1 HLI      0.138000
     46 H19        -0.7750   -5.8800   -1.6140 ha        1 HLI      0.138000
     47 H20        -0.9150   -3.4460   -1.1650 ha        1 HLI      0.153500
     48 H14B       -6.7620    3.9970    0.2010 h1        1 HLI      0.037033
     49 HN5        -6.3270    3.1120   -2.0640 hn        1 HLI      0.396800
@<TRIPOS>BOND
     1    1   17 1   
     2    1   20 1   
     3    1   33 1   
     4    1   34 1   
     5    2    9 1   
     6    2   12 2   
     7    3   18 2   
     8    4    8 1   
     9    4   11 1   
    10    4   14 1   
    11    4   23 1   
    12    5   30 1   
    13    6    7 1   
    14    6    9 2   
    15    6   18 1   
    16    7   12 1   
    17    7   20 1   
    18    9   13 1   
    19   10   15 1   
    20   10   18 1   
    21   10   35 1   
    22   12   19 1   
    23   13   15 2   
    24   15   16 1   
    25   16   26 1   
    26   16   49 1   
    27   17   27 1   
    28   19   21 ar  
    29   19   25 ar  
    30   20   36 1   
    31   20   37 1   
    32   21   22 ar  
    33   21   38 1   
    34   22   23 ar  
    35   22   39 1   
    36   23   24 ar  
    37   24   25 ar  
    38   24   40 1   
    39   25   41 1   
    40   26   42 1   
    41   26   43 1   
    42   26   48 1   
    43   27   28 ar  
    44   27   32 ar  
    45   28   29 ar  
    46   28   44 1   
    47   29   30 ar  
    48   29   45 1   
    49   30   31 ar  
    50   31   32 ar  
    51   31   46 1   
    52   32   47 1   
@<TRIPOS>SUBSTRUCTURE
     1 HLI         1 TEMP              0 ****  ****    0 ROOT
