@<TRIPOS>MOLECULE
HLN
   40    41     1     0     0
SMALL
bcc


@<TRIPOS>ATOM
      1 CAA         8.5440   -0.3790   -0.4720 c3        1 HLN     -0.090100
      2 CAB         7.3310   -0.1540    0.3930 c3        1 HLN     -0.080400
      3 CAC         6.0510   -0.2080   -0.4150 c3        1 HLN     -0.080400
      4 CAD         4.8350    0.0190    0.4580 c3        1 HLN     -0.068400
      5 CAE         3.5580   -0.0350   -0.3490 c3        1 HLN     -0.071400
      6 CAF         2.3300    0.1860    0.4850 c3        1 HLN     -0.337600
      7 PAG         1.0220    0.0890   -0.5770 p5        1 HLN      1.358600
      8 OAH         0.8140   -1.2960   -1.0410 o         1 HLN     -0.844500
      9 OAI         0.9610    1.2690   -1.4600 o         1 HLN     -0.844500
     10 OAJ        -0.2000    0.3660    0.5840 os        1 HLN     -0.502500
     11 CAR        -1.5020    0.4260    0.2700 ca        1 HLN      0.253100
     12 CAQ        -2.3210   -0.6930    0.3900 ca        1 HLN     -0.209000
     13 CAK        -3.7170   -0.5880    0.1860 ca        1 HLN     -0.001000
     14 CAP        -4.5720   -1.7210    0.3000 ca        1 HLN     -0.122000
     15 CAO        -5.9270   -1.6010    0.1110 ca        1 HLN     -0.145000
     16 CAN        -6.4970   -0.3440   -0.2050 ca        1 HLN     -0.168000
     17 CAM        -5.6960    0.7650   -0.3260 ca        1 HLN     -0.107000
     18 CAL        -4.2920    0.6710   -0.1350 ca        1 HLN     -0.077000
     19 CAT        -3.4390    1.8000   -0.2610 ca        1 HLN     -0.126000
     20 CAS        -2.0880    1.6920   -0.0650 ca        1 HLN     -0.147000
     21 H1          9.4760   -0.3350    0.1420 hc        1 HLN      0.026367
     22 H2          8.4940   -1.3790   -0.9670 hc        1 HLN      0.026367
     23 H3          8.6090    0.4010   -1.2690 hc        1 HLN      0.026367
     24 H4          7.2950   -0.9310    1.2010 hc        1 HLN      0.033700
     25 H5          7.4100    0.8440    0.9000 hc        1 HLN      0.033700
     26 H6          6.0840    0.5700   -1.2220 hc        1 HLN      0.039200
     27 H7          5.9680   -1.2060   -0.9210 hc        1 HLN      0.039200
     28 H8          4.8010   -0.7580    1.2660 hc        1 HLN      0.031200
     29 H9          4.9160    1.0170    0.9640 hc        1 HLN      0.031200
     30 H10         3.5800    0.7460   -1.1570 hc        1 HLN      0.054700
     31 H11         3.4640   -1.0350   -0.8540 hc        1 HLN      0.054700
     32 H12         2.2580   -0.5820    1.2910 hc        1 HLN      0.070700
     33 H13         2.3710    1.1800    0.9900 hc        1 HLN      0.070700
     34 H15        -1.8770   -1.6710    0.6250 ha        1 HLN      0.148000
     35 H16        -4.1190   -2.6940    0.5400 ha        1 HLN      0.125000
     36 H17        -6.5840   -2.4770    0.1990 ha        1 HLN      0.110000
     37 H18        -7.5830   -0.2720   -0.3530 ha        1 HLN      0.110000
     38 H19        -6.1280    1.7450   -0.5760 ha        1 HLN      0.113000
     39 H20        -3.8880    2.7690   -0.5250 ha        1 HLN      0.113000
     40 H21        -1.4190    2.5580   -0.1810 ha        1 HLN      0.152000
@<TRIPOS>BOND
     1    1    2 1   
     2    1   21 1   
     3    1   22 1   
     4    1   23 1   
     5    2    3 1   
     6    2   24 1   
     7    2   25 1   
     8    3    4 1   
     9    3   26 1   
    10    3   27 1   
    11    4    5 1   
    12    4   28 1   
    13    4   29 1   
    14    5    6 1   
    15    5   30 1   
    16    5   31 1   
    17    6    7 1   
    18    6   32 1   
    19    6   33 1   
    20    7    8 1   
    21    7    9 1   
    22    7   10 1   
    23   10   11 1   
    24   11   12 ar  
    25   11   20 ar  
    26   12   13 ar  
    27   12   34 1   
    28   13   14 ar  
    29   13   18 ar  
    30   14   15 ar  
    31   14   35 1   
    32   15   16 ar  
    33   15   36 1   
    34   16   17 ar  
    35   16   37 1   
    36   17   18 ar  
    37   17   38 1   
    38   18   19 ar  
    39   19   20 ar  
    40   19   39 1   
    41   20   40 1   
@<TRIPOS>SUBSTRUCTURE
     1 HLN         1 TEMP              0 ****  ****    0 ROOT
