@<TRIPOS>MOLECULE
HLN
   40    41     1     0     0
SMALL
bcc


@<TRIPOS>ATOM
      1 CAA         0.2460   -0.0920   -0.4310 c3        1 HLN     -0.090100
      2 CAB         1.7340   -0.0710   -0.1920 c3        1 HLN     -0.080400
      3 CAC         2.0610   -0.0160    1.2860 c3        1 HLN     -0.080400
      4 CAD         3.5560    0.0040    1.5220 c3        1 HLN     -0.068400
      5 CAE         3.8820    0.0600    2.9970 c3        1 HLN     -0.071400
      6 CAF         5.3580    0.0820    3.2680 c3        1 HLN     -0.337600
      7 PAG         5.5210    0.1440    4.9470 p5        1 HLN      1.358600
      8 OAH         5.1450   -1.1400    5.5670 o         1 HLN     -0.844500
      9 OAI         5.1180    1.4610    5.4760 o         1 HLN     -0.844500
     10 OAJ         7.2290    0.1800    4.9810 os        1 HLN     -0.502500
     11 CAR         7.9320    0.2640    6.1190 ca        1 HLN      0.253100
     12 CAQ         8.4310   -0.8780    6.7400 ca        1 HLN     -0.209000
     13 CAK         9.2830   -0.7720    7.8640 ca        1 HLN     -0.001000
     14 CAP         9.8020   -1.9270    8.5160 ca        1 HLN     -0.122000
     15 CAO        10.6370   -1.8080    9.5980 ca        1 HLN     -0.145000
     16 CAN        10.9970   -0.5300   10.0870 ca        1 HLN     -0.168000
     17 CAM        10.5090    0.6020    9.4810 ca        1 HLN     -0.107000
     18 CAL         9.6440    0.5090    8.3600 ca        1 HLN     -0.077000
     19 CAT         9.1190    1.6640    7.7180 ca        1 HLN     -0.126000
     20 CAS         8.2920    1.5550    6.6320 ca        1 HLN     -0.147000
     21 H1         -0.2330    0.8250   -0.0090 hc        1 HLN      0.026367
     22 H2          0.0270   -0.1330   -1.5250 hc        1 HLN      0.026367
     23 H3         -0.2180   -0.9830    0.0560 hc        1 HLN      0.026367
     24 H4          2.1860    0.8170   -0.7070 hc        1 HLN      0.033700
     25 H5          2.2000   -0.9870   -0.6430 hc        1 HLN      0.033700
     26 H6          1.5980    0.9000    1.7390 hc        1 HLN      0.039200
     27 H7          1.6120   -0.9040    1.8040 hc        1 HLN      0.039200
     28 H8          4.0070    0.8920    1.0050 hc        1 HLN      0.031200
     29 H9          4.0210   -0.9110    1.0700 hc        1 HLN      0.031200
     30 H10         3.4410   -0.8310    3.5220 hc        1 HLN      0.055200
     31 H11         3.4260    0.9780    3.4580 hc        1 HLN      0.055200
     32 H12         5.8500   -0.8260    2.8450 hc        1 HLN      0.070700
     33 H13         5.8350    0.9640    2.7800 hc        1 HLN      0.070700
     34 H15         8.1430   -1.8710    6.3670 ha        1 HLN      0.148000
     35 H16         9.5110   -2.9170    8.1320 ha        1 HLN      0.125000
     36 H17        11.0340   -2.7020   10.1000 ha        1 HLN      0.110000
     37 H18        11.6660   -0.4590   10.9550 ha        1 HLN      0.110000
     38 H19        10.7790    1.6010    9.8560 ha        1 HLN      0.113000
     39 H20         9.3890    2.6530    8.1160 ha        1 HLN      0.113000
     40 H21         7.8650    2.4430    6.1430 ha        1 HLN      0.152000
@<TRIPOS>BOND
     1    1    2 1   
     2    1   21 1   
     3    1   22 1   
     4    1   23 1   
     5    2    3 1   
     6    2   24 1   
     7    2   25 1   
     8    3    4 1   
     9    3   26 1   
    10    3   27 1   
    11    4    5 1   
    12    4   28 1   
    13    4   29 1   
    14    5    6 1   
    15    5   30 1   
    16    5   31 1   
    17    6    7 1   
    18    6   32 1   
    19    6   33 1   
    20    7    8 1   
    21    7    9 1   
    22    7   10 1   
    23   10   11 1   
    24   11   12 ar  
    25   11   20 ar  
    26   12   13 ar  
    27   12   34 1   
    28   13   14 ar  
    29   13   18 ar  
    30   14   15 ar  
    31   14   35 1   
    32   15   16 ar  
    33   15   36 1   
    34   16   17 ar  
    35   16   37 1   
    36   17   18 ar  
    37   17   38 1   
    38   18   19 ar  
    39   19   20 ar  
    40   19   39 1   
    41   20   40 1   
@<TRIPOS>SUBSTRUCTURE
     1 HLN         1 TEMP              0 ****  ****    0 ROOT
