@<TRIPOS>MOLECULE
HLN
   40    37     1     0     0
SMALL
bcc


@<TRIPOS>ATOM
      1 CAA        -7.3650    1.8220   -0.5100 c3        1 HLN     -0.208000
      2 CAB        -6.0590    1.5800   -1.2310 c3        1 HLN     -0.159000
      3 CAC        -5.0450    1.0160   -0.2620 c3        1 HLN     -0.159000
      4 CAD        -3.6920    0.9530   -0.9300 c3        1 HLN     -0.147000
      5 CAE        -2.7680    0.0800   -0.1130 c3        1 HLN     -0.150000
      6 CAF        -1.4020    0.0510   -0.7580 c3        1 HLN     -0.824000
      7 PAG        -0.1430   -0.2670    0.5090 p5        1 HLN      2.000000
      8 OAH         0.0340    0.9650    1.3630 o         1 HLN     -0.844500
      9 OAI        -0.5830   -1.4230    1.3760 o         1 HLN     -0.844500
     10 OAJ         1.2270   -0.6260   -0.1900 os        1 HLN     -0.691000
     11 CAR         2.3850   -0.6790    0.6000 c2        1 HLN      0.208000
     12 CAQ         3.3280   -0.7490   -0.4170 c2        1 HLN     -0.209000
     13 CAK         4.6880   -0.9310   -0.1050 c1        1 HLN     -0.001000
     14 CAP         5.6460   -0.9950   -1.1340 c2        1 HLN     -0.122000
     15 CAO         6.9890   -1.1690   -0.8240 c1        1 HLN     -0.145000
     16 CAN         7.3880   -1.2790    0.5040 c1        1 HLN     -0.137500
     17 CAM         6.4440   -1.2160    1.5210 c1        1 HLN     -0.137500
     18 CAL         5.0830   -1.0400    1.2080 c1        1 HLN     -0.077000
     19 CAT         4.1260   -0.9700    2.2370 c1        1 HLN     -0.126000
     20 CAS         2.7840   -0.7900    1.9280 c1        1 HLN     -0.147000
     21 H1         -7.2150    2.4360    0.2390 hc        1 HLN      0.065667
     22 H2         -7.7140    0.9720   -0.1710 hc        1 HLN      0.065667
     23 H3         -8.0120    2.2170   -1.1310 hc        1 HLN      0.065667
     24 H4         -6.2020    0.9440   -1.9600 hc        1 HLN      0.073000
     25 H5         -5.7260    2.4250   -1.5960 hc        1 HLN      0.073000
     26 H6         -4.9930    1.5920    0.5270 hc        1 HLN      0.078500
     27 H7         -5.3180    0.1170    0.0080 hc        1 HLN      0.078500
     28 H8         -3.3170    1.8550   -0.9930 hc        1 HLN      0.070500
     29 H9         -3.7880    0.5760   -1.8270 hc        1 HLN      0.070500
     30 H10        -2.6940    0.4410    0.7930 hc        1 HLN      0.094000
     31 H11        -3.1290   -0.8290   -0.0730 hc        1 HLN      0.094000
     32 H12        -1.2240    0.9130   -1.1850 hc        1 HLN      0.110000
     33 H13        -1.3740   -0.6580   -1.4310 hc        1 HLN      0.110000
     34 H15         3.0460   -0.6840   -1.3490 ha        1 HLN      0.148000
     35 H16         5.3660   -0.9170   -2.0670 ha        1 HLN      0.125000
     36 H17         7.6500   -1.2330   -1.5390 ha        1 HLN      0.110000
     37 H18         8.3320   -1.4010    0.7210 ha        1 HLN      0.111500
     38 H19         6.7250   -1.2850    2.4530 ha        1 HLN      0.111500
     39 H20         4.4060   -1.0470    3.1690 ha        1 HLN      0.113000
     40 H21         2.1180   -0.7670    2.6410 ha        1 HLN      0.152000
@<TRIPOS>BOND
     1    1    2 1   
     2    1   21 1   
     3    1   22 1   
     4    1   23 1   
     5    2    3 1   
     6    2   24 1   
     7    2   25 1   
     8    3    4 1   
     9    3   26 1   
    10    3   27 1   
    11    4    5 1   
    12    4   28 1   
    13    4   29 1   
    14    5    6 1   
    15    5   30 1   
    16    5   31 1   
    17    6    7 1   
    18    6   32 1   
    19    6   33 1   
    20    7    8 1   
    21    7    9 1   
    22    7   10 1   
    23   10   11 1   
    24   11   12 1   
    25   11   20 1   
    26   12   13 1   
    27   12   34 1   
    28   13   14 1   
    29   14   15 1   
    30   14   35 1   
    31   15   36 1   
    32   16   17 1   
    33   16   37 1   
    34   17   38 1   
    35   18   19 1   
    36   19   39 1   
    37   20   40 1   
@<TRIPOS>SUBSTRUCTURE
     1 HLN         1 TEMP              0 ****  ****    0 ROOT
