@<TRIPOS>MOLECULE
HLN
   40    41     1     0     0
SMALL
bcc


@<TRIPOS>ATOM
      1 CAA         0.2480   -0.1150   -0.4300 c3        1 HLN     -0.090100
      2 CAB         1.7350   -0.0800   -0.1910 c3        1 HLN     -0.080400
      3 CAC         2.0620   -0.0210    1.2860 c3        1 HLN     -0.080400
      4 CAD         3.5570    0.0140    1.5220 c3        1 HLN     -0.068400
      5 CAE         3.8830    0.0720    2.9960 c3        1 HLN     -0.071400
      6 CAF         5.3590    0.1080    3.2680 c3        1 HLN     -0.337600
      7 PAG         5.5230    0.1680    4.9460 p5        1 HLN      1.358600
      8 OAH         5.1380   -1.1140    5.5650 o         1 HLN     -0.844500
      9 OAI         5.1280    1.4870    5.4760 o         1 HLN     -0.844500
     10 OAJ         7.2300    0.1930    4.9810 os        1 HLN     -0.502500
     11 CAR         7.9340    0.2710    6.1190 ca        1 HLN      0.253100
     12 CAQ         8.4250   -0.8750    6.7400 ca        1 HLN     -0.209000
     13 CAK         9.2770   -0.7750    7.8640 ca        1 HLN     -0.001000
     14 CAP         9.7870   -1.9350    8.5150 ca        1 HLN     -0.122000
     15 CAO        10.6230   -1.8220    9.5970 ca        1 HLN     -0.145000
     16 CAN        10.9920   -0.5470   10.0870 ca        1 HLN     -0.168000
     17 CAM        10.5120    0.5890    9.4820 ca        1 HLN     -0.107000
     18 CAL         9.6460    0.5030    8.3610 ca        1 HLN     -0.077000
     19 CAT         9.1300    1.6610    7.7190 ca        1 HLN     -0.126000
     20 CAS         8.3030    1.5590    6.6330 ca        1 HLN     -0.147000
     21 H1         -0.2400    0.7960   -0.0080 hc        1 HLN      0.026367
     22 H2          0.0280   -0.1580   -1.5240 hc        1 HLN      0.026367
     23 H3         -0.2070   -1.0120    0.0570 hc        1 HLN      0.026367
     24 H4          2.1780    0.8130   -0.7070 hc        1 HLN      0.033700
     25 H5          2.2110   -0.9900   -0.6430 hc        1 HLN      0.033700
     26 H6          1.5900    0.8890    1.7400 hc        1 HLN      0.039200
     27 H7          1.6230   -0.9140    1.8040 hc        1 HLN      0.039200
     28 H8          3.9990    0.9070    1.0060 hc        1 HLN      0.031200
     29 H9          4.0320   -0.8960    1.0690 hc        1 HLN      0.031200
     30 H10         3.4510   -0.8240    3.5220 hc        1 HLN      0.054700
     31 H11         3.4180    0.9860    3.4580 hc        1 HLN      0.054700
     32 H12         5.8600   -0.7930    2.8420 hc        1 HLN      0.070700
     33 H13         5.8270    0.9970    2.7810 hc        1 HLN      0.070700
     34 H15         8.1290   -1.8650    6.3660 ha        1 HLN      0.148000
     35 H16         9.4890   -2.9220    8.1300 ha        1 HLN      0.125000
     36 H17        11.0140   -2.7190   10.0990 ha        1 HLN      0.110000
     37 H18        11.6620   -0.4810   10.9560 ha        1 HLN      0.110000
     38 H19        10.7890    1.5850    9.8570 ha        1 HLN      0.113000
     39 H20         9.4070    2.6480    8.1180 ha        1 HLN      0.113000
     40 H21         7.8820    2.4510    6.1440 ha        1 HLN      0.152000
@<TRIPOS>BOND
     1    1    2 1   
     2    1   21 1   
     3    1   22 1   
     4    1   23 1   
     5    2    3 1   
     6    2   24 1   
     7    2   25 1   
     8    3    4 1   
     9    3   26 1   
    10    3   27 1   
    11    4    5 1   
    12    4   28 1   
    13    4   29 1   
    14    5    6 1   
    15    5   30 1   
    16    5   31 1   
    17    6    7 1   
    18    6   32 1   
    19    6   33 1   
    20    7    8 1   
    21    7    9 1   
    22    7   10 1   
    23   10   11 1   
    24   11   12 ar  
    25   11   20 ar  
    26   12   13 ar  
    27   12   34 1   
    28   13   14 ar  
    29   13   18 ar  
    30   14   15 ar  
    31   14   35 1   
    32   15   16 ar  
    33   15   36 1   
    34   16   17 ar  
    35   16   37 1   
    36   17   18 ar  
    37   17   38 1   
    38   18   19 ar  
    39   19   20 ar  
    40   19   39 1   
    41   20   40 1   
@<TRIPOS>SUBSTRUCTURE
     1 HLN         1 TEMP              0 ****  ****    0 ROOT
