@<TRIPOS>MOLECULE
HLO
   41    42     1     0     0
SMALL
bcc


@<TRIPOS>ATOM
      1 O3         -3.0920   -0.3220    8.5550 o         1 HLO     -0.560300
      2 C14        -3.4390   -0.2110    7.3660 c2        1 HLO      0.655300
      3 N4         -4.4880    0.5530    6.9550 n         1 HLO     -0.635000
      4 C11        -2.6330   -0.9450    6.3210 cc        1 HLO      0.018000
      5 C10        -2.2080   -0.3440    5.1310 cc        1 HLO     -0.106000
      6 C9         -1.3770   -1.0570    4.2580 cd        1 HLO      0.079000
      7 N3         -0.9720   -2.3340    4.5470 na        1 HLO     -0.414200
      8 C13        -1.3950   -2.9340    5.7060 cd        1 HLO      0.079000
      9 C12        -2.2220   -2.2590    6.6060 cc        1 HLO     -0.106000
     10 C8         -0.1370   -3.0780    3.5780 c3        1 HLO      0.377600
     11 O2          0.9020   -2.2550    3.0800 os        1 HLO     -0.403600
     12 C7          2.1860   -2.3680    3.6880 c3        1 HLO      0.202100
     13 N2          3.0390   -3.3340    2.9820 na        1 HLO     -0.053100
     14 C2          3.5560   -3.0380    1.7310 ca        1 HLO      0.038800
     15 C1          3.1550   -1.7800    1.0720 ce        1 HLO      0.283800
     16 N1          4.0500   -1.0770    0.4190 n2        1 HLO     -0.320200
     17 O1          3.6140   -0.0020   -0.1530 oh        1 HLO     -0.304500
     18 C3          4.4310   -3.9330    1.0960 ca        1 HLO     -0.131000
     19 C4          4.7990   -5.1410    1.7130 ca        1 HLO      0.060100
     20 C5          4.2480   -5.4250    2.9880 ca        1 HLO     -0.143000
     21 C6          3.3860   -4.5210    3.5870 ca        1 HLO     -0.034300
     22 C22         5.7070   -6.1070    1.1210 ce        1 HLO      0.304800
     23 N5          6.2480   -5.9030   -0.0640 n2        1 HLO     -0.328200
     24 O4          7.0400   -6.8280   -0.4850 oh        1 HLO     -0.285500
     25 H4N1       -4.8040    0.5520    6.0190 hn        1 HLO      0.341500
     26 H4N2       -5.0350    1.0220    7.6440 hn        1 HLO      0.341500
     27 H10        -2.5000    0.6900    4.8670 ha        1 HLO      0.220500
     28 H12        -2.5330   -2.7500    7.5500 ha        1 HLO      0.220500
     29 H9         -1.0140   -0.6160    3.3050 h4        1 HLO      0.213500
     30 H13        -1.0640   -3.9750    5.9020 h4        1 HLO      0.213500
     31 H8C1        0.2480   -4.0140    4.0680 h2        1 HLO      0.121200
     32 H8C2       -0.7780   -3.3070    2.6700 h2        1 HLO      0.121200
     33 H7C1        2.6340   -1.3330    3.5630 h2        1 HLO      0.122700
     34 H7C2        2.1140   -2.6600    4.7730 h2        1 HLO      0.122700
     35 H6          2.9620   -4.7170    4.5920 h4        1 HLO      0.191000
     36 H1          2.0830   -1.5020    1.1380 h4        1 HLO      0.044800
     37 H3          4.8300   -3.6640    0.0990 ha        1 HLO      0.221000
     38 HA          4.4000    0.4060   -0.5930 ho        1 HLO      0.490000
     39 H5          4.5060   -6.3620    3.5160 ha        1 HLO      0.207000
     40 H22         5.9200   -7.0160    1.7230 h4        1 HLO      0.049800
     41 H4          7.3630   -6.5300   -1.3710 ho        1 HLO      0.486000
@<TRIPOS>BOND
     1    1    2 1   
     2    2    3 1   
     3    2    4 2   
     4    3   25 1   
     5    3   26 1   
     6    4    5 1   
     7    4    9 1   
     8    5    6 2   
     9    5   27 1   
    10    6    7 1   
    11    6   29 1   
    12    7    8 1   
    13    7   10 1   
    14    8    9 2   
    15    8   30 1   
    16    9   28 1   
    17   10   11 1   
    18   10   31 1   
    19   10   32 1   
    20   11   12 1   
    21   12   13 1   
    22   12   33 1   
    23   12   34 1   
    24   13   14 1   
    25   13   21 2   
    26   14   15 1   
    27   14   18 ar  
    28   15   16 2   
    29   15   36 1   
    30   16   17 1   
    31   17   38 1   
    32   18   19 ar  
    33   18   37 1   
    34   19   20 ar  
    35   19   22 1   
    36   20   21 ar  
    37   20   39 1   
    38   21   35 1   
    39   22   23 2   
    40   22   40 1   
    41   23   24 1   
    42   24   41 1   
@<TRIPOS>SUBSTRUCTURE
     1 HLO         1 TEMP              0 ****  ****    0 ROOT
