@<TRIPOS>MOLECULE
HLO
   42    43     1     0     0
SMALL
bcc


@<TRIPOS>ATOM
      1 O3         -0.1150    0.5690   -0.2060 o         1 HLO     -0.324300
      2 C14         1.0250    0.9810   -0.3160 c2        1 HLO      0.537300
      3 N4          1.4220    2.1070    0.5970 n4        1 HLO     -0.749400
      4 C11         2.0480    0.4600   -1.2610 cc        1 HLO     -0.048000
      5 C10         2.3450   -0.9100   -1.2310 cc        1 HLO     -0.091000
      6 C9          3.2200   -1.4460   -2.1950 cd        1 HLO      0.107500
      7 N3          3.7730   -0.6590   -3.1660 na        1 HLO     -0.377200
      8 C13         3.4850    0.6780   -3.1980 cd        1 HLO      0.107500
      9 C12         2.6270    1.2640   -2.2520 cc        1 HLO     -0.091000
     10 C8          4.7600   -1.2350   -4.1340 c3        1 HLO      0.379600
     11 O2          4.4400   -2.5820   -4.3970 os        1 HLO     -0.410600
     12 C7          3.9640   -2.9040   -5.7140 c3        1 HLO      0.219100
     13 N2          4.9670   -3.6580   -6.4800 na        1 HLO     -0.043100
     14 C2          4.5730   -4.4060   -7.5770 ca        1 HLO      0.019800
     15 C1          3.1770   -4.4690   -8.0510 ce        1 HLO      0.327800
     16 N1          2.4310   -3.4010   -8.1680 n2        1 HLO     -0.403200
     17 O1          1.2430   -3.5980   -8.6520 oh        1 HLO     -0.291500
     18 C3          5.5140   -5.1660   -8.2920 ca        1 HLO     -0.133000
     19 C4          6.8690   -5.1880   -7.9150 ca        1 HLO      0.037100
     20 C5          7.2420   -4.4210   -6.7840 ca        1 HLO     -0.129000
     21 C6          6.2890   -3.6880   -6.0960 ca        1 HLO     -0.038300
     22 C22         7.8860   -5.9480   -8.6170 ce        1 HLO      0.305800
     23 N5          7.8190   -6.7320   -9.6640 n2        1 HLO     -0.273200
     24 O4          6.6860   -6.9290  -10.2470 oh        1 HLO     -0.342500
     25 H4N1        2.1470    1.7970    1.2600 hn        1 HLO      0.494800
     26 H4N2        1.7780    2.9090    0.0640 hn        1 HLO      0.494800
     27 H10         1.9010   -1.5940   -0.4790 ha        1 HLO      0.223500
     28 H12         2.4140    2.3450   -2.3440 ha        1 HLO      0.223500
     29 H9          3.4830   -2.5320   -2.1980 h4        1 HLO      0.246000
     30 H13         3.9530    1.2970   -3.9990 h4        1 HLO      0.246000
     31 H8C1        5.7600   -1.2520   -3.5950 h2        1 HLO      0.134700
     32 H8C2        4.7780   -0.5870   -5.0570 h2        1 HLO      0.134700
     33 H7C1        3.0760   -3.5850   -5.5220 h2        1 HLO      0.124700
     34 H7C2        3.6810   -1.9770   -6.2900 h2        1 HLO      0.124700
     35 H6          6.5610   -3.1050   -5.1940 h4        1 HLO      0.183000
     36 H1          2.8520   -5.4870   -8.3680 h4        1 HLO      0.078800
     37 H3          5.1590   -5.7480   -9.1670 ha        1 HLO      0.226000
     38 HA          0.8740   -2.7030   -8.8420 ho        1 HLO      0.476000
     39 H5          8.2930   -4.4070   -6.4390 ha        1 HLO      0.210000
     40 H22         8.9220   -5.8700   -8.2150 h4        1 HLO      0.077800
     41 H4          6.8700   -7.5450  -11.0010 ho        1 HLO      0.505000
     42 H43         0.5950    2.4150    1.1430 hn        1 HLO      0.494800
@<TRIPOS>BOND
     1    1    2 1   
     2    2    3 1   
     3    2    4 2   
     4    3   25 1   
     5    3   26 1   
     6    3   42 1   
     7    4    5 1   
     8    4    9 1   
     9    5    6 2   
    10    5   27 1   
    11    6    7 1   
    12    6   29 1   
    13    7    8 1   
    14    7   10 1   
    15    8    9 2   
    16    8   30 1   
    17    9   28 1   
    18   10   11 1   
    19   10   31 1   
    20   10   32 1   
    21   11   12 1   
    22   12   13 1   
    23   12   33 1   
    24   12   34 1   
    25   13   14 1   
    26   13   21 2   
    27   14   15 1   
    28   14   18 ar  
    29   15   16 2   
    30   15   36 1   
    31   16   17 1   
    32   17   38 1   
    33   18   19 ar  
    34   18   37 1   
    35   19   20 ar  
    36   19   22 1   
    37   20   21 ar  
    38   20   39 1   
    39   21   35 1   
    40   22   23 2   
    41   22   40 1   
    42   23   24 1   
    43   24   41 1   
@<TRIPOS>SUBSTRUCTURE
     1 HLO         1 TEMP              0 ****  ****    0 ROOT
