@<TRIPOS>MOLECULE
HLO
   42    43     1     0     0
SMALL
bcc


@<TRIPOS>ATOM
      1 O3         -0.1180    0.5390   -0.1850 o         1 HLO     -0.324300
      2 C14         1.0250    0.9460   -0.2850 c2        1 HLO      0.537300
      3 N4          1.4250    2.0570    0.6450 nz        1 HLO     -0.749400
      4 C11         2.0480    0.4310   -1.2320 cc        1 HLO     -0.048000
      5 C10         2.3380   -0.9400   -1.2190 cc        1 HLO     -0.091000
      6 C9          3.2140   -1.4680   -2.1870 cd        1 HLO      0.107500
      7 N3          3.7760   -0.6720   -3.1450 na        1 HLO     -0.377200
      8 C13         3.4960    0.6670   -3.1600 cd        1 HLO      0.107500
      9 C12         2.6370    1.2450   -2.2100 cc        1 HLO     -0.091000
     10 C8          4.7630   -1.2410   -4.1170 c3        1 HLO      0.379600
     11 O2          4.4360   -2.5830   -4.3990 os        1 HLO     -0.410600
     12 C7          3.9630   -2.8840   -5.7230 c3        1 HLO      0.219100
     13 N2          4.9660   -3.6330   -6.4950 na        1 HLO     -0.043100
     14 C2          4.5720   -4.3640   -7.6030 ca        1 HLO      0.019800
     15 C1          3.1780   -4.4110   -8.0850 ce        1 HLO      0.327800
     16 N1          2.4390   -3.3360   -8.1900 n2        1 HLO     -0.403200
     17 O1          1.2520   -3.5190   -8.6830 oh        1 HLO     -0.291500
     18 C3          5.5110   -5.1200   -8.3240 ca        1 HLO     -0.133000
     19 C4          6.8640   -5.1560   -7.9420 ca        1 HLO      0.037100
     20 C5          7.2370   -4.4070   -6.7980 ca        1 HLO     -0.129000
     21 C6          6.2850   -3.6770   -6.1040 ca        1 HLO     -0.038300
     22 C22         7.8790   -5.9130   -8.6500 ce        1 HLO      0.305800
     23 N5          7.8130   -6.6820   -9.7070 n2        1 HLO     -0.273200
     24 O4          6.6810   -6.8620  -10.2980 oh        1 HLO     -0.342500
     25 H4N1        2.1440    1.7340    1.3070 hn        1 HLO      0.494800
     26 H4N2        0.5970    2.3630    1.1920 hn        1 HLO      0.494800
     27 H10         1.8860   -1.6320   -0.4790 ha        1 HLO      0.223500
     28 H12         2.4300    2.3290   -2.2880 ha        1 HLO      0.223500
     29 H9          3.4700   -2.5560   -2.2040 h4        1 HLO      0.246000
     30 H13         3.9700    1.2940   -3.9510 h4        1 HLO      0.246000
     31 H8C1        4.7890   -0.5810   -5.0310 h2        1 HLO      0.134700
     32 H8C2        5.7610   -1.2710   -3.5740 h2        1 HLO      0.134700
     33 H7C1        3.6890   -1.9470   -6.2870 h2        1 HLO      0.124700
     34 H7C2        3.0710   -3.5610   -5.5440 h2        1 HLO      0.124700
     35 H6          6.5570   -3.1090   -5.1930 h4        1 HLO      0.183000
     36 H1          2.8480   -5.4230   -8.4170 h4        1 HLO      0.078800
     37 H3          5.1560   -5.6870   -9.2090 ha        1 HLO      0.226000
     38 HA          0.8900   -2.6190   -8.8630 ho        1 HLO      0.476000
     39 H5          8.2860   -4.4040   -6.4480 ha        1 HLO      0.210000
     40 H22         8.9140   -5.8480   -8.2410 h4        1 HLO      0.077800
     41 H4          6.8650   -7.4680  -11.0600 ho        1 HLO      0.505000
     42 H43         1.7880    2.8640    0.1240 hn        1 HLO      0.494800
@<TRIPOS>BOND
     1    1    2 1   
     2    2    3 1   
     3    2    4 2   
     4    3   25 1   
     5    3   26 1   
     6    3   42 1   
     7    4    5 1   
     8    4    9 1   
     9    5    6 2   
    10    5   27 1   
    11    6    7 1   
    12    6   29 1   
    13    7    8 1   
    14    7   10 1   
    15    8    9 2   
    16    8   30 1   
    17    9   28 1   
    18   10   11 1   
    19   10   31 1   
    20   10   32 1   
    21   11   12 1   
    22   12   13 1   
    23   12   33 1   
    24   12   34 1   
    25   13   14 1   
    26   13   21 2   
    27   14   15 1   
    28   14   18 ar  
    29   15   16 2   
    30   15   36 1   
    31   16   17 1   
    32   17   38 1   
    33   18   19 ar  
    34   18   37 1   
    35   19   20 ar  
    36   19   22 1   
    37   20   21 ar  
    38   20   39 1   
    39   21   35 1   
    40   22   23 2   
    41   22   40 1   
    42   23   24 1   
    43   24   41 1   
@<TRIPOS>SUBSTRUCTURE
     1 HLO         1 TEMP              0 ****  ****    0 ROOT
