@<TRIPOS>MOLECULE
HLO
   42    43     1     0     0
SMALL
bcc


@<TRIPOS>ATOM
      1 O3         -0.1750    0.7060   -0.3400 o         1 HLO     -0.324300
      2 C14         0.9880    1.0630   -0.3930 c2        1 HLO      0.537300
      3 N4          1.3990    2.1520    0.5570 n4        1 HLO     -0.749400
      4 C11         2.0250    0.5060   -1.3020 cc        1 HLO     -0.048000
      5 C10         2.2520   -0.8770   -1.2840 cc        1 HLO     -0.091000
      6 C9          3.1420   -1.4400   -2.2190 cd        1 HLO      0.107500
      7 N3          3.7760   -0.6660   -3.1500 na        1 HLO     -0.377200
      8 C13         3.5570    0.6840   -3.1700 cd        1 HLO      0.107500
      9 C12         2.6870    1.2960   -2.2510 cc        1 HLO     -0.091000
     10 C8          4.7760   -1.2750   -4.0850 c3        1 HLO      0.379600
     11 O2          4.4010   -2.6000   -4.3870 os        1 HLO     -0.410600
     12 C7          3.9690   -2.8750   -5.7300 c3        1 HLO      0.219100
     13 N2          4.9660   -3.6660   -6.4650 na        1 HLO     -0.043100
     14 C2          4.5850   -4.3750   -7.5910 ca        1 HLO      0.019800
     15 C1          3.2100   -4.3590   -8.1290 ce        1 HLO      0.327800
     16 N1          2.5250   -3.2510   -8.2580 n2        1 HLO     -0.403200
     17 O1          1.3520   -3.3780   -8.7990 oh        1 HLO     -0.291500
     18 C3          5.5180   -5.1710   -8.2780 ca        1 HLO     -0.133000
     19 C4          6.8510   -5.2690   -7.8420 ca        1 HLO      0.037100
     20 C5          7.2110   -4.5420   -6.6810 ca        1 HLO     -0.129000
     21 C6          6.2660   -3.7710   -6.0220 ca        1 HLO     -0.038300
     22 C22         7.8590   -6.0690   -8.5120 ce        1 HLO      0.305800
     23 N5          7.8000   -6.8310   -9.5750 n2        1 HLO     -0.273200
     24 O4          6.6860   -6.9590  -10.2120 oh        1 HLO     -0.342500
     25 H4N1        2.0770    1.7960    1.2450 hn        1 HLO      0.494800
     26 H4N2        0.5640    2.4930    1.0720 hn        1 HLO      0.494800
     27 H10         1.7410   -1.5500   -0.5660 ha        1 HLO      0.223500
     28 H12         2.5320    2.3890   -2.3320 ha        1 HLO      0.223500
     29 H9          3.3500   -2.5380   -2.2310 h4        1 HLO      0.246000
     30 H13         4.0890    1.2920   -3.9380 h4        1 HLO      0.246000
     31 H8C1        4.8670   -0.6140   -4.9930 h2        1 HLO      0.134700
     32 H8C2        5.7480   -1.3510   -3.5030 h2        1 HLO      0.134700
     33 H7C1        3.7600   -1.9250   -6.3000 h2        1 HLO      0.124700
     34 H7C2        3.0400   -3.5130   -5.5900 h2        1 HLO      0.124700
     35 H6          6.5260   -3.2180   -5.0980 h4        1 HLO      0.183000
     36 H1          2.8490   -5.3530   -8.4780 h4        1 HLO      0.078800
     37 H3          5.1730   -5.7190   -9.1790 ha        1 HLO      0.226000
     38 HA          1.0380   -2.4630   -8.9880 ho        1 HLO      0.476000
     39 H5          8.2440   -4.5870   -6.2890 ha        1 HLO      0.210000
     40 H22         8.8780   -6.0510   -8.0630 h4        1 HLO      0.077800
     41 H4          6.8720   -7.5710  -10.9690 ho        1 HLO      0.505000
     42 H43         1.8180    2.9450    0.0550 hn        1 HLO      0.494800
@<TRIPOS>BOND
     1    1    2 1   
     2    2    3 1   
     3    2    4 2   
     4    3   25 1   
     5    3   26 1   
     6    3   42 1   
     7    4    5 1   
     8    4    9 1   
     9    5    6 2   
    10    5   27 1   
    11    6    7 1   
    12    6   29 1   
    13    7    8 1   
    14    7   10 1   
    15    8    9 2   
    16    8   30 1   
    17    9   28 1   
    18   10   11 1   
    19   10   31 1   
    20   10   32 1   
    21   11   12 1   
    22   12   13 1   
    23   12   33 1   
    24   12   34 1   
    25   13   14 1   
    26   13   21 2   
    27   14   15 1   
    28   14   18 ar  
    29   15   16 2   
    30   15   36 1   
    31   16   17 1   
    32   17   38 1   
    33   18   19 ar  
    34   18   37 1   
    35   19   20 ar  
    36   19   22 1   
    37   20   21 ar  
    38   20   39 1   
    39   21   35 1   
    40   22   23 2   
    41   22   40 1   
    42   23   24 1   
    43   24   41 1   
@<TRIPOS>SUBSTRUCTURE
     1 HLO         1 TEMP              0 ****  ****    0 ROOT
