@<TRIPOS>MOLECULE
HLO
   41    35     1     0     0
SMALL
bcc


@<TRIPOS>ATOM
      1 O3         -1.6680   -3.6380    5.3360 o         1 HLO     -0.292000
      2 C14        -1.7060   -4.1630    4.2390 c1        1 HLO      0.323000
      3 N4         -2.6250   -5.2490    3.9900 n2        1 HLO     -0.398000
      4 C11        -0.8290   -3.6270    3.1050 c2        1 HLO      0.018000
      5 C10        -1.3660   -2.7870    2.1750 c2        1 HLO     -0.119000
      6 C9         -0.5390   -2.1300    1.2690 c1        1 HLO     -0.009000
      7 N3          0.8170   -2.3270    1.3110 n2        1 HLO     -0.088000
      8 C13         1.3530   -3.1610    2.2340 c1        1 HLO      0.004000
      9 C12         0.5250   -3.8210    3.1450 c1        1 HLO     -0.094000
     10 C8          1.6720   -1.6690    0.3480 c3        1 HLO      0.063000
     11 O2          1.3770   -0.2700    0.3290 os        1 HLO     -0.262000
     12 C7          1.7010    0.3770   -0.9110 c3        1 HLO      0.073000
     13 N2          0.8640    1.5080   -1.0860 n3        1 HLO     -0.101000
     14 C2          1.2430    2.5190   -1.9390 c2        1 HLO      0.071000
     15 C1          2.5430    2.4220   -2.6850 c2        1 HLO     -0.151000
     16 N1          2.5440    2.1390   -3.9870 n1        1 HLO      0.044000
     17 O1          1.3630    1.9380   -4.6430 o         1 HLO     -0.270000
     18 C3          0.4460    3.6530   -2.0720 c1        1 HLO     -0.129000
     19 C4         -0.7150    3.7610   -1.3530 c1        1 HLO      0.109000
     20 C5         -1.0930    2.7480   -0.5010 c1        1 HLO     -0.137000
     21 C6         -0.2930    1.6150   -0.3700 c1        1 HLO      0.010000
     22 C22        -1.5730    5.0150   -1.4730 c2        1 HLO     -0.184000
     23 N5         -2.4260    5.1240   -2.4350 n1        1 HLO      0.093000
     24 O4         -2.5580    4.1320   -3.3320 o         1 HLO     -0.270000
     25 H4N1       -2.4680   -5.8350    3.2970 hn        1 HLO      0.254000
     26 H4N2       -3.3800   -5.3400    4.5070 hn        1 HLO      0.254000
     27 H10        -2.3360   -2.6470    2.1430 ha        1 HLO      0.209000
     28 H12         0.9050   -4.4110    3.7980 ha        1 HLO      0.232000
     29 H9         -0.9200   -1.5360    0.6120 ha        1 HLO      0.204000
     30 H13         2.3240   -3.3010    2.2640 ha        1 HLO      0.220000
     31 H8C1        1.5150   -2.0450   -0.5300 h2        1 HLO      0.169500
     32 H8C2        2.6280   -1.8060    0.6030 h2        1 HLO      0.169500
     33 H7C1        2.6370    0.6630   -0.8940 h2        1 HLO      0.163000
     34 H7C2        1.5650   -0.2430   -1.6440 h2        1 HLO      0.163000
     35 H6         -0.5620    0.8930    0.2360 ha        1 HLO      0.213000
     36 H1          3.3910    2.5650   -2.2130 h4        1 HLO      0.227000
     37 H3          0.7140    4.3710   -2.6770 ha        1 HLO      0.220000
     38 HA          1.5300    1.6830   -5.4910 ho        1 HLO      0.291000
     39 H5         -1.9070    2.8230    0.0040 ha        1 HLO      0.210000
     40 H22        -1.4780    5.7350   -0.8210 h4        1 HLO      0.204000
     41 H4         -3.2140    4.3250   -3.8890 ho        1 HLO      0.291000
@<TRIPOS>BOND
     1    1    2 1   
     2    2    4 1   
     3    3   25 1   
     4    3   26 1   
     5    4    5 1   
     6    4    9 1   
     7    5    6 1   
     8    5   27 1   
     9    6   29 1   
    10    7    8 1   
    11    7   10 1   
    12    8   30 1   
    13    9   28 1   
    14   10   11 1   
    15   10   31 1   
    16   10   32 1   
    17   11   12 1   
    18   12   13 1   
    19   12   33 1   
    20   12   34 1   
    21   13   14 1   
    22   13   21 1   
    23   14   15 1   
    24   14   18 1   
    25   15   16 1   
    26   15   36 1   
    27   17   38 1   
    28   18   37 1   
    29   19   20 1   
    30   19   22 1   
    31   20   39 1   
    32   21   35 1   
    33   22   23 1   
    34   22   40 1   
    35   24   41 1   
@<TRIPOS>SUBSTRUCTURE
     1 HLO         1 TEMP              0 ****  ****    0 ROOT
