@<TRIPOS>MOLECULE
HLR
   16    17     1     0     0
SMALL
bcc


@<TRIPOS>ATOM
      1 C1         -0.1330   -0.4950   -0.0250 ca        1 HLR     -0.237900
      2 C2          0.7590   -1.5580   -0.0370 ca        1 HLR     -0.058000
      3 C3          2.1220   -1.2610   -0.0150 ca        1 HLR     -0.159000
      4 C4          2.5870    0.0630    0.0160 ca        1 HLR     -0.092000
      5 C5          1.7130    1.1500    0.0250 ca        1 HLR     -0.125000
      6 C6          0.3580    0.8430    0.0040 ca        1 HLR      0.065100
      7 C          -1.6030   -0.3100   -0.0440 cc        1 HLR      0.547800
      8 N1         -1.8740    1.0220   -0.0140 nd        1 HLR     -0.461200
      9 N2         -2.5120   -1.3510   -0.1730 nh        1 HLR     -0.856800
     10 O7         -0.7400    1.7210    0.0020 os        1 HLR     -0.010600
     11 H2          0.4060   -2.5980   -0.0690 ha        1 HLR      0.140000
     12 H3          2.8530   -2.0830   -0.0240 ha        1 HLR      0.138000
     13 H4          3.6720    0.2490    0.0320 ha        1 HLR      0.139000
     14 H5          2.0690    2.1870    0.0460 ha        1 HLR      0.157000
     15 H21N       -2.2100   -2.1890    0.2730 hn        1 HLR      0.405800
     16 H22N       -3.4630   -1.1140    0.0150 hn        1 HLR      0.405800
@<TRIPOS>BOND
     1    1    2 ar  
     2    1    6 ar  
     3    1    7 1   
     4    2    3 ar  
     5    2   11 1   
     6    3    4 ar  
     7    3   12 1   
     8    4    5 ar  
     9    4   13 1   
    10    5    6 ar  
    11    5   14 1   
    12    6   10 1   
    13    7    8 2   
    14    7    9 1   
    15    8   10 1   
    16    9   15 1   
    17    9   16 1   
@<TRIPOS>SUBSTRUCTURE
     1 HLR         1 TEMP              0 ****  ****    0 ROOT
