@<TRIPOS>MOLECULE
HLR
   17    18     1     0     0
SMALL
bcc


@<TRIPOS>ATOM
      1 C1          0.0760   -0.0110   -0.0430 ca        1 HLR     -0.218900
      2 C2          1.4680    0.0110   -0.0320 ca        1 HLR     -0.081000
      3 C3          2.1010    0.0270    1.2100 ca        1 HLR     -0.102000
      4 C4          1.3780    0.0210    2.4160 ca        1 HLR     -0.068000
      5 C5         -0.0180   -0.0010    2.4390 ca        1 HLR     -0.080000
      6 C6         -0.6350   -0.0170    1.1960 ca        1 HLR      0.052100
      7 C          -1.0110   -0.0340   -1.0250 cc        1 HLR      0.332800
      8 N1         -2.2130   -0.0520   -0.3850 nd        1 HLR     -0.286200
      9 N2         -0.8310   -0.0330   -2.4610 n4        1 HLR     -0.740600
     10 O7         -2.0280   -0.0430    0.9020 os        1 HLR      0.066400
     11 H2          2.0560    0.0160   -0.9610 ha        1 HLR      0.148000
     12 H3          3.2040    0.0440    1.2510 ha        1 HLR      0.171000
     13 H4          1.9290    0.0350    3.3730 ha        1 HLR      0.176000
     14 H5         -0.5940   -0.0060    3.3760 ha        1 HLR      0.190000
     15 H21N       -0.5390    0.9090   -2.7580 hn        1 HLR      0.480133
     16 H22N       -0.0970   -0.7130   -2.6970 hn        1 HLR      0.480133
     17 H23        -1.7040   -0.2870   -2.9460 hn        1 HLR      0.480133
@<TRIPOS>BOND
     1    1    2 ar  
     2    1    6 ar  
     3    1    7 1   
     4    2    3 ar  
     5    2   11 1   
     6    3    4 ar  
     7    3   12 1   
     8    4    5 ar  
     9    4   13 1   
    10    5    6 ar  
    11    5   14 1   
    12    6   10 1   
    13    7    8 2   
    14    7    9 1   
    15    8   10 1   
    16    9   15 1   
    17    9   16 1   
    18    9   17 1   
@<TRIPOS>SUBSTRUCTURE
     1 HLR         1 TEMP              0 ****  ****    0 ROOT
