@<TRIPOS>MOLECULE
HLT
    8     7     1     0     0
SMALL
bcc


@<TRIPOS>ATOM
      1 F1          0.0400   -0.0100   -0.0530 f         1 HLT     -0.218300
      2 C2          1.4100    0.0250   -0.0020 c3        1 HLT      0.637900
      3 F2          1.7980   -1.0900   -0.7000 f         1 HLT     -0.218300
      4 F3          1.7700    1.0860   -0.7850 f         1 HLT     -0.218300
      5 C1          1.9590    0.0520    1.4660 c3        1 HLT      0.022100
      6 BR          3.8840   -0.0230    1.5680 br        1 HLT     -0.059400
      7 CL          1.3350    1.4200    2.3370 cl        1 HLT     -0.076400
      8 HC1         1.5780   -0.8690    1.9730 h2        1 HLT      0.130700
@<TRIPOS>BOND
     1    1    2 1   
     2    2    3 1   
     3    2    4 1   
     4    2    5 1   
     5    5    6 1   
     6    5    7 1   
     7    5    8 1   
@<TRIPOS>SUBSTRUCTURE
     1 HLT         1 TEMP              0 ****  ****    0 ROOT
