@<TRIPOS>MOLECULE
HLT
    8     7     1     0     0
SMALL
bcc


@<TRIPOS>ATOM
      1 F1          0.2320   -0.4000   -2.5180 f         1 HLT     -0.218300
      2 C2          0.5820    0.0110   -1.2560 c3        1 HLT      0.637900
      3 F2          1.8750   -0.4230   -1.1110 f         1 HLT     -0.218300
      4 F3          0.6640    1.3740   -1.3330 f         1 HLT     -0.218300
      5 C1         -0.3810   -0.5450   -0.1510 c3        1 HLT      0.022100
      6 BR          0.1610   -0.0840    1.6420 br        1 HLT     -0.059400
      7 CL         -2.0220   -0.0650   -0.4570 cl        1 HLT     -0.076400
      8 HC1        -0.3410   -1.6610   -0.2180 h2        1 HLT      0.130700
@<TRIPOS>BOND
     1    1    2 1   
     2    2    3 1   
     3    2    4 1   
     4    2    5 1   
     5    5    6 1   
     6    5    7 1   
     7    5    8 1   
@<TRIPOS>SUBSTRUCTURE
     1 HLT         1 TEMP              0 ****  ****    0 ROOT
