@<TRIPOS>MOLECULE
HLU
   22    21     1     0     0
SMALL
bcc


@<TRIPOS>ATOM
      1 N           3.9890   -1.8790   -3.3170 n3        1 HLU     -0.890800
      2 CA          3.2200   -1.1450   -2.3210 c3        1 HLU     -0.007500
      3 CB          2.7010   -2.0710   -1.1980 c3        1 HLU      0.170100
      4 CG          1.9050   -1.2860   -0.1440 c3        1 HLU     -0.098700
      5 CD1         0.8070   -0.4570   -0.7710 c3        1 HLU     -0.087100
      6 CD2         1.3370   -2.2390    0.8860 c3        1 HLU     -0.087100
      7 C           4.0220    0.0260   -1.6710 c         1 HLU      0.882600
      8 O           5.1030   -0.2730   -1.0810 o         1 HLU     -0.841300
      9 OH          3.7680   -2.7690   -0.5740 oh        1 HLU     -0.646800
     10 OXT         3.5570    1.1930   -1.7700 o         1 HLU     -0.841300
     11 H           4.5490   -1.2170   -3.8250 hn        1 HLU      0.333800
     12 H2          4.6230   -2.4960   -2.8400 hn        1 HLU      0.333800
     13 HA          2.3290   -0.7100   -2.8580 h1        1 HLU      0.054700
     14 HB          2.0510   -2.8840   -1.6310 h1        1 HLU      0.040700
     15 HG          2.6310   -0.5870    0.3660 hc        1 HLU      0.078700
     16 HD11        1.2600    0.4070   -1.3230 hc        1 HLU      0.027533
     17 HD12        0.1240   -0.0590    0.0180 hc        1 HLU      0.027533
     18 HD13        0.2040   -1.0690   -1.4840 hc        1 HLU      0.027533
     19 HD21        2.1490   -2.8970    1.2820 hc        1 HLU      0.027533
     20 HD22        0.5480   -2.8850    0.4310 hc        1 HLU      0.027533
     21 HD23        0.8830   -1.6730    1.7340 hc        1 HLU      0.027533
     22 HH          4.4640   -2.1160   -0.3850 ho        1 HLU      0.442000
@<TRIPOS>BOND
     1    1    2 1   
     2    1   11 1   
     3    1   12 1   
     4    2    3 1   
     5    2    7 1   
     6    2   13 1   
     7    3    4 1   
     8    3    9 1   
     9    3   14 1   
    10    4    5 1   
    11    4    6 1   
    12    4   15 1   
    13    5   16 1   
    14    5   17 1   
    15    5   18 1   
    16    6   19 1   
    17    6   20 1   
    18    6   21 1   
    19    7    8 1   
    20    7   10 1   
    21    9   22 1   
@<TRIPOS>SUBSTRUCTURE
     1 HLU         1 TEMP              0 ****  ****    0 ROOT
