@<TRIPOS>MOLECULE
HLW
   45    47     1     0     0
SMALL
bcc


@<TRIPOS>ATOM
      1 N01         0.1140   -0.9670   -0.0540 nc        1 HLW     -0.638000
      2 C02         1.4350   -0.7960    0.0340 cd        1 HLW      0.427400
      3 N03         1.8060   -0.3540    1.3360 na        1 HLW     -0.269700
      4 C04         0.6060   -0.2550    2.0790 cd        1 HLW     -0.200600
      5 C05        -0.4160   -0.6360    1.2070 cc        1 HLW      0.310200
      6 C1'         9.0460   -3.2070   -5.9070 ca        1 HLW     -0.103300
      7 N11         3.2480    0.3740    3.1050 nb        1 HLW     -0.689000
      8 C12         3.1030   -0.0720    1.7940 ca        1 HLW      0.786500
      9 N13         4.1490   -0.2580    0.9050 nb        1 HLW     -0.764000
     10 C14         5.3910    0.0210    1.3690 ca        1 HLW      0.452600
     11 C15         5.6280    0.4740    2.6780 ca        1 HLW     -0.384600
     12 C16         4.4970    0.6330    3.5070 ca        1 HLW      0.481200
     13 C17         6.5770   -0.1340    0.4570 c3        1 HLW     -0.157700
     14 C18         6.2400   -0.9260   -0.8010 c3        1 HLW      0.111800
     15 N19         7.4350   -1.1360   -1.6760 n4        1 HLW     -0.766000
     16 C2'        10.0010   -4.1540   -5.5250 ca        1 HLW     -0.127000
     17 C20         7.0910   -1.9170   -2.9050 c3        1 HLW      0.102800
     18 C21         8.2990   -2.1350   -3.8070 c3        1 HLW     -0.111400
     19 C22         7.8760   -2.9410   -5.0260 c3        1 HLW     -0.025100
     20 C3'        11.0930   -4.4140   -6.3580 ca        1 HLW      0.021400
     21 C4'        11.2340   -3.7380   -7.5760 ca        1 HLW     -0.105000
     22 C5'        10.2740   -2.8010   -7.9520 ca        1 HLW     -0.110000
     23 C6'         9.1840   -2.5320   -7.1250 ca        1 HLW     -0.119000
     24 CL7'       12.2510   -5.5600   -5.8860 cl        1 HLW     -0.067400
     25 H02         2.1660   -0.9580   -0.7630 h5        1 HLW      0.066100
     26 H04         0.5890    0.0670    3.1210 h4        1 HLW      0.208000
     27 H05        -1.4890   -0.6940    1.3970 h4        1 HLW      0.063100
     28 H15         6.6360    0.6980    3.0450 ha        1 HLW      0.167000
     29 H16         4.5990    0.9880    4.5530 h4        1 HLW      0.056100
     30 H17         7.3940   -0.6450    1.0370 hc        1 HLW      0.081200
     31 H17A        6.9350    0.8980    0.1860 hc        1 HLW      0.081200
     32 H18         5.4620   -0.3810   -1.4110 hx        1 HLW      0.122200
     33 H18A        5.8320   -1.9420   -0.5250 hx        1 HLW      0.122200
     34 HN19        8.1610   -1.6370   -1.1510 hn        1 HLW      0.448300
     35 H2'         9.8870   -4.7020   -4.5770 ha        1 HLW      0.139000
     36 H20         6.6670   -2.9090   -2.5750 hx        1 HLW      0.109700
     37 H20A        6.2880   -1.3510   -3.4600 hx        1 HLW      0.109700
     38 H21         8.7240   -1.1520   -4.1420 hc        1 HLW      0.071700
     39 H21A        9.1060   -2.6920   -3.2600 hc        1 HLW      0.071700
     40 H22         7.0850   -2.3800   -5.5920 hc        1 HLW      0.063200
     41 H22A        7.4270   -3.9170   -4.6960 hc        1 HLW      0.063200
     42 H4'        12.0930   -3.9490   -8.2330 ha        1 HLW      0.163000
     43 H5'        10.3770   -2.2720   -8.9130 ha        1 HLW      0.152000
     44 H6'         8.4290   -1.7950   -7.4380 ha        1 HLW      0.137000
     45 H192        7.8210   -0.2260   -1.9520 hn        1 HLW      0.448300
@<TRIPOS>BOND
     1    1    2 2   
     2    1    5 1   
     3    2    3 1   
     4    2   25 1   
     5    3    4 1   
     6    3    8 1   
     7    4    5 2   
     8    4   26 1   
     9    5   27 1   
    10    6   16 ar  
    11    6   19 1   
    12    6   23 ar  
    13    7    8 ar  
    14    7   12 ar  
    15    8    9 ar  
    16    9   10 ar  
    17   10   11 ar  
    18   10   13 1   
    19   11   12 ar  
    20   11   28 1   
    21   12   29 1   
    22   13   14 1   
    23   13   30 1   
    24   13   31 1   
    25   14   15 1   
    26   14   32 1   
    27   14   33 1   
    28   15   17 1   
    29   15   34 1   
    30   15   45 1   
    31   16   20 ar  
    32   16   35 1   
    33   17   18 1   
    34   17   36 1   
    35   17   37 1   
    36   18   19 1   
    37   18   38 1   
    38   18   39 1   
    39   19   40 1   
    40   19   41 1   
    41   20   21 ar  
    42   20   24 1   
    43   21   22 ar  
    44   21   42 1   
    45   22   23 ar  
    46   22   43 1   
    47   23   44 1   
@<TRIPOS>SUBSTRUCTURE
     1 HLW         1 TEMP              0 ****  ****    0 ROOT
