@<TRIPOS>MOLECULE
HLW
   45    47     1     0     0
SMALL
bcc


@<TRIPOS>ATOM
      1 N01         0.1190   -1.0230   -0.0370 nc        1 HLW     -0.638000
      2 C02         1.4380   -0.8390    0.0460 cd        1 HLW      0.427400
      3 N03         1.8070   -0.3700    1.3400 na        1 HLW     -0.269700
      4 C04         0.6060   -0.2670    2.0820 cd        1 HLW     -0.200600
      5 C05        -0.4120   -0.6730    1.2180 cc        1 HLW      0.310200
      6 C1'         9.0470   -3.2090   -5.9050 ca        1 HLW     -0.103300
      7 N11         3.2440    0.4000    3.0950 nb        1 HLW     -0.690000
      8 C12         3.1020   -0.0690    1.7910 ca        1 HLW      0.786500
      9 N13         4.1490   -0.2610    0.9050 nb        1 HLW     -0.764000
     10 C14         5.3880    0.0360    1.3620 ca        1 HLW      0.452600
     11 C15         5.6230    0.5130    2.6630 ca        1 HLW     -0.384600
     12 C16         4.4910    0.6760    3.4910 ca        1 HLW      0.481200
     13 C17         6.5760   -0.1250    0.4530 c3        1 HLW     -0.157700
     14 C18         6.2390   -0.9190   -0.8040 c3        1 HLW      0.111800
     15 N19         7.4340   -1.1310   -1.6780 ny        1 HLW     -0.766000
     16 C2'        10.0000   -4.1590   -5.5210 ca        1 HLW     -0.126000
     17 C20         7.0910   -1.9130   -2.9060 c3        1 HLW      0.102800
     18 C21         8.2990   -2.1340   -3.8060 c3        1 HLW     -0.111400
     19 C22         7.8770   -2.9410   -5.0250 c3        1 HLW     -0.025100
     20 C3'        11.0920   -4.4200   -6.3530 ca        1 HLW      0.021400
     21 C4'        11.2360   -3.7450   -7.5700 ca        1 HLW     -0.105000
     22 C5'        10.2790   -2.8050   -7.9480 ca        1 HLW     -0.110000
     23 C6'         9.1880   -2.5350   -7.1220 ca        1 HLW     -0.119000
     24 Cl7'       12.2470   -5.5690   -5.8800 cl        1 HLW     -0.067400
     25 H02         2.1710   -1.0100   -0.7480 h5        1 HLW      0.066100
     26 H04         0.5870    0.0730    3.1180 h4        1 HLW      0.208000
     27 H05        -1.4850   -0.7360    1.4100 h4        1 HLW      0.063100
     28 H15         6.6300    0.7510    3.0250 ha        1 HLW      0.167000
     29 H16         4.5920    1.0490    4.5300 h4        1 HLW      0.056100
     30 H17         7.3900   -0.6370    1.0360 hc        1 HLW      0.081200
     31 H17A        6.9370    0.9050    0.1800 hc        1 HLW      0.081200
     32 H18         5.8300   -1.9340   -0.5270 hx        1 HLW      0.122700
     33 H18A        5.4610   -0.3750   -1.4160 hx        1 HLW      0.122700
     34 HN19        7.8220   -0.2220   -1.9550 hn        1 HLW      0.448300
     35 H2'         9.8840   -4.7060   -4.5730 ha        1 HLW      0.139000
     36 H20         6.6660   -2.9050   -2.5750 hx        1 HLW      0.109700
     37 H20A        6.2890   -1.3480   -3.4620 hx        1 HLW      0.109700
     38 H21         9.1060   -2.6910   -3.2590 hc        1 HLW      0.072200
     39 H21A        8.7260   -1.1520   -4.1420 hc        1 HLW      0.072200
     40 H22         7.4260   -3.9160   -4.6940 hc        1 HLW      0.063200
     41 H22A        7.0860   -2.3800   -5.5920 hc        1 HLW      0.063200
     42 H4'        12.0950   -3.9580   -8.2260 ha        1 HLW      0.163000
     43 H5'        10.3830   -2.2770   -8.9090 ha        1 HLW      0.152000
     44 H6'         8.4350   -1.7970   -7.4360 ha        1 HLW      0.137000
     45 H192        8.1600   -1.6310   -1.1520 hn        1 HLW      0.448300
@<TRIPOS>BOND
     1    1    2 2   
     2    1    5 1   
     3    2    3 1   
     4    2   25 1   
     5    3    4 1   
     6    3    8 1   
     7    4    5 2   
     8    4   26 1   
     9    5   27 1   
    10    6   16 ar  
    11    6   19 1   
    12    6   23 ar  
    13    7    8 ar  
    14    7   12 ar  
    15    8    9 ar  
    16    9   10 ar  
    17   10   11 ar  
    18   10   13 1   
    19   11   12 ar  
    20   11   28 1   
    21   12   29 1   
    22   13   14 1   
    23   13   30 1   
    24   13   31 1   
    25   14   15 1   
    26   14   32 1   
    27   14   33 1   
    28   15   17 1   
    29   15   34 1   
    30   15   45 1   
    31   16   20 ar  
    32   16   35 1   
    33   17   18 1   
    34   17   36 1   
    35   17   37 1   
    36   18   19 1   
    37   18   38 1   
    38   18   39 1   
    39   19   40 1   
    40   19   41 1   
    41   20   21 ar  
    42   20   24 1   
    43   21   22 ar  
    44   21   42 1   
    45   22   23 ar  
    46   22   43 1   
    47   23   44 1   
@<TRIPOS>SUBSTRUCTURE
     1 HLW         1 TEMP              0 ****  ****    0 ROOT
