@<TRIPOS>MOLECULE
HLX
   24    23     1     0     0
SMALL
bcc


@<TRIPOS>ATOM
      1 N          -1.2550    1.9460   -0.3640 n3        1 HLX     -0.891800
      2 CA         -1.1160    0.4970   -0.4350 c3        1 HLX      0.018500
      3 C          -2.3670   -0.2960    0.0720 c         1 HLX      0.887600
      4 O          -3.3680    0.3640    0.4750 o         1 HLX     -0.846300
      5 CB          0.1150   -0.0330    0.3030 c3        1 HLX     -0.064400
      6 CG          1.4100    0.4250   -0.3320 c3        1 HLX     -0.071400
      7 C7          2.6320   -0.1720    0.3550 c3        1 HLX     -0.070700
      8 C8          2.8310   -1.6210   -0.0360 c3        1 HLX     -0.086600
      9 C9          3.8710    0.6330    0.0200 c3        1 HLX     -0.086600
     10 O1         -2.3150   -1.5570    0.0320 o         1 HLX     -0.846300
     11 H1         -2.1980    2.1680   -0.6420 hn        1 HLX      0.329300
     12 H2         -1.1760    2.2270    0.5980 hn        1 HLX      0.329300
     13 H4         -1.0060    0.2430   -1.5300 h1        1 HLX      0.040700
     14 H5          0.0860    0.2880    1.3770 hc        1 HLX      0.045700
     15 H6          0.0470   -1.1540    0.2850 hc        1 HLX      0.045700
     16 H7          1.4180    0.1410   -1.4170 hc        1 HLX      0.036200
     17 H8          1.4730    1.5440   -0.2830 hc        1 HLX      0.036200
     18 H9          2.4700   -0.1240    1.4690 hc        1 HLX      0.041700
     19 H10         3.7040   -2.0550    0.5090 hc        1 HLX      0.025533
     20 H11         1.9200   -2.2180    0.2130 hc        1 HLX      0.025533
     21 H12         3.0210   -1.7080   -1.1330 hc        1 HLX      0.025533
     22 H13         3.7600    1.6860    0.3760 hc        1 HLX      0.025533
     23 H14         4.7720    0.1870    0.5070 hc        1 HLX      0.025533
     24 H15         4.0380    0.6510   -1.0840 hc        1 HLX      0.025533
@<TRIPOS>BOND
     1    1    2 1   
     2    1   11 1   
     3    1   12 1   
     4    2    3 1   
     5    2    5 1   
     6    2   13 1   
     7    3    4 1   
     8    3   10 1   
     9    5    6 1   
    10    5   14 1   
    11    5   15 1   
    12    6    7 1   
    13    6   16 1   
    14    6   17 1   
    15    7    8 1   
    16    7    9 1   
    17    7   18 1   
    18    8   19 1   
    19    8   20 1   
    20    8   21 1   
    21    9   22 1   
    22    9   23 1   
    23    9   24 1   
@<TRIPOS>SUBSTRUCTURE
     1 HLX         1 TEMP              0 ****  ****    0 ROOT
