@<TRIPOS>MOLECULE
HLX
   24    23     1     0     0
SMALL
bcc


@<TRIPOS>ATOM
      1 N          -2.2760   -1.0820    1.6390 n3        1 HLX     -0.891800
      2 CA         -0.8400   -1.1360    1.6110 c3        1 HLX      0.018500
      3 C          -0.3140   -1.1880    3.0110 c         1 HLX      0.887600
      4 O           0.4490   -2.1190    3.3580 o         1 HLX     -0.846300
      5 CB         -0.2970    0.1030    0.9090 c3        1 HLX     -0.064400
      6 CG          0.1320   -0.2660   -0.5070 c3        1 HLX     -0.071400
      7 C7          0.6890    1.0260   -1.2550 c3        1 HLX     -0.070700
      8 C8         -0.1110    1.2710   -2.4750 c3        1 HLX     -0.086600
      9 C9          2.1350    0.8030   -1.6410 c3        1 HLX     -0.086600
     10 O1         -0.6130   -0.2700    3.8370 o         1 HLX     -0.846300
     11 H1         -2.5720   -1.1390    2.5220 hn        1 HLX      0.329300
     12 H2         -2.6160   -1.7780    1.1600 hn        1 HLX      0.329300
     13 H4         -0.5490   -1.9460    1.1200 h1        1 HLX      0.040700
     14 H5          0.4700    0.4450    1.4040 hc        1 HLX      0.045700
     15 H6         -0.9890    0.7850    0.8710 hc        1 HLX      0.045700
     16 H7         -0.6550   -0.6260   -1.0090 hc        1 HLX      0.036200
     17 H8          0.8390   -0.9530   -0.4670 hc        1 HLX      0.036200
     18 H9          0.6250    1.8080   -0.6560 hc        1 HLX      0.041700
     19 H10         0.2480    2.0650   -2.9510 hc        1 HLX      0.025533
     20 H11        -1.0400    1.4320   -2.2260 hc        1 HLX      0.025533
     21 H12        -0.0620    0.4920   -3.0590 hc        1 HLX      0.025533
     22 H13         2.6740    0.6860   -0.8350 hc        1 HLX      0.025533
     23 H14         2.4690    1.5960   -2.1550 hc        1 HLX      0.025533
     24 H15         2.2040   -0.0060   -2.2030 hc        1 HLX      0.025533
@<TRIPOS>BOND
     1    1    2 1   
     2    1   11 1   
     3    1   12 1   
     4    2    3 1   
     5    2    5 1   
     6    2   13 1   
     7    3    4 1   
     8    3   10 1   
     9    5    6 1   
    10    5   14 1   
    11    5   15 1   
    12    6    7 1   
    13    6   16 1   
    14    6   17 1   
    15    7    8 1   
    16    7    9 1   
    17    7   18 1   
    18    8   19 1   
    19    8   20 1   
    20    8   21 1   
    21    9   22 1   
    22    9   23 1   
    23    9   24 1   
@<TRIPOS>SUBSTRUCTURE
     1 HLX         1 TEMP              0 ****  ****    0 ROOT
