@<TRIPOS>MOLECULE
HLZ
   22    23     1     0     0
SMALL
bcc


@<TRIPOS>ATOM
      1 C1          0.0460   -0.4210    0.0110 ca        1 HLZ      0.228200
      2 N2          1.4270   -0.5900   -0.0000 nb        1 HLZ     -0.233000
      3 N3          2.0900   -0.5610    1.0630 nb        1 HLZ     -0.260000
      4 C4          1.4950   -0.3420    2.2880 ca        1 HLZ      0.531200
      5 C5          0.1070   -0.1080    2.4080 ca        1 HLZ     -0.163300
      6 C6         -0.6960   -0.1190    1.2080 ca        1 HLZ     -0.026300
      7 C7         -2.0750    0.1200    1.3040 ca        1 HLZ     -0.211000
      8 C8         -2.6550    0.3620    2.5430 ca        1 HLZ      0.035000
      9 C9         -1.8770    0.3690    3.7230 ca        1 HLZ     -0.106000
     10 C10        -0.5200    0.1390    3.6620 ca        1 HLZ     -0.021000
     11 N11        -0.6200   -0.5870   -1.2810 n4        1 HLZ     -0.516500
     12 N12        -0.2370    0.4350   -2.2530 n4        1 HLZ     -0.700400
     13 H4          2.1840   -0.3490    3.1630 h4        1 HLZ      0.107100
     14 H7         -2.7300    0.1210    0.4200 ha        1 HLZ      0.133000
     15 H8         -3.7440    0.5510    2.6150 ha        1 HLZ      0.196000
     16 H9         -2.3710    0.5590    4.6950 ha        1 HLZ      0.206000
     17 H10         0.0980    0.1370    4.5790 ha        1 HLZ      0.198000
     18 HN11       -1.6540   -0.5490   -1.1380 hn        1 HLZ      0.524800
     19 HN12        0.7870    0.3520   -2.4600 hn        1 HLZ      0.517800
     20 HN1A       -0.4020    1.3830   -1.8530 hn        1 HLZ      0.517800
     21 H112       -0.3510   -1.5190   -1.6860 hn        1 HLZ      0.524800
     22 H123       -0.7720    0.3320   -3.1390 hn        1 HLZ      0.517800
@<TRIPOS>BOND
     1    1    2 ar  
     2    1    6 ar  
     3    1   11 1   
     4    2    3 ar  
     5    3    4 ar  
     6    4    5 ar  
     7    4   13 1   
     8    5    6 ar  
     9    5   10 ar  
    10    6    7 ar  
    11    7    8 ar  
    12    7   14 1   
    13    8    9 ar  
    14    8   15 1   
    15    9   10 ar  
    16    9   16 1   
    17   10   17 1   
    18   11   12 1   
    19   11   18 1   
    20   11   21 1   
    21   12   19 1   
    22   12   20 1   
    23   12   22 1   
@<TRIPOS>SUBSTRUCTURE
     1 HLZ         1 TEMP              0 ****  ****    0 ROOT
