@<TRIPOS>MOLECULE
HLZ
   21    22     1     0     0
SMALL
bcc


@<TRIPOS>ATOM
      1 C1          0.0010    0.0810    0.0050 ca        1 HLZ      0.437200
      2 N2          1.3590    0.1300   -0.0350 nb        1 HLZ     -0.365000
      3 N3          2.0670    0.1160    1.0400 nb        1 HLZ     -0.292000
      4 C4          1.4940    0.0630    2.2540 ca        1 HLZ      0.413200
      5 C5          0.0720    0.0100    2.4260 ca        1 HLZ     -0.125300
      6 C6         -0.7330    0.0160    1.2490 ca        1 HLZ     -0.089300
      7 C7         -2.1410   -0.0430    1.3730 ca        1 HLZ     -0.128000
      8 C8         -2.7170   -0.1010    2.6240 ca        1 HLZ     -0.074000
      9 C9         -1.9190   -0.1020    3.7910 ca        1 HLZ     -0.093000
     10 C10        -0.5460   -0.0490    3.6970 ca        1 HLZ     -0.091000
     11 N11        -0.7750    0.0600   -1.2290 nu        1 HLZ     -0.552700
     12 N12        -0.0530   -0.1820   -2.4110 nz        1 HLZ     -0.606400
     13 H4          2.1750    0.0610    3.1260 h4        1 HLZ      0.066100
     14 H7         -2.7800   -0.0560    0.4770 ha        1 HLZ      0.148000
     15 H8         -3.8150   -0.1500    2.7270 ha        1 HLZ      0.163000
     16 H9         -2.4110   -0.1480    4.7780 ha        1 HLZ      0.167000
     17 H10         0.0860   -0.0520    4.6000 ha        1 HLZ      0.166000
     18 HN11       -1.2590    0.9570   -1.3070 hn        1 HLZ      0.424800
     19 HN12        0.6640    0.5290   -2.6350 hn        1 HLZ      0.476800
     20 HN1A       -0.7380   -0.2490   -3.1800 hn        1 HLZ      0.476800
     21 H123        0.4220   -1.0980   -2.3040 hn        1 HLZ      0.476800
@<TRIPOS>BOND
     1    1    2 ar  
     2    1    6 ar  
     3    1   11 1   
     4    2    3 ar  
     5    3    4 ar  
     6    4    5 ar  
     7    4   13 1   
     8    5    6 ar  
     9    5   10 ar  
    10    6    7 ar  
    11    7    8 ar  
    12    7   14 1   
    13    8    9 ar  
    14    8   15 1   
    15    9   10 ar  
    16    9   16 1   
    17   10   17 1   
    18   11   12 1   
    19   11   18 1   
    20   12   19 1   
    21   12   20 1   
    22   12   21 1   
@<TRIPOS>SUBSTRUCTURE
     1 HLZ         1 TEMP              0 ****  ****    0 ROOT
