@<TRIPOS>MOLECULE
HLZ
   20    21     1     0     0
SMALL
bcc


@<TRIPOS>ATOM
      1 C1         -1.1940    0.1930    0.0920 ca        1 HLZ      0.535200
      2 N2         -1.7210   -1.0670    0.1400 nb        1 HLZ     -0.396000
      3 N3         -0.9700   -2.1160    0.1540 nb        1 HLZ     -0.291000
      4 C4          0.3630   -2.0340    0.1090 ca        1 HLZ      0.323200
      5 C5          1.0480   -0.7740    0.0490 ca        1 HLZ     -0.108300
      6 C6          0.2480    0.3990    0.0420 ca        1 HLZ     -0.139300
      7 C7          0.8850    1.6620   -0.0020 ca        1 HLZ     -0.101000
      8 C8          2.2600    1.7420   -0.0480 ca        1 HLZ     -0.123000
      9 C9          3.0520    0.5730   -0.0500 ca        1 HLZ     -0.109000
     10 C10         2.4580   -0.6680   -0.0000 ca        1 HLZ     -0.114000
     11 N11        -2.0460    1.3360    0.1940 nh        1 HLZ     -0.576700
     12 N12        -3.4020    1.2400    0.0990 n3        1 HLZ     -0.631600
     13 H4          0.9280   -2.9800    0.1200 h4        1 HLZ      0.034100
     14 H7          0.2910    2.5890    0.0160 ha        1 HLZ      0.143000
     15 H8          2.7560    2.7240   -0.0800 ha        1 HLZ      0.140000
     16 H9          4.1480    0.6670   -0.0880 ha        1 HLZ      0.140000
     17 H10         3.0610   -1.5880    0.0040 ha        1 HLZ      0.143000
     18 HN11       -1.7260    2.0660   -0.4300 hn        1 HLZ      0.413800
     19 HN12       -3.7030    0.5950   -0.6240 hn        1 HLZ      0.358800
     20 HN1A       -3.7530    0.8820    0.9790 hn        1 HLZ      0.358800
@<TRIPOS>BOND
     1    1    2 ar  
     2    1    6 ar  
     3    1   11 1   
     4    2    3 ar  
     5    3    4 ar  
     6    4    5 ar  
     7    4   13 1   
     8    5    6 ar  
     9    5   10 ar  
    10    6    7 ar  
    11    7    8 ar  
    12    7   14 1   
    13    8    9 ar  
    14    8   15 1   
    15    9   10 ar  
    16    9   16 1   
    17   10   17 1   
    18   11   12 1   
    19   11   18 1   
    20   12   19 1   
    21   12   20 1   
@<TRIPOS>SUBSTRUCTURE
     1 HLZ         1 TEMP              0 ****  ****    0 ROOT
