@<TRIPOS>MOLECULE
HM2
   40    42     1     0     0
SMALL
bcc


@<TRIPOS>ATOM
      1 N1          0.0280    1.2000    0.5460 nb        1 HM2     -0.633000
      2 N2         -2.7040    0.0830   -0.1200 nb        1 HM2     -0.726000
      3 N3         -2.8090    0.3790    2.3010 nb        1 HM2     -0.721000
      4 N4         -4.7170   -0.1400   -1.3920 nh        1 HM2     -0.849900
      5 C1          1.3710    1.1610    0.6230 ca        1 HM2      0.392200
      6 C2          2.0890    0.1690    1.3170 ca        1 HM2     -0.238300
      7 C3          1.3720   -0.8330    1.9710 ca        1 HM2     -0.098000
      8 C4         -0.0240   -0.8170    1.9110 ca        1 HM2     -0.208300
      9 C5         -0.6490    0.2150    1.1830 cp        1 HM2      0.367300
     10 C6         -2.1510    0.2270    1.1130 cp        1 HM2      0.638000
     11 C7         -4.0790    0.0880   -0.1830 ca        1 HM2      0.697200
     12 C8         -4.1640    0.4010    2.2430 ca        1 HM2      0.491600
     13 C9         -4.8520    0.2670    1.0180 ca        1 HM2     -0.304200
     14 C10        -3.9870   -0.1220   -2.6380 c3        1 HM2      0.208800
     15 C11        -4.9060   -0.2820   -3.8550 c3        1 HM2     -0.049100
     16 C12        -4.1050   -0.2540   -5.1090 ca        1 HM2     -0.084300
     17 C13        -3.8880   -1.4280   -5.8380 ca        1 HM2     -0.123000
     18 C14        -3.1500   -1.3930   -7.0210 ca        1 HM2     -0.127500
     19 C15        -2.6220   -0.1880   -7.4820 ca        1 HM2     -0.127000
     20 C16        -2.8340    0.9850   -6.7580 ca        1 HM2     -0.127500
     21 C17        -3.5730    0.9540   -5.5770 ca        1 HM2     -0.123000
     22 C18        -4.9380    0.5760    3.5100 c3        1 HM2     -0.158400
     23 CL1        -6.5450    0.3110    0.9600 cl        1 HM2     -0.077400
     24 HN4        -5.6750    0.1310   -1.4340 hn        1 HM2      0.431800
     25 H1          1.8980    1.9770    0.0960 h4        1 HM2      0.024100
     26 H2          3.1860    0.1920    1.3400 ha        1 HM2      0.144000
     27 H3          1.8940   -1.6240    2.5290 ha        1 HM2      0.140000
     28 H4         -0.6240   -1.5830    2.4200 ha        1 HM2      0.154000
     29 H101       -3.2420   -0.9680   -2.6220 h1        1 HM2      0.063200
     30 H102       -3.4050    0.8400   -2.7480 h1        1 HM2      0.063200
     31 H111       -5.4730   -1.2490   -3.7800 hc        1 HM2      0.053200
     32 H112       -5.6610    0.5490   -3.8790 hc        1 HM2      0.053200
     33 H13        -4.3020   -2.3820   -5.4780 ha        1 HM2      0.133000
     34 H14        -2.9830   -2.3200   -7.5890 ha        1 HM2      0.132500
     35 H15        -2.0380   -0.1620   -8.4140 ha        1 HM2      0.132000
     36 H16        -2.4180    1.9380   -7.1180 ha        1 HM2      0.132500
     37 H17        -3.7390    1.8800   -5.0060 ha        1 HM2      0.133000
     38 H181       -5.5610    1.5020    3.4360 hc        1 HM2      0.064033
     39 H182       -4.2710    0.6650    4.4020 hc        1 HM2      0.064033
     40 H183       -5.6160   -0.3020    3.6530 hc        1 HM2      0.064033
@<TRIPOS>BOND
     1    1    5 ar  
     2    1    9 ar  
     3    2   10 ar  
     4    2   11 ar  
     5    3   10 ar  
     6    3   12 ar  
     7    4   11 1   
     8    4   14 1   
     9    4   24 1   
    10    5    6 ar  
    11    5   25 1   
    12    6    7 ar  
    13    6   26 1   
    14    7    8 ar  
    15    7   27 1   
    16    8    9 ar  
    17    8   28 1   
    18    9   10 1   
    19   11   13 ar  
    20   12   13 ar  
    21   12   22 1   
    22   13   23 1   
    23   14   15 1   
    24   14   29 1   
    25   14   30 1   
    26   15   16 1   
    27   15   31 1   
    28   15   32 1   
    29   16   17 ar  
    30   16   21 ar  
    31   17   18 ar  
    32   17   33 1   
    33   18   19 ar  
    34   18   34 1   
    35   19   20 ar  
    36   19   35 1   
    37   20   21 ar  
    38   20   36 1   
    39   21   37 1   
    40   22   38 1   
    41   22   39 1   
    42   22   40 1   
@<TRIPOS>SUBSTRUCTURE
     1 HM2         1 TEMP              0 ****  ****    0 ROOT
