@<TRIPOS>MOLECULE
HM2
   40    42     1     0     0
SMALL
bcc


@<TRIPOS>ATOM
      1 N1          0.0120    1.2090    0.5650 nb        1 HM2     -0.633000
      2 N2         -2.7080    0.0730   -0.1200 nb        1 HM2     -0.726000
      3 N3         -2.8240    0.3500    2.3030 nb        1 HM2     -0.721000
      4 N4         -4.7160   -0.1570   -1.4000 nu        1 HM2     -0.849900
      5 C1          1.3540    1.1810    0.6460 ca        1 HM2      0.392200
      6 C2          2.0790    0.1890    1.3340 ca        1 HM2     -0.238300
      7 C3          1.3680   -0.8240    1.9770 ca        1 HM2     -0.098000
      8 C4         -0.0270   -0.8200    1.9120 ca        1 HM2     -0.208300
      9 C5         -0.6590    0.2130    1.1920 cp        1 HM2      0.367300
     10 C6         -2.1610    0.2120    1.1170 cp        1 HM2      0.638000
     11 C7         -4.0830    0.0670   -0.1870 ca        1 HM2      0.697200
     12 C8         -4.1780    0.3610    2.2410 ca        1 HM2      0.491600
     13 C9         -4.8620    0.2300    1.0130 ca        1 HM2     -0.304200
     14 C10        -3.9820   -0.1230   -2.6430 c3        1 HM2      0.208800
     15 C11        -4.8960   -0.2830   -3.8640 c3        1 HM2     -0.049100
     16 C12        -4.0910   -0.2380   -5.1150 ca        1 HM2     -0.084300
     17 C13        -3.8610   -1.4040   -5.8520 ca        1 HM2     -0.123000
     18 C14        -3.1180   -1.3540   -7.0320 ca        1 HM2     -0.127500
     19 C15        -2.6010   -0.1410   -7.4830 ca        1 HM2     -0.127000
     20 C16        -2.8280    1.0260   -6.7510 ca        1 HM2     -0.127500
     21 C17        -3.5700    0.9790   -5.5730 ca        1 HM2     -0.123000
     22 C18        -4.9580    0.5200    3.5060 c3        1 HM2     -0.158400
     23 Cl1        -6.5540    0.2600    0.9500 cl        1 HM2     -0.077400
     24 HN4        -5.6760    0.1060   -1.4430 hn        1 HM2      0.431800
     25 H1          1.8760    2.0060    0.1280 h4        1 HM2      0.024100
     26 H2          3.1750    0.2220    1.3610 ha        1 HM2      0.144000
     27 H3          1.8950   -1.6150    2.5290 ha        1 HM2      0.140000
     28 H4         -0.6220   -1.5950    2.4130 ha        1 HM2      0.154000
     29 H101       -3.4090    0.8450   -2.7440 h1        1 HM2      0.063200
     30 H102       -3.2300   -0.9630   -2.6310 h1        1 HM2      0.063200
     31 H111       -5.6580    0.5420   -3.8840 hc        1 HM2      0.053200
     32 H112       -5.4540   -1.2550   -3.7980 hc        1 HM2      0.053200
     33 H13        -4.2660   -2.3650   -5.5000 ha        1 HM2      0.133000
     34 H14        -2.9410   -2.2760   -7.6060 ha        1 HM2      0.132500
     35 H15        -2.0150   -0.1020   -8.4120 ha        1 HM2      0.132000
     36 H16        -2.4200    1.9840   -7.1040 ha        1 HM2      0.132500
     37 H17        -3.7470    1.8990   -4.9960 ha        1 HM2      0.133000
     38 H181       -4.2950    0.6070    4.4020 hc        1 HM2      0.064033
     39 H182       -5.6290   -0.3650    3.6410 hc        1 HM2      0.064033
     40 H183       -5.5890    1.4410    3.4370 hc        1 HM2      0.064033
@<TRIPOS>BOND
     1    1    5 ar  
     2    1    9 ar  
     3    2   10 ar  
     4    2   11 ar  
     5    3   10 ar  
     6    3   12 ar  
     7    4   11 1   
     8    4   14 1   
     9    4   24 1   
    10    5    6 ar  
    11    5   25 1   
    12    6    7 ar  
    13    6   26 1   
    14    7    8 ar  
    15    7   27 1   
    16    8    9 ar  
    17    8   28 1   
    18    9   10 1   
    19   11   13 ar  
    20   12   13 ar  
    21   12   22 1   
    22   13   23 1   
    23   14   15 1   
    24   14   29 1   
    25   14   30 1   
    26   15   16 1   
    27   15   31 1   
    28   15   32 1   
    29   16   17 ar  
    30   16   21 ar  
    31   17   18 ar  
    32   17   33 1   
    33   18   19 ar  
    34   18   34 1   
    35   19   20 ar  
    36   19   35 1   
    37   20   21 ar  
    38   20   36 1   
    39   21   37 1   
    40   22   38 1   
    41   22   39 1   
    42   22   40 1   
@<TRIPOS>SUBSTRUCTURE
     1 HM2         1 TEMP              0 ****  ****    0 ROOT
