@<TRIPOS>MOLECULE
HM2
   40    42     1     0     0
SMALL
bcc


@<TRIPOS>ATOM
      1 N1          2.1720    2.6000   -1.2210 nb        1 HM2     -0.633000
      2 N2          0.9650    0.0900   -0.0370 nb        1 HM2     -0.726000
      3 N3          3.3230   -0.4960   -0.2750 nb        1 HM2     -0.721000
      4 N4         -0.6800   -1.6280    0.2160 nh        1 HM2     -0.849900
      5 C1          2.5100    3.9020   -1.2210 ca        1 HM2      0.392200
      6 C2          3.3140    4.5040   -0.2340 ca        1 HM2     -0.238300
      7 C3          3.7960    3.7080    0.8040 ca        1 HM2     -0.098000
      8 C4          3.4640    2.3520    0.8290 ca        1 HM2     -0.208300
      9 C5          2.6470    1.8450   -0.2010 cp        1 HM2      0.367300
     10 C6          2.2850    0.3860   -0.1700 cp        1 HM2      0.638000
     11 C7          0.6340   -1.2460   -0.0040 ca        1 HM2      0.697200
     12 C8          3.0020   -1.8130   -0.2590 ca        1 HM2      0.491600
     13 C9          1.6630   -2.2440   -0.1320 ca        1 HM2     -0.304200
     14 C10        -1.7590   -0.6700    0.1480 c3        1 HM2      0.208800
     15 C11        -3.1340   -1.3290    0.3080 c3        1 HM2     -0.049100
     16 C12        -4.2060   -0.3000    0.2280 ca        1 HM2     -0.084300
     17 C13        -4.5400    0.2740   -1.0050 ca        1 HM2     -0.123000
     18 C14        -5.5530    1.2280   -1.0850 ca        1 HM2     -0.127500
     19 C15        -6.2420    1.6150    0.0650 ca        1 HM2     -0.127000
     20 C16        -5.9140    1.0460    1.2950 ca        1 HM2     -0.127500
     21 C17        -4.9000    0.0930    1.3780 ca        1 HM2     -0.123000
     22 C18         4.0950   -2.8250   -0.3830 c3        1 HM2     -0.158400
     23 CL1         1.2760   -3.8930   -0.1270 cl        1 HM2     -0.077400
     24 HN4        -0.9040   -2.5680   -0.0270 hn        1 HM2      0.431800
     25 H1          2.1110    4.4930   -2.0650 h4        1 HM2      0.024100
     26 H2          3.5510    5.5740   -0.2890 ha        1 HM2      0.144000
     27 H3          4.4310    4.1380    1.5920 ha        1 HM2      0.140000
     28 H4          3.8320    1.6900    1.6250 ha        1 HM2      0.154000
     29 H101       -1.6110    0.0850    0.9730 h1        1 HM2      0.063200
     30 H102       -1.7360   -0.1110   -0.8330 h1        1 HM2      0.063200
     31 H111       -3.2920   -2.0910   -0.5010 hc        1 HM2      0.053200
     32 H112       -3.1880   -1.8670    1.2920 hc        1 HM2      0.053200
     33 H13        -3.9970   -0.0290   -1.9130 ha        1 HM2      0.133000
     34 H14        -5.8080    1.6750   -2.0570 ha        1 HM2      0.132500
     35 H15        -7.0410    2.3670    0.0010 ha        1 HM2      0.132000
     36 H16        -6.4550    1.3500    2.2030 ha        1 HM2      0.132500
     37 H17        -4.6440   -0.3520    2.3510 ha        1 HM2      0.133000
     38 H181        4.0890   -3.4880    0.5190 hc        1 HM2      0.064033
     39 H182        3.9150   -3.4530   -1.2910 hc        1 HM2      0.064033
     40 H183        5.1020   -2.3480   -0.4700 hc        1 HM2      0.064033
@<TRIPOS>BOND
     1    1    5 ar  
     2    1    9 ar  
     3    2   10 ar  
     4    2   11 ar  
     5    3   10 ar  
     6    3   12 ar  
     7    4   11 1   
     8    4   14 1   
     9    4   24 1   
    10    5    6 ar  
    11    5   25 1   
    12    6    7 ar  
    13    6   26 1   
    14    7    8 ar  
    15    7   27 1   
    16    8    9 ar  
    17    8   28 1   
    18    9   10 1   
    19   11   13 ar  
    20   12   13 ar  
    21   12   22 1   
    22   13   23 1   
    23   14   15 1   
    24   14   29 1   
    25   14   30 1   
    26   15   16 1   
    27   15   31 1   
    28   15   32 1   
    29   16   17 ar  
    30   16   21 ar  
    31   17   18 ar  
    32   17   33 1   
    33   18   19 ar  
    34   18   34 1   
    35   19   20 ar  
    36   19   35 1   
    37   20   21 ar  
    38   20   36 1   
    39   21   37 1   
    40   22   38 1   
    41   22   39 1   
    42   22   40 1   
@<TRIPOS>SUBSTRUCTURE
     1 HM2         1 TEMP              0 ****  ****    0 ROOT
