@<TRIPOS>MOLECULE
HM2
   41    43     1     0     0
SMALL
bcc


@<TRIPOS>ATOM
      1 N1          0.3580    0.3810    0.3150 nb        1 HM2     -0.635000
      2 N2         -2.5140    0.7540    0.0240 nb        1 HM2     -0.663000
      3 N3         -2.5870   -0.7120    1.9630 nb        1 HM2     -0.646000
      4 N4         -4.4380    1.0910   -1.3960 n4        1 HM2     -0.751700
      5 C1          1.6530    0.6230    0.5680 ca        1 HM2      0.399200
      6 C2          2.1580    0.9220    1.8530 ca        1 HM2     -0.202300
      7 C3          1.2680    0.9630    2.9220 ca        1 HM2     -0.094000
      8 C4         -0.0900    0.7090    2.6910 ca        1 HM2     -0.182300
      9 C5         -0.4950    0.4270    1.3740 cp        1 HM2      0.314300
     10 C6         -1.9420    0.1450    1.1060 cp        1 HM2      0.673000
     11 C7         -3.8180    0.4510   -0.2140 ca        1 HM2      0.505200
     12 C8         -3.8810   -0.9950    1.7220 ca        1 HM2      0.514600
     13 C9         -4.5690   -0.4260    0.5990 ca        1 HM2     -0.233200
     14 C10        -4.0350    0.4000   -2.6670 c3        1 HM2      0.107800
     15 C11        -4.6810    1.0430   -3.8940 c3        1 HM2     -0.049100
     16 C12        -4.2360    0.3050   -5.1080 ca        1 HM2     -0.128300
     17 C13        -5.0880   -0.6200   -5.7220 ca        1 HM2     -0.115500
     18 C14        -4.6750   -1.2920   -6.8720 ca        1 HM2     -0.117500
     19 C15        -3.4130   -1.0450   -7.4120 ca        1 HM2     -0.100000
     20 C16        -2.5620   -0.1210   -6.8030 ca        1 HM2     -0.117500
     21 C17        -2.9710    0.5530   -5.6540 ca        1 HM2     -0.115500
     22 C18        -4.6200   -1.9230    2.6300 c3        1 HM2     -0.175400
     23 CL1        -6.1800   -0.7850    0.2750 cl        1 HM2     -0.008400
     24 HN4        -5.4600    1.0580   -1.2910 hn        1 HM2      0.465800
     25 H1          2.3270    0.5720   -0.3080 h4        1 HM2      0.041100
     26 H2          3.2320    1.1120    1.9930 ha        1 HM2      0.165000
     27 H3          1.6210    1.1890    3.9410 ha        1 HM2      0.161000
     28 H4         -0.8110    0.7270    3.5190 ha        1 HM2      0.162000
     29 H101       -2.9100    0.4520   -2.7500 hx        1 HM2      0.121200
     30 H102       -4.3430   -0.6810   -2.5840 hx        1 HM2      0.121200
     31 H111       -4.3730    2.1210   -3.9760 hc        1 HM2      0.068200
     32 H112       -5.8000    1.0090   -3.8110 hc        1 HM2      0.068200
     33 H13        -6.0890   -0.8120   -5.3070 ha        1 HM2      0.132500
     34 H14        -5.3500   -2.0160   -7.3550 ha        1 HM2      0.150000
     35 H15        -3.0900   -1.5750   -8.3220 ha        1 HM2      0.152000
     36 H16        -1.5680    0.0790   -7.2320 ha        1 HM2      0.150000
     37 H17        -2.3020    1.2890   -5.1830 ha        1 HM2      0.132500
     38 H181       -5.5040   -1.3910    3.0650 hc        1 HM2      0.088700
     39 H182       -3.9760   -2.2920    3.4670 hc        1 HM2      0.088700
     40 H183       -4.9820   -2.8050    2.0430 hc        1 HM2      0.088700
     41 H42        -4.1440    2.0780   -1.4460 hn        1 HM2      0.465800
@<TRIPOS>BOND
     1    1    5 ar  
     2    1    9 ar  
     3    2   10 ar  
     4    2   11 ar  
     5    3   10 ar  
     6    3   12 ar  
     7    4   11 1   
     8    4   14 1   
     9    4   24 1   
    10    4   41 1   
    11    5    6 ar  
    12    5   25 1   
    13    6    7 ar  
    14    6   26 1   
    15    7    8 ar  
    16    7   27 1   
    17    8    9 ar  
    18    8   28 1   
    19    9   10 1   
    20   11   13 ar  
    21   12   13 ar  
    22   12   22 1   
    23   13   23 1   
    24   14   15 1   
    25   14   29 1   
    26   14   30 1   
    27   15   16 1   
    28   15   31 1   
    29   15   32 1   
    30   16   17 ar  
    31   16   21 ar  
    32   17   18 ar  
    33   17   33 1   
    34   18   19 ar  
    35   18   34 1   
    36   19   20 ar  
    37   19   35 1   
    38   20   21 ar  
    39   20   36 1   
    40   21   37 1   
    41   22   38 1   
    42   22   39 1   
    43   22   40 1   
@<TRIPOS>SUBSTRUCTURE
     1 HM2         1 TEMP              0 ****  ****    0 ROOT
