@<TRIPOS>MOLECULE
HM3
   15    15     1     0     0
SMALL
bcc


@<TRIPOS>ATOM
      1 C1          2.6840    0.3180    0.0000 c3        1 HM3      0.080100
      2 N1          1.2080   -1.6350    0.0000 nb        1 HM3     -0.670000
      3 C2          1.2980   -0.2790    0.0000 ca        1 HM3      0.406600
      4 C3          0.1660    0.5620   -0.0000 ca        1 HM3     -0.213300
      5 C4         -1.1020   -0.0300   -0.0000 ca        1 HM3      0.047400
      6 C5         -1.2130   -1.4230    0.0000 ca        1 HM3     -0.244300
      7 C6         -0.0220   -2.1730    0.0000 ca        1 HM3      0.405200
      8 O1          2.5660    1.7340   -0.0000 oh        1 HM3     -0.604800
      9 H3          0.2910    1.6550   -0.0000 ha        1 HM3      0.179000
     10 CL1        -2.4940    0.9390   -0.0000 cl        1 HM3     -0.079400
     11 H4         -2.1900   -1.9250    0.0000 ha        1 HM3      0.157000
     12 H5         -0.0580   -3.2780    0.0000 h4        1 HM3      0.027100
     13 H6          3.4680    2.0770   -0.0000 ho        1 HM3      0.410000
     14 HOM         3.2430   -0.0170    0.9170 h1        1 HM3      0.049700
     15 H61         3.2430   -0.0170   -0.9170 h1        1 HM3      0.049700
@<TRIPOS>BOND
     1    1    3 1   
     2    1    8 1   
     3    1   14 1   
     4    1   15 1   
     5    2    3 ar  
     6    2    7 ar  
     7    3    4 ar  
     8    4    5 ar  
     9    4    9 1   
    10    5    6 ar  
    11    5   10 1   
    12    6    7 ar  
    13    6   11 1   
    14    7   12 1   
    15    8   13 1   
@<TRIPOS>SUBSTRUCTURE
     1 HM3         1 TEMP              0 ****  ****    0 ROOT
