@<TRIPOS>MOLECULE
HM3
   15    15     1     0     0
SMALL
bcc


@<TRIPOS>ATOM
      1 C1          0.0830   -0.0210   -0.0310 c3        1 HM3      0.080100
      2 N1          2.1910    0.0220    1.2140 nb        1 HM3     -0.670000
      3 C2          1.5920   -0.0110   -0.0050 ca        1 HM3      0.406600
      4 C3          2.3200   -0.0350   -1.2120 ca        1 HM3     -0.213300
      5 C4          3.7180   -0.0250   -1.1470 ca        1 HM3      0.047400
      6 C5          4.3500    0.0090    0.0990 ca        1 HM3     -0.244300
      7 C6          3.5330    0.0310    1.2450 ca        1 HM3      0.405200
      8 O1         -0.3460   -0.0590   -1.3840 oh        1 HM3     -0.604800
      9 H3          1.7880   -0.0620   -2.1760 ha        1 HM3      0.179000
     10 CL1         4.6370   -0.0530   -2.5720 cl        1 HM3     -0.079400
     11 H4          5.4440    0.0180    0.1920 ha        1 HM3      0.157000
     12 H5          3.9850    0.0580    2.2530 h4        1 HM3      0.027100
     13 H6         -1.3100   -0.0650   -1.3590 ho        1 HM3      0.410000
     14 HOM        -0.3010   -0.9270    0.5150 h1        1 HM3      0.049700
     15 H61        -0.3120    0.9070    0.4670 h1        1 HM3      0.049700
@<TRIPOS>BOND
     1    1    3 1   
     2    1    8 1   
     3    1   14 1   
     4    1   15 1   
     5    2    3 ar  
     6    2    7 ar  
     7    3    4 ar  
     8    4    5 ar  
     9    4    9 1   
    10    5    6 ar  
    11    5   10 1   
    12    6    7 ar  
    13    6   11 1   
    14    7   12 1   
    15    8   13 1   
@<TRIPOS>SUBSTRUCTURE
     1 HM3         1 TEMP              0 ****  ****    0 ROOT
