@<TRIPOS>MOLECULE
HM3
   15    15     1     0     0
SMALL
bcc


@<TRIPOS>ATOM
      1 C1          0.0810   -0.0420   -0.0500 c3        1 HM3      0.080100
      2 N1          2.1760    0.0410    1.2150 nb        1 HM3     -0.670000
      3 C2          1.5900   -0.0140   -0.0100 ca        1 HM3      0.406600
      4 C3          2.3290   -0.0460   -1.2100 ca        1 HM3     -0.213300
      5 C4          3.7260   -0.0200   -1.1310 ca        1 HM3      0.047400
      6 C5          4.3460    0.0370    0.1200 ca        1 HM3     -0.244300
      7 C6          3.5180    0.0660    1.2580 ca        1 HM3      0.405200
      8 O1         -0.3350   -0.0880   -1.4070 oh        1 HM3     -0.604800
      9 H3          1.8070   -0.0910   -2.1780 ha        1 HM3      0.179000
     10 Cl1         4.6590   -0.0560   -2.5470 cl        1 HM3     -0.079400
     11 H4          5.4390    0.0600    0.2230 ha        1 HM3      0.157000
     12 H5          3.9600    0.1110    2.2700 h4        1 HM3      0.027100
     13 H6         -1.2990   -0.1010   -1.3910 ho        1 HM3      0.410000
     14 HOM        -0.2970   -0.9520    0.4940 h1        1 HM3      0.049700
     15 H61        -0.3300    0.8820    0.4430 h1        1 HM3      0.049700
@<TRIPOS>BOND
     1    1    3 1   
     2    1    8 1   
     3    1   14 1   
     4    1   15 1   
     5    2    3 ar  
     6    2    7 ar  
     7    3    4 ar  
     8    4    5 ar  
     9    4    9 1   
    10    5    6 ar  
    11    5   10 1   
    12    6    7 ar  
    13    6   11 1   
    14    7   12 1   
    15    8   13 1   
@<TRIPOS>SUBSTRUCTURE
     1 HM3         1 TEMP              0 ****  ****    0 ROOT
