@<TRIPOS>MOLECULE
HM3
   15    12     1     0     0
SMALL
bcc


@<TRIPOS>ATOM
      1 C1         -2.0170   -0.0220    0.0760 c3        1 HM3      0.154500
      2 N1          0.1790   -0.0210    1.2530 n1        1 HM3     -0.470800
      3 C2         -0.5040   -0.0390    0.0740 c1        1 HM3     -0.018100
      4 C3          0.1870   -0.0420   -1.1280 c1        1 HM3     -0.110500
      5 C4          1.5520   -0.0280   -1.1300 c1        1 HM3      0.064900
      6 C5          2.2340   -0.0100    0.0520 c1        1 HM3     -0.119500
      7 C6          1.5410   -0.0060    1.2520 c1        1 HM3      0.329300
      8 O1         -2.4840    0.1540    1.3950 oh        1 HM3     -0.588800
      9 H3         -0.3020   -0.0550   -1.9720 ha        1 HM3      0.101500
     10 CL1         2.4220   -0.0970   -2.6390 cl        1 HM3     -0.086900
     11 H4          3.2100    0.0000    0.0520 ha        1 HM3      0.101500
     12 H5          2.0290    0.0070    2.0970 ha        1 HM3      0.108500
     13 H6         -3.3570    0.3170    1.3810 ho        1 HM3      0.417000
     14 HOM        -2.3360    0.7150   -0.4850 h1        1 HM3      0.058700
     15 H61        -2.3530   -0.8710   -0.2790 h1        1 HM3      0.058700
@<TRIPOS>BOND
     1    1    3 1   
     2    1    8 1   
     3    1   14 1   
     4    1   15 1   
     5    2    7 3   
     6    3    4 3   
     7    4    9 1   
     8    5    6 3   
     9    5   10 1   
    10    6   11 1   
    11    7   12 1   
    12    8   13 1   
@<TRIPOS>SUBSTRUCTURE
     1 HM3         1 TEMP              0 ****  ****    0 ROOT
