@<TRIPOS>MOLECULE
HM4
   38    39     1     0     0
SMALL
bcc


@<TRIPOS>ATOM
      1 S           1.3360    0.0210    2.6630 ss        1 HM4      0.020700
      2 N1          0.2290    0.6830    0.4050 nc        1 HM4     -0.682000
      3 N2         -1.3650    0.3850    2.2000 n         1 HM4     -0.497400
      4 N3         -4.0000   -0.5190    2.9860 nb        1 HM4     -0.630000
      5 N4         -2.5980    1.0250    6.0500 n         1 HM4     -0.451100
      6 C1          2.3290    0.2710    1.3520 cd        1 HM4     -0.317400
      7 C2          1.5920    0.6150    0.2270 cc        1 HM4      0.354200
      8 C3         -0.0620    0.3830    1.6980 cd        1 HM4      0.477300
      9 C4         -1.6720    0.0030    3.4940 c         1 HM4      0.582600
     10 C5         -3.1270    0.0020    3.8830 ca        1 HM4      0.296800
     11 C6         -5.2960   -0.5670    3.3060 ca        1 HM4      0.363200
     12 C7         -5.8020   -0.0910    4.5340 ca        1 HM4     -0.190300
     13 C8         -4.9230    0.4470    5.4600 ca        1 HM4     -0.143000
     14 C9         -3.5340    0.5040    5.1620 ca        1 HM4      0.037300
     15 C10        -2.9020    1.6980    7.2280 c         1 HM4      0.761100
     16 C11        -1.8250    2.7590    9.1450 c3        1 HM4      0.187800
     17 C12        -2.5840    1.9690   10.1970 c3        1 HM4     -0.115433
     18 C13        -0.3550    2.8970    9.5360 c3        1 HM4     -0.115433
     19 C14        -2.4440    4.1260    8.9110 c3        1 HM4     -0.115433
     20 O1         -0.7730   -0.2970    4.3080 o         1 HM4     -0.612100
     21 O2         -4.0150    2.0190    7.6710 o         1 HM4     -0.582000
     22 O3         -1.7480    2.0110    7.8990 os        1 HM4     -0.441900
     23 HN2        -2.1040    0.5470    1.5460 hn        1 HM4      0.357500
     24 HN4        -1.6280    0.8320    5.8790 hn        1 HM4      0.369500
     25 H1          3.4120    0.1730    1.3810 h4        1 HM4      0.181000
     26 H2          1.9940    0.8320   -0.7700 h4        1 HM4      0.043100
     27 H6         -5.9640   -1.0050    2.5430 h4        1 HM4      0.033100
     28 H7         -6.8780   -0.1490    4.7490 ha        1 HM4      0.153000
     29 H8         -5.3030    0.8280    6.4240 ha        1 HM4      0.187000
     30 H121       -3.6690    1.9120    9.9390 hc        1 HM4      0.054256
     31 H122       -2.1750    0.9330   10.2670 hc        1 HM4      0.054256
     32 H123       -2.4730    2.4710   11.1870 hc        1 HM4      0.054256
     33 H131       -0.2870    3.4620   10.4950 hc        1 HM4      0.054256
     34 H132        0.2050    3.4460    8.7420 hc        1 HM4      0.054256
     35 H133        0.1050    1.8890    9.6660 hc        1 HM4      0.054256
     36 H141       -1.9320    4.6390    8.0620 hc        1 HM4      0.054256
     37 H142       -3.5310    4.0300    8.6720 hc        1 HM4      0.054256
     38 H143       -2.3300    4.7450    9.8320 hc        1 HM4      0.054256
@<TRIPOS>BOND
     1    1    6 1   
     2    1    8 1   
     3    2    7 1   
     4    2    8 2   
     5    3    8 1   
     6    3    9 1   
     7    3   23 1   
     8    4   10 ar  
     9    4   11 ar  
    10    5   14 1   
    11    5   15 1   
    12    5   24 1   
    13    6    7 2   
    14    6   25 1   
    15    7   26 1   
    16    9   10 1   
    17    9   20 2   
    18   10   14 ar  
    19   11   12 ar  
    20   11   27 1   
    21   12   13 ar  
    22   12   28 1   
    23   13   14 ar  
    24   13   29 1   
    25   15   21 2   
    26   15   22 1   
    27   16   17 1   
    28   16   18 1   
    29   16   19 1   
    30   16   22 1   
    31   17   30 1   
    32   17   31 1   
    33   17   32 1   
    34   18   33 1   
    35   18   34 1   
    36   18   35 1   
    37   19   36 1   
    38   19   37 1   
    39   19   38 1   
@<TRIPOS>SUBSTRUCTURE
     1 HM4         1 TEMP              0 ****  ****    0 ROOT
