@<TRIPOS>MOLECULE
HM4
   38    35     1     0     0
SMALL
bcc


@<TRIPOS>ATOM
      1 S           5.4090   -1.2310   -1.7970 ss        1 HM4      0.605000
      2 N1          5.9010    0.5810   -0.2970 n2        1 HM4     -0.156000
      3 N2          3.9110    0.6320   -0.1090 n         1 HM4     -0.264000
      4 N3          2.0250    2.1450    1.4990 n1        1 HM4     -0.104000
      5 N4         -0.7850    0.8150   -0.6390 n         1 HM4     -0.305000
      6 C1          6.9270   -1.1450   -1.6870 c1        1 HM4     -0.522000
      7 C2          7.2450   -0.0610   -0.7900 c1        1 HM4     -0.111000
      8 C3          4.8150   -0.1220   -0.9030 c2        1 HM4     -0.180000
      9 C4          2.5140    0.5240   -0.3280 c2        1 HM4      0.366000
     10 C5          1.5510    1.3170    0.5260 c2        1 HM4     -0.121000
     11 C6          1.1580    2.8650    2.2660 c1        1 HM4     -0.113500
     12 C7         -0.2070    2.7550    2.0570 c1        1 HM4     -0.113500
     13 C8         -0.6840    1.9270    1.0830 c1        1 HM4     -0.142000
     14 C9          0.1860    1.2060    0.3150 c2        1 HM4      0.110000
     15 C10        -1.6530   -0.2700   -0.3620 c2        1 HM4      0.415000
     16 C11        -3.8130   -1.2060   -0.4050 c3        1 HM4      0.116000
     17 C12        -3.3940   -2.6520   -0.5400 c3        1 HM4     -0.233333
     18 C13        -5.1710   -1.0140   -1.0410 c3        1 HM4     -0.233333
     19 C14        -3.8850   -0.8370    1.0610 c3        1 HM4     -0.233333
     20 O1          2.0910   -0.2150   -1.1960 o         1 HM4     -0.373000
     21 O2         -1.3540   -1.0850    0.4850 o         1 HM4     -0.393000
     22 O3         -2.8730   -0.3850   -1.0490 os        1 HM4     -0.280000
     23 HN2         4.2270    1.1760    0.5510 hn        1 HM4      0.271000
     24 HN4        -0.8710    1.2810   -1.4190 hn        1 HM4      0.283000
     25 H1          7.5710   -1.7210   -2.1440 DU        1 HM4      0.180500
     26 H2          8.1430    0.2240   -0.5330 DU        1 HM4      0.180500
     27 H6          1.4990    3.4570    2.9630 ha        1 HM4      0.161500
     28 H7         -0.8290    3.2710    2.6070 ha        1 HM4      0.161500
     29 H8         -1.6470    1.8490    0.9350 ha        1 HM4      0.187000
     30 H121       -3.1500   -2.8360   -1.4710 hc        1 HM4      0.093556
     31 H122       -4.1380   -3.2340   -0.2760 hc        1 HM4      0.093556
     32 H123       -2.6230   -2.8240    0.0400 hc        1 HM4      0.093556
     33 H131       -5.1310   -1.2800   -1.9840 hc        1 HM4      0.093556
     34 H132       -5.8320   -1.5660   -0.5740 hc        1 HM4      0.093556
     35 H133       -5.4300   -0.0700   -0.9790 hc        1 HM4      0.093556
     36 H141       -4.7600   -1.0970    1.4210 hc        1 HM4      0.093556
     37 H142       -3.7660    0.1310    1.1610 hc        1 HM4      0.093556
     38 H143       -3.1780   -1.3060    1.5520 hc        1 HM4      0.093556
@<TRIPOS>BOND
     1    1    6 1   
     2    1    8 1   
     3    2    7 1   
     4    2    8 1   
     5    3    8 1   
     6    3    9 1   
     7    3   23 1   
     8    4   10 1   
     9    5   14 1   
    10    5   15 1   
    11    5   24 1   
    12    6    7 1   
    13    9   10 1   
    14    9   20 1   
    15   10   14 1   
    16   11   12 1   
    17   11   27 1   
    18   12   28 1   
    19   13   14 1   
    20   13   29 1   
    21   15   21 1   
    22   15   22 1   
    23   16   17 1   
    24   16   18 1   
    25   16   19 1   
    26   16   22 1   
    27   17   30 1   
    28   17   31 1   
    29   17   32 1   
    30   18   33 1   
    31   18   34 1   
    32   18   35 1   
    33   19   36 1   
    34   19   37 1   
    35   19   38 1   
@<TRIPOS>SUBSTRUCTURE
     1 HM4         1 TEMP              0 ****  ****    0 ROOT
