@<TRIPOS>MOLECULE
HM4
   38    39     1     0     0
SMALL
bcc


@<TRIPOS>ATOM
      1 S           1.3210    0.0290    2.6420 ss        1 HM4      0.020700
      2 N1          0.1970    0.6870    0.3920 nc        1 HM4     -0.682000
      3 N2         -1.3850    0.3850    2.1970 ns        1 HM4     -0.497400
      4 N3         -4.0110   -0.5280    3.0000 nb        1 HM4     -0.630000
      5 N4         -2.5940    1.0220    6.0550 ns        1 HM4     -0.451100
      6 C1          2.3040    0.2820    1.3260 cd        1 HM4     -0.317400
      7 C2          1.5600    0.6240    0.2050 cc        1 HM4      0.354200
      8 C3         -0.0840    0.3860    1.6870 cd        1 HM4      0.477300
      9 C4         -1.6820    0.0020    3.4930 c         1 HM4      0.582600
     10 C5         -3.1340   -0.0030    3.8910 ca        1 HM4      0.296800
     11 C6         -5.3060   -0.5790    3.3280 ca        1 HM4      0.363200
     12 C7         -5.8040   -0.1040    4.5590 ca        1 HM4     -0.190300
     13 C8         -4.9220    0.4370    5.4790 ca        1 HM4     -0.142000
     14 C9         -3.5350    0.4980    5.1720 ca        1 HM4      0.037300
     15 C10        -2.8930    1.6960    7.2330 c         1 HM4      0.761100
     16 C11        -1.8080    2.7620    9.1430 c3        1 HM4      0.187800
     17 C12        -2.5590    1.9710   10.2000 c3        1 HM4     -0.115433
     18 C13        -0.3360    2.9030    9.5250 c3        1 HM4     -0.115433
     19 C14        -2.4310    4.1280    8.9110 c3        1 HM4     -0.115433
     20 O1         -0.7770   -0.2950    4.3010 o         1 HM4     -0.612100
     21 O2         -4.0050    2.0150    7.6830 o         1 HM4     -0.582000
     22 O3         -1.7360    2.0130    7.8970 os        1 HM4     -0.441900
     23 HN2        -2.1280    0.5440    1.5470 hn        1 HM4      0.357500
     24 HN4        -1.6250    0.8320    5.8780 hn        1 HM4      0.369500
     25 H1          3.3880    0.1880    1.3480 h4        1 HM4      0.181000
     26 H2          1.9550    0.8420   -0.7940 h4        1 HM4      0.043100
     27 H6         -5.9770   -1.0200    2.5690 h4        1 HM4      0.033100
     28 H7         -6.8790   -0.1650    4.7810 ha        1 HM4      0.153000
     29 H8         -5.2970    0.8180    6.4450 ha        1 HM4      0.187000
     30 H121       -3.6460    1.9120    9.9480 hc        1 HM4      0.054256
     31 H122       -2.1480    0.9360   10.2680 hc        1 HM4      0.054256
     32 H123       -2.4430    2.4750   11.1890 hc        1 HM4      0.054256
     33 H131        0.2180    3.4520    8.7270 hc        1 HM4      0.054256
     34 H132        0.1270    1.8960    9.6540 hc        1 HM4      0.054256
     35 H133       -0.2640    3.4700   10.4830 hc        1 HM4      0.054256
     36 H141       -2.3130    4.7480    9.8310 hc        1 HM4      0.054256
     37 H142       -1.9250    4.6410    8.0590 hc        1 HM4      0.054256
     38 H143       -3.5190    4.0290    8.6780 hc        1 HM4      0.054256
@<TRIPOS>BOND
     1    1    6 1   
     2    1    8 1   
     3    2    7 1   
     4    2    8 2   
     5    3    8 1   
     6    3    9 1   
     7    3   23 1   
     8    4   10 ar  
     9    4   11 ar  
    10    5   14 1   
    11    5   15 1   
    12    5   24 1   
    13    6    7 2   
    14    6   25 1   
    15    7   26 1   
    16    9   10 1   
    17    9   20 2   
    18   10   14 ar  
    19   11   12 ar  
    20   11   27 1   
    21   12   13 ar  
    22   12   28 1   
    23   13   14 ar  
    24   13   29 1   
    25   15   21 2   
    26   15   22 1   
    27   16   17 1   
    28   16   18 1   
    29   16   19 1   
    30   16   22 1   
    31   17   30 1   
    32   17   31 1   
    33   17   32 1   
    34   18   33 1   
    35   18   34 1   
    36   18   35 1   
    37   19   36 1   
    38   19   37 1   
    39   19   38 1   
@<TRIPOS>SUBSTRUCTURE
     1 HM4         1 TEMP              0 ****  ****    0 ROOT
