@<TRIPOS>MOLECULE
HM4
   38    39     1     0     0
SMALL
bcc


@<TRIPOS>ATOM
      1 S           1.3190   -2.3880    9.1220 ss        1 HM4      0.020700
      2 N1          1.0100   -4.9610    9.3380 nc        1 HM4     -0.682000
      3 N2         -0.6500   -3.9160    7.9230 n         1 HM4     -0.497400
      4 N3         -3.4020   -3.8720    7.0290 nb        1 HM4     -0.630000
      5 N4         -1.6960   -1.3620    4.9000 n         1 HM4     -0.451100
      6 C1          2.4090   -3.2260   10.0560 cd        1 HM4     -0.317400
      7 C2          2.1110   -4.5820   10.0740 cc        1 HM4      0.354200
      8 C3          0.4710   -3.8590    8.7550 cd        1 HM4      0.477300
      9 C4         -1.2480   -2.7880    7.3910 c         1 HM4      0.582600
     10 C5         -2.4840   -2.9940    6.5560 ca        1 HM4      0.296800
     11 C6         -4.5270   -4.0620    6.3330 ca        1 HM4      0.363200
     12 C7         -4.8010   -3.3940    5.1210 ca        1 HM4     -0.190300
     13 C8         -3.8720   -2.4950    4.6230 ca        1 HM4     -0.142000
     14 C9         -2.6670   -2.2570    5.3410 ca        1 HM4      0.037300
     15 C10        -1.6890   -0.7400    3.6570 c         1 HM4      0.761100
     16 C11        -0.4050    0.8670    2.3430 c3        1 HM4      0.187800
     17 C12        -1.5790    1.7820    2.0400 c3        1 HM4     -0.115433
     18 C13         0.8400    1.6880    2.6770 c3        1 HM4     -0.115433
     19 C14        -0.1220   -0.0870    1.1960 c3        1 HM4     -0.115433
     20 O1         -0.7600   -1.6520    7.5750 o         1 HM4     -0.612100
     21 O2         -2.4690   -0.9000    2.7060 o         1 HM4     -0.582000
     22 O3         -0.6340    0.1330    3.5780 os        1 HM4     -0.441900
     23 HN2        -1.0990   -4.8030    7.8270 hn        1 HM4      0.357500
     24 HN4        -0.9910   -1.0750    5.5530 hn        1 HM4      0.369500
     25 H1          3.2410   -2.7650   10.5830 h4        1 HM4      0.181000
     26 H2          2.6650   -5.3610   10.6120 h4        1 HM4      0.043100
     27 H6         -5.2430   -4.7840    6.7630 h4        1 HM4      0.033100
     28 H7         -5.7400   -3.5860    4.5830 ha        1 HM4      0.153000
     29 H8         -4.0680   -1.9680    3.6730 ha        1 HM4      0.187000
     30 H121       -1.8320    2.3930    2.9390 hc        1 HM4      0.054256
     31 H122       -1.3070    2.4660    1.2010 hc        1 HM4      0.054256
     32 H123       -2.4760    1.1860    1.7450 hc        1 HM4      0.054256
     33 H131        1.6890    1.0110    2.9340 hc        1 HM4      0.054256
     34 H132        0.6390    2.3570    3.5460 hc        1 HM4      0.054256
     35 H133        1.1150    2.3050    1.7890 hc        1 HM4      0.054256
     36 H141       -1.0450   -0.6530    0.9190 hc        1 HM4      0.054256
     37 H142        0.2250    0.4950    0.3090 hc        1 HM4      0.054256
     38 H143        0.6730   -0.8130    1.4880 hc        1 HM4      0.054256
@<TRIPOS>BOND
     1    1    6 1   
     2    1    8 1   
     3    2    7 1   
     4    2    8 2   
     5    3    8 1   
     6    3    9 1   
     7    3   23 1   
     8    4   10 ar  
     9    4   11 ar  
    10    5   14 1   
    11    5   15 1   
    12    5   24 1   
    13    6    7 2   
    14    6   25 1   
    15    7   26 1   
    16    9   10 1   
    17    9   20 2   
    18   10   14 ar  
    19   11   12 ar  
    20   11   27 1   
    21   12   13 ar  
    22   12   28 1   
    23   13   14 ar  
    24   13   29 1   
    25   15   21 2   
    26   15   22 1   
    27   16   17 1   
    28   16   18 1   
    29   16   19 1   
    30   16   22 1   
    31   17   30 1   
    32   17   31 1   
    33   17   32 1   
    34   18   33 1   
    35   18   34 1   
    36   18   35 1   
    37   19   36 1   
    38   19   37 1   
    39   19   38 1   
@<TRIPOS>SUBSTRUCTURE
     1 HM4         1 TEMP              0 ****  ****    0 ROOT
