@<TRIPOS>MOLECULE
HM4
   40    41     1     0     0
SMALL
bcc


@<TRIPOS>ATOM
      1 S          -0.9260    0.6290   -0.4960 ss        1 HM4      0.244700
      2 N1         -0.3580   -0.3320    1.8420 nc        1 HM4     -0.614000
      3 N2         -1.9160    1.5690    1.9530 n4        1 HM4     -0.581500
      4 N3         -3.1830   -0.4490    3.4720 nb        1 HM4     -0.639000
      5 N4         -1.2150    0.9730    6.3670 n4        1 HM4     -0.543200
      6 C1          0.1020   -0.6400   -0.4230 cd        1 HM4     -0.234400
      7 C2          0.3170   -1.0530    0.9070 cc        1 HM4      0.368200
      8 C3         -1.0870    0.6360    1.2040 cd        1 HM4      0.272300
      9 C4         -1.6720    1.4530    3.4400 c         1 HM4      0.498600
     10 C5         -2.3380    0.3420    4.1790 ca        1 HM4      0.391800
     11 C6         -3.7660   -1.4900    4.0780 ca        1 HM4      0.468200
     12 C7         -3.5380   -1.8120    5.4360 ca        1 HM4     -0.148300
     13 C8         -2.6910   -1.0000    6.1810 ca        1 HM4     -0.073000
     14 C9         -2.0740    0.1130    5.5600 ca        1 HM4     -0.069700
     15 C10        -1.9980    2.1320    7.0070 c         1 HM4      0.652100
     16 C11        -2.3670    3.2190    9.1840 c3        1 HM4      0.217800
     17 C12        -3.8720    3.1700    9.0810 c3        1 HM4     -0.136100
     18 C13        -1.8550    2.7870   10.5440 c3        1 HM4     -0.136100
     19 C14        -1.7770    4.5300    8.7250 c3        1 HM4     -0.136100
     20 O1         -0.9190    2.2940    3.9170 o         1 HM4     -0.437100
     21 O2         -2.6540    2.8770    6.2980 o         1 HM4     -0.432000
     22 O3         -1.7940    2.1070    8.3120 os        1 HM4     -0.421900
     23 HN2        -1.6740    2.5300    1.6580 hn        1 HM4      0.486300
     24 HN4        -0.4690    1.3870    5.7860 hn        1 HM4      0.487800
     25 H1          0.5770   -1.1210   -1.2880 h4        1 HM4      0.238000
     26 H2          0.9700   -1.8820    1.2230 h4        1 HM4      0.092100
     27 H6         -4.4500   -2.0990    3.4460 h4        1 HM4      0.089100
     28 H7         -4.0310   -2.6910    5.8920 ha        1 HM4      0.212000
     29 H8         -2.5120   -1.2310    7.2480 ha        1 HM4      0.192000
     30 H121       -4.2560    2.1540    9.3410 hc        1 HM4      0.079922
     31 H122       -4.2140    3.4440    8.0530 hc        1 HM4      0.079922
     32 H123       -4.3060    3.9070    9.8030 hc        1 HM4      0.079922
     33 H131       -0.7390    2.7570   10.5590 hc        1 HM4      0.079922
     34 H132       -2.2500    1.7790   10.8180 hc        1 HM4      0.079922
     35 H133       -2.2070    3.5330   11.3010 hc        1 HM4      0.079922
     36 H141       -2.1330    4.7950    7.6990 hc        1 HM4      0.079922
     37 H142       -0.6600    4.4880    8.7300 hc        1 HM4      0.079922
     38 H143       -2.1020    5.3380    9.4290 hc        1 HM4      0.079922
     39 H22        -2.9080    1.3780    1.7420 hn        1 HM4      0.486300
     40 H42        -0.7790    0.4160    7.1190 hn        1 HM4      0.487800
@<TRIPOS>BOND
     1    1    6 1   
     2    1    8 1   
     3    2    7 1   
     4    2    8 2   
     5    3    8 1   
     6    3    9 1   
     7    3   23 1   
     8    3   39 1   
     9    4   10 ar  
    10    4   11 ar  
    11    5   14 1   
    12    5   15 1   
    13    5   24 1   
    14    5   40 1   
    15    6    7 2   
    16    6   25 1   
    17    7   26 1   
    18    9   10 1   
    19    9   20 2   
    20   10   14 ar  
    21   11   12 ar  
    22   11   27 1   
    23   12   13 ar  
    24   12   28 1   
    25   13   14 ar  
    26   13   29 1   
    27   15   21 2   
    28   15   22 1   
    29   16   17 1   
    30   16   18 1   
    31   16   19 1   
    32   16   22 1   
    33   17   30 1   
    34   17   31 1   
    35   17   32 1   
    36   18   33 1   
    37   18   34 1   
    38   18   35 1   
    39   19   36 1   
    40   19   37 1   
    41   19   38 1   
@<TRIPOS>SUBSTRUCTURE
     1 HM4         1 TEMP              0 ****  ****    0 ROOT
