@<TRIPOS>MOLECULE
HM5
   37    38     1     0     0
SMALL
bcc


@<TRIPOS>ATOM
      1 S           3.4500    0.7410    9.0310 ss        1 HM5     -0.107300
      2 N1          1.7580    1.2740    7.1270 nc        1 HM5     -0.639000
      3 N2          4.1040    1.5910    6.5140 n         1 HM5     -0.528400
      4 N3          6.3920    2.0130    4.7900 nb        1 HM5     -0.636000
      5 N4          3.4870    1.9080    2.4860 n         1 HM5     -0.470100
      6 C1          1.8250    0.5630    9.3610 cd        1 HM5     -0.256400
      7 C2          1.0580    0.8670    8.2460 cc        1 HM5      0.344200
      8 C3          3.0780    1.2600    7.3990 cd        1 HM5      0.514300
      9 C4          4.1460    1.1390    5.2000 c         1 HM5      0.597600
     10 C5          5.1500    1.8040    4.2910 ca        1 HM5      0.286800
     11 C6          7.3120    2.5750    3.9980 ca        1 HM5      0.358200
     12 C7          7.0470    2.9650    2.6700 ca        1 HM5     -0.195300
     13 C8          5.7800    2.7610    2.1480 ca        1 HM5     -0.136000
     14 C9          4.7740    2.1590    2.9530 ca        1 HM5      0.028300
     15 C10         2.8910    2.4330    1.3420 c         1 HM5      0.672100
     16 C11         1.4510    1.9690    1.0570 c3        1 HM5     -0.113000
     17 C12         0.5420    2.3890    2.2020 c3        1 HM5     -0.092100
     18 C13         1.4220    0.4590    0.8840 c3        1 HM5     -0.092100
     19 C14         0.9840    2.6350   -0.2310 c3        1 HM5     -0.092100
     20 O1          3.4130    0.2190    4.7980 o         1 HM5     -0.579100
     21 O2          3.4770    3.2340    0.5940 o         1 HM5     -0.589100
     22 HN2         4.7330    2.3030    6.8120 hn        1 HM5      0.345500
     23 HN4         2.9310    1.2770    3.0320 hn        1 HM5      0.352500
     24 H1          1.4330    0.2530   10.3270 h4        1 HM5      0.183000
     25 H2         -0.0360    0.8210    8.1830 h4        1 HM5      0.046100
     26 H6          8.3100    2.7190    4.4480 h4        1 HM5      0.029100
     27 H7          7.8380    3.4240    2.0600 ha        1 HM5      0.151000
     28 H8          5.5560    3.0670    1.1120 ha        1 HM5      0.184000
     29 H121        0.7640    1.8130    3.1320 hc        1 HM5      0.048256
     30 H122       -0.5220    2.1960    1.9210 hc        1 HM5      0.048256
     31 H123        0.6600    3.4780    2.4130 hc        1 HM5      0.048256
     32 H131        1.6180   -0.0670    1.8490 hc        1 HM5      0.048256
     33 H132        2.1860    0.1380    0.1360 hc        1 HM5      0.048256
     34 H133        0.4130    0.1460    0.5180 hc        1 HM5      0.048256
     35 H141        1.0160    3.7460   -0.1230 hc        1 HM5      0.048256
     36 H142       -0.0600    2.3200   -0.4630 hc        1 HM5      0.048256
     37 H143        1.6510    2.3460   -1.0780 hc        1 HM5      0.048256
@<TRIPOS>BOND
     1    1    6 1   
     2    1    8 1   
     3    2    7 1   
     4    2    8 2   
     5    3    8 1   
     6    3    9 1   
     7    3   22 1   
     8    4   10 ar  
     9    4   11 ar  
    10    5   14 1   
    11    5   15 1   
    12    5   23 1   
    13    6    7 2   
    14    6   24 1   
    15    7   25 1   
    16    9   10 1   
    17    9   20 2   
    18   10   14 ar  
    19   11   12 ar  
    20   11   26 1   
    21   12   13 ar  
    22   12   27 1   
    23   13   14 ar  
    24   13   28 1   
    25   15   16 1   
    26   15   21 2   
    27   16   17 1   
    28   16   18 1   
    29   16   19 1   
    30   17   29 1   
    31   17   30 1   
    32   17   31 1   
    33   18   32 1   
    34   18   33 1   
    35   18   34 1   
    36   19   35 1   
    37   19   36 1   
    38   19   37 1   
@<TRIPOS>SUBSTRUCTURE
     1 HM5         1 TEMP              0 ****  ****    0 ROOT
