@<TRIPOS>MOLECULE
HM5
   37    38     1     0     0
SMALL
bcc


@<TRIPOS>ATOM
      1 S           0.4790   -0.5560    0.3300 ss        1 HM5     -0.107300
      2 N1          0.8260    1.0380    2.3570 nc        1 HM5     -0.639000
      3 N2         -1.3850   -0.0040    2.2550 n         1 HM5     -0.528400
      4 N3         -4.0090   -0.8220    3.1670 nb        1 HM5     -0.636000
      5 N4         -2.5390    0.9960    6.0460 n         1 HM5     -0.469100
      6 C1          1.9530    0.2080    0.4760 cd        1 HM5     -0.256400
      7 C2          1.9870    1.0060    1.6110 cc        1 HM5      0.344200
      8 C3         -0.0940    0.2360    1.7840 cd        1 HM5      0.514300
      9 C4         -1.6650   -0.2690    3.5910 c         1 HM5      0.597600
     10 C5         -3.1190   -0.2240    3.9950 ca        1 HM5      0.286800
     11 C6         -5.3010   -0.8240    3.5120 ca        1 HM5      0.358200
     12 C7         -5.7800   -0.2270    4.6960 ca        1 HM5     -0.195300
     13 C8         -4.8810    0.3910    5.5500 ca        1 HM5     -0.136000
     14 C9         -3.4970    0.4080    5.2250 ca        1 HM5      0.028300
     15 C10        -2.7620    1.8740    7.1050 c         1 HM5      0.672100
     16 C11        -1.5090    2.3590    7.8560 c3        1 HM5     -0.113000
     17 C12        -0.6030    3.1210    6.9010 c3        1 HM5     -0.092100
     18 C13        -0.7720    1.1690    8.4500 c3        1 HM5     -0.092100
     19 C14        -1.9580    3.2870    8.9770 c3        1 HM5     -0.092100
     20 O1         -0.7710   -0.5510    4.4080 o         1 HM5     -0.579100
     21 O2         -3.9020    2.2520    7.4250 o         1 HM5     -0.589100
     22 HN2        -2.1300    0.1790    1.6210 hn        1 HM5      0.345500
     23 HN4        -1.5840    0.7550    5.8570 hn        1 HM5      0.352500
     24 H1          2.7700    0.0910   -0.2330 h4        1 HM5      0.183000
     25 H2          2.8380    1.6080    1.9520 h4        1 HM5      0.046100
     26 H6         -5.9870   -1.3280    2.8080 h4        1 HM5      0.029100
     27 H7         -6.8520   -0.2550    4.9350 ha        1 HM5      0.151000
     28 H8         -5.2420    0.8670    6.4780 ha        1 HM5      0.184000
     29 H121       -0.1420    2.4410    6.1450 hc        1 HM5      0.048256
     30 H122       -1.1790    3.9150    6.3690 hc        1 HM5      0.048256
     31 H123        0.2210    3.6070    7.4780 hc        1 HM5      0.048256
     32 H131       -1.4720    0.5340    9.0440 hc        1 HM5      0.048256
     33 H132        0.0380    1.5340    9.1270 hc        1 HM5      0.048256
     34 H133       -0.3010    0.5420    7.6540 hc        1 HM5      0.048256
     35 H141       -2.5160    4.1580    8.5560 hc        1 HM5      0.048256
     36 H142       -2.6350    2.7430    9.6790 hc        1 HM5      0.048256
     37 H143       -1.0690    3.6590    9.5390 hc        1 HM5      0.048256
@<TRIPOS>BOND
     1    1    6 1   
     2    1    8 1   
     3    2    7 1   
     4    2    8 2   
     5    3    8 1   
     6    3    9 1   
     7    3   22 1   
     8    4   10 ar  
     9    4   11 ar  
    10    5   14 1   
    11    5   15 1   
    12    5   23 1   
    13    6    7 2   
    14    6   24 1   
    15    7   25 1   
    16    9   10 1   
    17    9   20 2   
    18   10   14 ar  
    19   11   12 ar  
    20   11   26 1   
    21   12   13 ar  
    22   12   27 1   
    23   13   14 ar  
    24   13   28 1   
    25   15   16 1   
    26   15   21 2   
    27   16   17 1   
    28   16   18 1   
    29   16   19 1   
    30   17   29 1   
    31   17   30 1   
    32   17   31 1   
    33   18   32 1   
    34   18   33 1   
    35   18   34 1   
    36   19   35 1   
    37   19   36 1   
    38   19   37 1   
@<TRIPOS>SUBSTRUCTURE
     1 HM5         1 TEMP              0 ****  ****    0 ROOT
