@<TRIPOS>MOLECULE
HM5
   39    40     1     0     0
SMALL
bcc


@<TRIPOS>ATOM
      1 S          -0.5760    0.4280   -0.5210 ss        1 HM5      0.253700
      2 N1         -0.0430   -0.0640    1.9650 nc        1 HM5     -0.621000
      3 N2         -1.8710    1.5580    1.6920 n4        1 HM5     -0.582500
      4 N3         -3.3570   -0.4030    3.1000 nb        1 HM5     -0.646000
      5 N4         -1.6070    1.0030    6.1400 n4        1 HM5     -0.577200
      6 C1          0.6290   -0.6270   -0.1950 cd        1 HM5     -0.236400
      7 C2          0.8040   -0.7960    1.1940 cc        1 HM5      0.369200
      8 C3         -0.8630    0.6640    1.1430 cd        1 HM5      0.270300
      9 C4         -1.8800    1.5220    3.2030 c         1 HM5      0.499600
     10 C5         -2.5720    0.3870    3.8760 ca        1 HM5      0.383800
     11 C6         -3.9900   -1.4420    3.6560 ca        1 HM5      0.467200
     12 C7         -3.8700   -1.7660    5.0280 ca        1 HM5     -0.144300
     13 C8         -3.0760   -0.9610    5.8370 ca        1 HM5     -0.076000
     14 C9         -2.4090    0.1520    5.2710 ca        1 HM5     -0.063700
     15 C10        -2.3870    2.1800    6.7870 c         1 HM5      0.561100
     16 C11        -1.7930    2.6780    8.1010 c3        1 HM5     -0.089000
     17 C12        -0.2940    2.8840    7.9640 c3        1 HM5     -0.117767
     18 C13        -2.1060    1.6600    9.1890 c3        1 HM5     -0.117767
     19 C14        -2.4740    4.0060    8.4200 c3        1 HM5     -0.117767
     20 O1         -1.3000    2.4470    3.7590 o         1 HM5     -0.446100
     21 O2         -3.3580    2.5610    6.1690 o         1 HM5     -0.387100
     22 HN2        -2.7970    1.2860    1.3260 hn        1 HM5      0.487300
     23 HN4        -1.2150    0.4300    6.9010 hn        1 HM5      0.474800
     24 H1          1.2380   -1.1460   -0.9460 h4        1 HM5      0.239000
     25 H2          1.5530   -1.4490    1.6710 h4        1 HM5      0.092100
     26 H6         -4.6250   -2.0480    2.9730 h4        1 HM5      0.088100
     27 H7         -4.4040   -2.6410    5.4430 ha        1 HM5      0.212000
     28 H8         -2.9780   -1.2000    6.9120 ha        1 HM5      0.187000
     29 H121        0.2600    1.9150    7.9360 hc        1 HM5      0.075256
     30 H122       -0.0500    3.4850    7.0550 hc        1 HM5      0.075256
     31 H123        0.0740    3.4540    8.8570 hc        1 HM5      0.075256
     32 H131       -3.2050    1.4730    9.2600 hc        1 HM5      0.075256
     33 H132       -1.5730    0.6950    9.0180 hc        1 HM5      0.075256
     34 H133       -1.7630    2.0710   10.1740 hc        1 HM5      0.075256
     35 H141       -2.1050    4.3770    9.4090 hc        1 HM5      0.075256
     36 H142       -3.5830    3.8800    8.4770 hc        1 HM5      0.075256
     37 H143       -2.2350    4.7690    7.6410 hc        1 HM5      0.075256
     38 H22        -1.6480    2.5230    1.3930 hn        1 HM5      0.487300
     39 H42        -0.8210    1.4130    5.6130 hn        1 HM5      0.474800
@<TRIPOS>BOND
     1    1    6 1   
     2    1    8 1   
     3    2    7 1   
     4    2    8 2   
     5    3    8 1   
     6    3    9 1   
     7    3   22 1   
     8    3   38 1   
     9    4   10 ar  
    10    4   11 ar  
    11    5   14 1   
    12    5   15 1   
    13    5   23 1   
    14    5   39 1   
    15    6    7 2   
    16    6   24 1   
    17    7   25 1   
    18    9   10 1   
    19    9   20 2   
    20   10   14 ar  
    21   11   12 ar  
    22   11   26 1   
    23   12   13 ar  
    24   12   27 1   
    25   13   14 ar  
    26   13   28 1   
    27   15   16 1   
    28   15   21 2   
    29   16   17 1   
    30   16   18 1   
    31   16   19 1   
    32   17   29 1   
    33   17   30 1   
    34   17   31 1   
    35   18   32 1   
    36   18   33 1   
    37   18   34 1   
    38   19   35 1   
    39   19   36 1   
    40   19   37 1   
@<TRIPOS>SUBSTRUCTURE
     1 HM5         1 TEMP              0 ****  ****    0 ROOT
