@<TRIPOS>MOLECULE
HM5
   37    38     1     0     0
SMALL
bcc


@<TRIPOS>ATOM
      1 S           0.4830   -0.5410    0.3270 ss        1 HM5     -0.107300
      2 N1          0.8280    1.0470    2.3590 nc        1 HM5     -0.639000
      3 N2         -1.3820    0.0030    2.2530 ns        1 HM5     -0.528400
      4 N3         -4.0060   -0.8190    3.1610 nb        1 HM5     -0.636000
      5 N4         -2.5390    0.9920    6.0460 ns        1 HM5     -0.470100
      6 C1          1.9570    0.2250    0.4770 cd        1 HM5     -0.256400
      7 C2          1.9890    1.0180    1.6140 cc        1 HM5      0.344200
      8 C3         -0.0910    0.2460    1.7830 cd        1 HM5      0.514300
      9 C4         -1.6630   -0.2650    3.5880 c         1 HM5      0.597600
     10 C5         -3.1170   -0.2230    3.9910 ca        1 HM5      0.286800
     11 C6         -5.2980   -0.8240    3.5050 ca        1 HM5      0.358200
     12 C7         -5.7780   -0.2300    4.6900 ca        1 HM5     -0.195300
     13 C8         -4.8810    0.3870    5.5470 ca        1 HM5     -0.136000
     14 C9         -3.4970    0.4060    5.2230 ca        1 HM5      0.028300
     15 C10        -2.7640    1.8690    7.1050 c         1 HM5      0.672100
     16 C11        -1.5120    2.3530    7.8590 c3        1 HM5     -0.113000
     17 C12        -0.6030    3.1140    6.9060 c3        1 HM5     -0.092100
     18 C13        -0.7770    1.1620    8.4540 c3        1 HM5     -0.092100
     19 C14        -1.9630    3.2820    8.9790 c3        1 HM5     -0.092100
     20 O1         -0.7690   -0.5490    4.4040 o         1 HM5     -0.579100
     21 O2         -3.9040    2.2470    7.4240 o         1 HM5     -0.589100
     22 HN2        -2.1270    0.1870    1.6190 hn        1 HM5      0.345500
     23 HN4        -1.5840    0.7520    5.8580 hn        1 HM5      0.352500
     24 H1          2.7740    0.1110   -0.2320 h4        1 HM5      0.183000
     25 H2          2.8390    1.6200    1.9570 h4        1 HM5      0.046100
     26 H6         -5.9820   -1.3270    2.8000 h4        1 HM5      0.029100
     27 H7         -6.8510   -0.2600    4.9290 ha        1 HM5      0.151000
     28 H8         -5.2430    0.8610    6.4750 ha        1 HM5      0.184000
     29 H121        0.2200    3.5990    7.4850 hc        1 HM5      0.048256
     30 H122       -0.1410    2.4330    6.1510 hc        1 HM5      0.048256
     31 H123       -1.1770    3.9080    6.3710 hc        1 HM5      0.048256
     32 H131       -1.4790    0.5290    9.0480 hc        1 HM5      0.048256
     33 H132        0.0320    1.5270    9.1330 hc        1 HM5      0.048256
     34 H133       -0.3070    0.5340    7.6600 hc        1 HM5      0.048256
     35 H141       -1.0750    3.6530    9.5430 hc        1 HM5      0.048256
     36 H142       -2.5190    4.1530    8.5560 hc        1 HM5      0.048256
     37 H143       -2.6420    2.7390    9.6790 hc        1 HM5      0.048256
@<TRIPOS>BOND
     1    1    6 1   
     2    1    8 1   
     3    2    7 1   
     4    2    8 2   
     5    3    8 1   
     6    3    9 1   
     7    3   22 1   
     8    4   10 ar  
     9    4   11 ar  
    10    5   14 1   
    11    5   15 1   
    12    5   23 1   
    13    6    7 2   
    14    6   24 1   
    15    7   25 1   
    16    9   10 1   
    17    9   20 2   
    18   10   14 ar  
    19   11   12 ar  
    20   11   26 1   
    21   12   13 ar  
    22   12   27 1   
    23   13   14 ar  
    24   13   28 1   
    25   15   16 1   
    26   15   21 2   
    27   16   17 1   
    28   16   18 1   
    29   16   19 1   
    30   17   29 1   
    31   17   30 1   
    32   17   31 1   
    33   18   32 1   
    34   18   33 1   
    35   18   34 1   
    36   19   35 1   
    37   19   36 1   
    38   19   37 1   
@<TRIPOS>SUBSTRUCTURE
     1 HM5         1 TEMP              0 ****  ****    0 ROOT
