@<TRIPOS>MOLECULE
HM6
   25    26     1     0     0
SMALL
bcc


@<TRIPOS>ATOM
      1 O2          0.6980    0.3970    0.6730 o         1 HM6     -0.830300
      2 C1          1.1610   -0.5680    0.0080 c         1 HM6      0.824600
      3 O1          0.9430   -1.7850    0.2550 o         1 HM6     -0.830300
      4 C2          1.9930   -0.2390   -1.2490 ca        1 HM6      0.396800
      5 N1          3.3280   -0.0520   -1.1690 nb        1 HM6     -0.631000
      6 C3          1.2680   -0.1630   -2.4640 ca        1 HM6     -0.268300
      7 C4          1.9740    0.1180   -3.6420 ca        1 HM6     -0.016200
      8 C5          3.3640    0.3270   -3.5710 ca        1 HM6     -0.268300
      9 C6          3.9960    0.2270   -2.3120 ca        1 HM6      0.396800
     10 C7          5.5210    0.4510   -2.3150 c         1 HM6      0.824600
     11 O4          6.2500   -0.5350   -2.6140 o         1 HM6     -0.830300
     12 O3          5.9460    1.6160   -2.0930 o         1 HM6     -0.830300
     13 N2          1.3170    0.1740   -4.9150 na        1 HM6      0.169300
     14 C8          1.9250   -0.1620   -6.1290 cc        1 HM6     -0.175600
     15 C9          0.9150    0.0520   -7.0910 cd        1 HM6      0.184600
     16 C10         0.9540   -0.1150   -8.5560 c3        1 HM6      0.136100
     17 O5          2.1780   -0.7510   -8.9090 oh        1 HM6     -0.594800
     18 N4         -0.2270    0.4990   -6.3860 nd        1 HM6     -0.397000
     19 N3          0.0390    0.5580   -5.1410 nc        1 HM6     -0.168800
     20 H3          0.1830   -0.3270   -2.4500 ha        1 HM6      0.139000
     21 H5          3.9710    0.5640   -4.4530 ha        1 HM6      0.139000
     22 H8          2.9520   -0.5130   -6.2150 h4        1 HM6      0.207000
     23 H101        0.8900    0.8880   -9.0640 h1        1 HM6      0.019700
     24 H102        0.0930   -0.7510   -8.9080 h1        1 HM6      0.019700
     25 HC          2.2150   -0.7340   -9.8710 ho        1 HM6      0.384000
@<TRIPOS>BOND
     1    1    2 1   
     2    2    3 1   
     3    2    4 1   
     4    4    5 ar  
     5    4    6 ar  
     6    5    9 ar  
     7    6    7 ar  
     8    6   20 1   
     9    7    8 ar  
    10    7   13 1   
    11    8    9 ar  
    12    8   21 1   
    13    9   10 1   
    14   10   11 1   
    15   10   12 1   
    16   13   14 1   
    17   13   19 1   
    18   14   15 2   
    19   14   22 1   
    20   15   16 1   
    21   15   18 1   
    22   16   17 1   
    23   16   23 1   
    24   16   24 1   
    25   17   25 1   
    26   18   19 2   
@<TRIPOS>SUBSTRUCTURE
     1 HM6         1 TEMP              0 ****  ****    0 ROOT
