@<TRIPOS>MOLECULE
HM6
   25    21     1     0     0
SMALL
bcc


@<TRIPOS>ATOM
      1 O2         -0.8160    0.6960    4.6730 o         1 HM6     -0.574000
      2 C1         -0.4740   -0.3990    4.1930 c1        1 HM6      0.383000
      3 O1         -0.7120   -1.4670    4.8240 os        1 HM6     -0.555000
      4 C2          0.2860   -0.4460    2.8890 c2        1 HM6     -0.020000
      5 N1          1.6410   -0.4130    2.8950 n2        1 HM6     -0.103000
      6 C3         -0.4060   -0.4060    1.6800 c1        1 HM6     -0.220000
      7 C4          0.2780   -0.3340    0.5070 c1        1 HM6      0.025000
      8 C5          1.6400   -0.3010    0.5140 c1        1 HM6     -0.185000
      9 C6          2.3280   -0.3410    1.7220 c1        1 HM6     -0.023000
     10 C7          3.8580   -0.3290    1.7320 c2        1 HM6      0.384000
     11 O4          4.4650    0.7480    1.8230 o         1 HM6     -0.562500
     12 O3          4.4780   -1.3930    1.8040 o         1 HM6     -0.562500
     13 N2         -0.4110   -0.3730   -0.7020 n3        1 HM6     -0.062000
     14 C8         -0.8320    0.6830   -1.3980 c1        1 HM6     -0.106000
     15 C9         -1.4260    0.2260   -2.5440 c1        1 HM6     -0.268000
     16 C10        -2.0640    1.1070   -3.6440 c2        1 HM6      0.081000
     17 O5         -2.7630    0.2780   -4.5830 oh        1 HM6     -0.348000
     18 N4         -1.3630   -1.0910   -2.5380 n2        1 HM6     -0.138000
     19 N3         -0.7310   -1.4770   -1.3910 n2        1 HM6      0.007000
     20 H3         -1.3960   -0.3350    1.6790 ha        1 HM6      0.131000
     21 H5          2.1330   -0.3670   -0.3280 ha        1 HM6      0.147000
     22 H8         -0.6540    1.6260   -1.1770 DU        1 HM6      0.201000
     23 H101       -2.7030    1.7470   -3.2270 h4        1 HM6      0.076500
     24 H102       -1.3740    1.5960   -4.1020 h4        1 HM6      0.076500
     25 HC         -2.9830    0.7650   -5.3000 ho        1 HM6      0.213000
@<TRIPOS>BOND
     1    1    2 1   
     2    2    4 1   
     3    4    5 1   
     4    4    6 1   
     5    5    9 1   
     6    6   20 1   
     7    7    8 1   
     8    7   13 1   
     9    8   21 1   
    10    9   10 1   
    11   10   11 1   
    12   10   12 1   
    13   13   14 1   
    14   13   19 1   
    15   14   15 1   
    16   15   18 1   
    17   16   17 1   
    18   16   23 1   
    19   16   24 1   
    20   17   25 1   
    21   18   19 1   
@<TRIPOS>SUBSTRUCTURE
     1 HM6         1 TEMP              0 ****  ****    0 ROOT
