@<TRIPOS>MOLECULE
HM6
   25    26     1     0     0
SMALL
bcc


@<TRIPOS>ATOM
      1 O2          3.2180   -2.5390    1.6250 o         1 HM6     -0.830300
      2 C1          3.0870   -2.1200    0.4430 c         1 HM6      0.824600
      3 O1          3.6460   -2.6270   -0.5660 o         1 HM6     -0.830300
      4 C2          2.1090   -0.9500    0.2110 ca        1 HM6      0.396800
      5 N1          2.5460    0.3270    0.1930 nb        1 HM6     -0.631000
      6 C3          0.7500   -1.3110    0.0340 ca        1 HM6     -0.268300
      7 C4         -0.1870   -0.2880   -0.1660 ca        1 HM6     -0.016200
      8 C5          0.2570    1.0470   -0.1990 ca        1 HM6     -0.268300
      9 C6          1.6330    1.3040   -0.0110 ca        1 HM6      0.396800
     10 C7          2.0410    2.7900   -0.0420 c         1 HM6      0.824600
     11 O4          1.9050    3.4500    1.0240 o         1 HM6     -0.830300
     12 O3          2.4150    3.2750   -1.1430 o         1 HM6     -0.830300
     13 N2         -1.5860   -0.5700   -0.3150 na        1 HM6      0.169300
     14 C8         -2.6090    0.2950    0.0850 cc        1 HM6     -0.175600
     15 C9         -3.7930   -0.3880   -0.2620 cd        1 HM6      0.184600
     16 C10        -5.2020    0.0210   -0.1030 c3        1 HM6      0.136100
     17 O5         -5.2450    1.2080    0.6810 oh        1 HM6     -0.594800
     18 N4         -3.3960   -1.6150   -0.8420 nd        1 HM6     -0.397000
     19 N3         -2.1240   -1.6870   -0.8580 nc        1 HM6     -0.168800
     20 H3          0.4710   -2.3710    0.0620 ha        1 HM6      0.139000
     21 H5         -0.4230    1.8910   -0.3650 ha        1 HM6      0.139000
     22 H8         -2.4350    1.2590    0.5610 h4        1 HM6      0.207000
     23 H101       -5.6650    0.2160   -1.1110 h1        1 HM6      0.019700
     24 H102       -5.7950   -0.7850    0.4140 h1        1 HM6      0.019700
     25 HC         -6.1610    1.5040    0.6590 ho        1 HM6      0.384000
@<TRIPOS>BOND
     1    1    2 1   
     2    2    3 1   
     3    2    4 1   
     4    4    5 ar  
     5    4    6 ar  
     6    5    9 ar  
     7    6    7 ar  
     8    6   20 1   
     9    7    8 ar  
    10    7   13 1   
    11    8    9 ar  
    12    8   21 1   
    13    9   10 1   
    14   10   11 1   
    15   10   12 1   
    16   13   14 1   
    17   13   19 1   
    18   14   15 2   
    19   14   22 1   
    20   15   16 1   
    21   15   18 1   
    22   16   17 1   
    23   16   23 1   
    24   16   24 1   
    25   17   25 1   
    26   18   19 2   
@<TRIPOS>SUBSTRUCTURE
     1 HM6         1 TEMP              0 ****  ****    0 ROOT
