@<TRIPOS>MOLECULE
HM6
   25    26     1     0     0
SMALL
bcc


@<TRIPOS>ATOM
      1 O2          0.7600    1.2230    0.4820 o         1 HM6     -0.828800
      2 C1          1.0150    0.1080   -0.0470 c         1 HM6      0.824600
      3 O1          0.5200   -0.9930    0.3160 o         1 HM6     -0.828800
      4 C2          1.9410    0.0940   -1.2810 ca        1 HM6      0.396300
      5 N1          3.2780   -0.0290   -1.1450 nb        1 HM6     -0.629000
      6 C3          1.2920    0.2000   -2.5370 ca        1 HM6     -0.267800
      7 C4          2.0810    0.1690   -3.6950 ca        1 HM6     -0.020200
      8 C5          3.4780    0.0580   -3.5670 ca        1 HM6     -0.267800
      9 C6          4.0290   -0.0430   -2.2700 ca        1 HM6      0.396300
     10 C7          5.5630   -0.1910   -2.2160 c         1 HM6      0.824600
     11 O4          6.2500    0.8310   -1.9540 o         1 HM6     -0.828800
     12 O3          6.0380   -1.3210   -2.5140 o         1 HM6     -0.828800
     13 N2          1.4960    0.2110   -5.0040 na        1 HM6      0.177300
     14 C8          2.0450   -0.4200   -6.1230 cc        1 HM6     -0.195600
     15 C9          1.1340   -0.1370   -7.1640 cd        1 HM6      0.154600
     16 C10         1.1750   -0.5830   -8.5700 c3        1 HM6      0.137100
     17 O5          1.0610    0.4670   -9.5160 oh        1 HM6     -0.620800
     18 N4          0.1060    0.6450   -6.5910 nd        1 HM6     -0.401000
     19 N3          0.3440    0.8280   -5.3520 nc        1 HM6     -0.162800
     20 H3          0.2000    0.2960   -2.5670 ha        1 HM6      0.139000
     21 H5          4.1520    0.0430   -4.4310 ha        1 HM6      0.139000
     22 H8          2.9760   -0.9850   -6.0880 h4        1 HM6      0.201000
     23 H101        0.3480   -1.3250   -8.7610 h1        1 HM6      0.037200
     24 H102        2.1660   -1.0640   -8.7960 h1        1 HM6      0.037200
     25 HC          0.4030    1.0910   -9.1890 ho        1 HM6      0.414000
@<TRIPOS>BOND
     1    1    2 1   
     2    2    3 1   
     3    2    4 1   
     4    4    5 ar  
     5    4    6 ar  
     6    5    9 ar  
     7    6    7 ar  
     8    6   20 1   
     9    7    8 ar  
    10    7   13 1   
    11    8    9 ar  
    12    8   21 1   
    13    9   10 1   
    14   10   11 1   
    15   10   12 1   
    16   13   14 1   
    17   13   19 1   
    18   14   15 2   
    19   14   22 1   
    20   15   16 1   
    21   15   18 1   
    22   16   17 1   
    23   16   23 1   
    24   16   24 1   
    25   17   25 1   
    26   18   19 2   
@<TRIPOS>SUBSTRUCTURE
     1 HM6         1 TEMP              0 ****  ****    0 ROOT
