@<TRIPOS>MOLECULE
HM7
   25    25     1     0     0
SMALL
bcc


@<TRIPOS>ATOM
      1 CBS        -0.1410    0.0170   -0.0910 c3        1 HM7     -0.005300
      2 CBR         1.3520   -0.0330    0.0970 c3        1 HM7     -0.091700
      3 CAA         1.7940   -0.0170    1.5270 cc        1 HM7      0.311000
      4 NAB         0.9820    0.0360    2.5460 nd        1 HM7     -0.494300
      5 CAI         3.2690   -0.0670    1.7560 cc        1 HM7      0.591300
      6 OAJ         4.0150   -0.1200    0.6140 oh        1 HM7     -0.568600
      7 NAH         3.8360   -0.0610    2.9410 nd        1 HM7     -0.716100
      8 CAF         2.9820   -0.0030    4.0690 c         1 HM7      0.718700
      9 OAG         3.4760    0.0040    5.2140 o         1 HM7     -0.581100
     10 CA          1.5100    0.0460    3.8430 cd        1 HM7     -0.186600
     11 C           0.6110    0.1040    4.9000 c2        1 HM7      0.342700
     12 SAE        -1.0600    0.1600    4.6630 sh        1 HM7     -0.112400
     13 CBU        -2.1920    0.0480   -1.9030 c3        1 HM7     -0.039000
     14 SBT        -0.4420   -0.0120   -1.8380 ss        1 HM7     -0.301200
     15 OXT         0.9490    0.1210    6.2090 oh        1 HM7     -0.508100
     16 HBS1       -0.5690    0.9450    0.3580 h1        1 HM7      0.070700
     17 HBS2       -0.6350   -0.8570    0.3990 h1        1 HM7      0.070700
     18 HBR1        1.8370    0.8440   -0.4160 hc        1 HM7      0.081700
     19 HBR2        1.7710   -0.9660   -0.3750 hc        1 HM7      0.081700
     20 HAJ         4.9650   -0.1500    0.8330 ho        1 HM7      0.454000
     21 HAE        -1.4450    0.2040    5.9340 hs        1 HM7      0.199800
     22 HBU1       -2.6570   -0.8280   -1.3990 h1        1 HM7      0.063367
     23 HBU2       -2.5930    0.9770   -1.4400 h1        1 HM7      0.063367
     24 HBU3       -2.4640    0.0340   -2.9840 h1        1 HM7      0.063367
     25 HXT         1.9170    0.0880    6.3530 ho        1 HM7      0.490000
@<TRIPOS>BOND
     1    1    2 1   
     2    1   14 1   
     3    1   16 1   
     4    1   17 1   
     5    2    3 1   
     6    2   18 1   
     7    2   19 1   
     8    3    4 2   
     9    3    5 1   
    10    4   10 1   
    11    5    6 1   
    12    5    7 2   
    13    6   20 1   
    14    7    8 1   
    15    8    9 2   
    16    8   10 1   
    17   10   11 2   
    18   11   12 1   
    19   11   15 1   
    20   12   21 1   
    21   13   14 1   
    22   13   22 1   
    23   13   23 1   
    24   13   24 1   
    25   15   25 1   
@<TRIPOS>SUBSTRUCTURE
     1 HM7         1 TEMP              0 ****  ****    0 ROOT
