@<TRIPOS>MOLECULE
HM7
   25    25     1     0     0
SMALL
bcc


@<TRIPOS>ATOM
      1 CBS        -0.1450    0.0130   -0.0880 c3        1 HM7     -0.005300
      2 CBR         1.3470   -0.0540    0.0960 c3        1 HM7     -0.091700
      3 CAA         1.7930   -0.0300    1.5240 cc        1 HM7      0.311000
      4 NAB         0.9840    0.0420    2.5450 nd        1 HM7     -0.494300
      5 CAI         3.2680   -0.0960    1.7500 cc        1 HM7      0.591300
      6 OAJ         4.0100   -0.1680    0.6070 oh        1 HM7     -0.568600
      7 NAH         3.8380   -0.0860    2.9330 nd        1 HM7     -0.716100
      8 CAF         2.9880   -0.0080    4.0630 c         1 HM7      0.718700
      9 OAG         3.4850    0.0040    5.2060 o         1 HM7     -0.581100
     10 CA          1.5170    0.0570    3.8410 cd        1 HM7     -0.186600
     11 C           0.6210    0.1340    4.8990 c2        1 HM7      0.342700
     12 SAE        -1.0500    0.2080    4.6670 sh        1 HM7     -0.112400
     13 CBU        -2.2020    0.0560   -1.8950 c3        1 HM7     -0.039000
     14 SBT        -0.4530   -0.0280   -1.8340 ss        1 HM7     -0.301200
     15 OXT         0.9640    0.1590    6.2080 oh        1 HM7     -0.508100
     16 HBS1       -0.5610    0.9510    0.3540 h1        1 HM7      0.070700
     17 HBS2       -0.6490   -0.8500    0.4110 h1        1 HM7      0.070700
     18 HBR1        1.8410    0.8120   -0.4260 hc        1 HM7      0.081700
     19 HBR2        1.7530   -0.9960   -0.3690 hc        1 HM7      0.081700
     20 HAJ         4.9600   -0.2080    0.8240 ho        1 HM7      0.454000
     21 HAE        -1.4300    0.2680    5.9390 hs        1 HM7      0.199800
     22 HBU1       -2.6760   -0.8100   -1.3820 h1        1 HM7      0.063367
     23 HBU2       -2.5890    0.9940   -1.4390 h1        1 HM7      0.063367
     24 HBU3       -2.4770    0.0350   -2.9750 h1        1 HM7      0.063367
     25 HXT         1.9310    0.1160    6.3490 ho        1 HM7      0.490000
@<TRIPOS>BOND
     1    1    2 1   
     2    1   14 1   
     3    1   16 1   
     4    1   17 1   
     5    2    3 1   
     6    2   18 1   
     7    2   19 1   
     8    3    4 2   
     9    3    5 1   
    10    4   10 1   
    11    5    6 1   
    12    5    7 2   
    13    6   20 1   
    14    7    8 1   
    15    8    9 2   
    16    8   10 1   
    17   10   11 2   
    18   11   12 1   
    19   11   15 1   
    20   12   21 1   
    21   13   14 1   
    22   13   22 1   
    23   13   23 1   
    24   13   24 1   
    25   15   25 1   
@<TRIPOS>SUBSTRUCTURE
     1 HM7         1 TEMP              0 ****  ****    0 ROOT
