@<TRIPOS>MOLECULE
HM7
   25    22     1     0     0
SMALL
bcc


@<TRIPOS>ATOM
      1 CBS        -1.2250   -0.3920   -1.6220 c3        1 HM7     -0.275000
      2 CBR         0.2860   -0.3310   -1.6080 c3        1 HM7     -0.095000
      3 CAA         0.7790   -0.3440   -0.1770 c2        1 HM7     -0.051000
      4 NAB         0.7690    0.8510    0.5870 n1        1 HM7     -0.085000
      5 CAI         1.3000   -1.6270    0.4320 c2        1 HM7      0.164000
      6 OAJ         1.3050   -2.8140   -0.3250 oh        1 HM7     -0.238000
      7 NAH         1.7960   -1.6310    1.7610 n1        1 HM7     -0.283000
      8 CAF         1.7980   -0.4330    2.5210 c1        1 HM7      0.303000
      9 OAG         2.2060   -0.4410    3.6650 o         1 HM7     -0.300000
     10 CA          1.2730    0.8490    1.9130 c1        1 HM7     -0.306000
     11 C           1.2720    1.9860    2.6360 c1        1 HM7      0.011000
     12 SAE         1.9010    1.9840    4.2940 s         1 HM7      0.414000
     13 CBU        -3.5410   -0.5250   -3.3540 c3        1 HM7     -0.341000
     14 SBT        -1.7870   -0.7650   -3.2610 ss        1 HM7      0.074000
     15 OXT         0.7710    3.1760    2.0760 oh        1 HM7     -0.252000
     16 HBS1       -1.5890    0.4710   -1.3410 h1        1 HM7      0.107000
     17 HBS2       -1.5290   -1.0890   -1.0060 h1        1 HM7      0.107000
     18 HBR1        0.6480   -1.1050   -2.0840 hc        1 HM7      0.120000
     19 HBR2        0.5840    0.4900   -2.0480 hc        1 HM7      0.120000
     20 HAJ         1.9440   -3.3540   -0.0230 ho        1 HM7      0.251000
     21 HAE         1.2360    2.6840    4.9680 hs        1 HM7     -0.020000
     22 HBU1       -3.7490    0.4230   -3.2180 h1        1 HM7      0.103333
     23 HBU2       -3.8630   -0.8070   -4.2360 h1        1 HM7      0.103333
     24 HBU3       -3.9810   -1.0590   -2.6590 h1        1 HM7      0.103333
     25 HXT         1.3960    3.8070    2.1110 ho        1 HM7      0.264000
@<TRIPOS>BOND
     1    1    2 1   
     2    1   14 1   
     3    1   16 1   
     4    1   17 1   
     5    2    3 1   
     6    2   18 1   
     7    2   19 1   
     8    3    4 1   
     9    3    5 1   
    10    5    6 1   
    11    5    7 1   
    12    6   20 1   
    13    8    9 1   
    14    8   10 1   
    15   10   11 1   
    16   11   15 1   
    17   12   21 1   
    18   13   14 1   
    19   13   22 1   
    20   13   23 1   
    21   13   24 1   
    22   15   25 1   
@<TRIPOS>SUBSTRUCTURE
     1 HM7         1 TEMP              0 ****  ****    0 ROOT
