@<TRIPOS>MOLECULE
HM7
   25    25     1     0     0
SMALL
bcc


@<TRIPOS>ATOM
      1 CBS        -0.1410    0.0200   -0.0940 c3        1 HM7     -0.005300
      2 CBR         1.3510   -0.0570    0.0930 c3        1 HM7     -0.091700
      3 CAA         1.7950   -0.0360    1.5220 cc        1 HM7      0.311000
      4 NAB         0.9850    0.0430    2.5420 nd        1 HM7     -0.494300
      5 CAI         3.2690   -0.1130    1.7490 cc        1 HM7      0.591300
      6 OAJ         4.0130   -0.1920    0.6070 oh        1 HM7     -0.568600
      7 NAH         3.8370   -0.1070    2.9340 nd        1 HM7     -0.716100
      8 CAF         2.9860   -0.0220    4.0620 c         1 HM7      0.718700
      9 OAG         3.4820   -0.0140    5.2060 o         1 HM7     -0.581100
     10 CA          1.5160    0.0550    3.8380 cd        1 HM7     -0.186600
     11 C           0.6190    0.1410    4.8950 c2        1 HM7      0.342700
     12 SAE        -1.0510    0.2290    4.6600 sh        1 HM7     -0.112400
     13 CBU        -2.1940    0.0710   -1.9030 c3        1 HM7     -0.039000
     14 SBT        -0.4460   -0.0200   -1.8400 ss        1 HM7     -0.301200
     15 OXT         0.9600    0.1640    6.2040 oh        1 HM7     -0.508100
     16 HBS1       -0.5510    0.9610    0.3470 h1        1 HM7      0.070700
     17 HBS2       -0.6510   -0.8390    0.4060 h1        1 HM7      0.070700
     18 HBR1        1.8510    0.8060   -0.4290 hc        1 HM7      0.081700
     19 HBR2        1.7510   -1.0020   -0.3710 hc        1 HM7      0.081700
     20 HAJ         4.9610   -0.2390    0.8260 ho        1 HM7      0.454000
     21 HAE        -1.4330    0.2920    5.9310 hs        1 HM7      0.199800
     22 HBU1       -2.5780    1.0110   -1.4490 h1        1 HM7      0.063367
     23 HBU2       -2.6740   -0.7920   -1.3900 h1        1 HM7      0.063367
     24 HBU3       -2.4680    0.0500   -2.9840 h1        1 HM7      0.063367
     25 HXT         1.9270    0.1130    6.3470 ho        1 HM7      0.490000
@<TRIPOS>BOND
     1    1    2 1   
     2    1   14 1   
     3    1   16 1   
     4    1   17 1   
     5    2    3 1   
     6    2   18 1   
     7    2   19 1   
     8    3    4 2   
     9    3    5 1   
    10    4   10 1   
    11    5    6 1   
    12    5    7 2   
    13    6   20 1   
    14    7    8 1   
    15    8    9 2   
    16    8   10 1   
    17   10   11 2   
    18   11   12 1   
    19   11   15 1   
    20   12   21 1   
    21   13   14 1   
    22   13   22 1   
    23   13   23 1   
    24   13   24 1   
    25   15   25 1   
@<TRIPOS>SUBSTRUCTURE
     1 HM7         1 TEMP              0 ****  ****    0 ROOT
