@<TRIPOS>MOLECULE
HM7
   25    25     1     0     0
SMALL
bcc


@<TRIPOS>ATOM
      1 CBS         2.5110    0.3120   -0.0000 c3        1 HM7     -0.006300
      2 CBR         1.7820   -1.0050   -0.0010 c3        1 HM7     -0.095700
      3 CAA         0.2900   -0.8850   -0.0010 cc        1 HM7      0.333000
      4 NAB        -0.3550    0.2480   -0.0000 nd        1 HM7     -0.514300
      5 CAI        -0.4690   -2.1760   -0.0020 cc        1 HM7      0.577300
      6 OAJ         0.3260   -3.2880   -0.0030 oh        1 HM7     -0.574600
      7 NAH        -1.7740   -2.2690   -0.0020 nd        1 HM7     -0.714100
      8 CAF        -2.5220   -1.0580   -0.0010 c         1 HM7      0.703700
      9 OAG        -3.7590   -1.0940   -0.0010 o         1 HM7     -0.498100
     10 CA         -1.7570    0.2300    0.0000 cd        1 HM7     -0.107600
     11 C          -2.4340    1.4380    0.0010 c2        1 HM7      0.272700
     12 SAE        -1.5870    2.9100    0.0020 sh        1 HM7     -0.150400
     13 CBU         4.9540    1.5450    0.0000 c3        1 HM7     -0.039000
     14 SBT         4.2450   -0.0560   -0.0010 ss        1 HM7     -0.300200
     15 OXT        -3.7990    1.3500    0.0010 oh        1 HM7     -0.424100
     16 HBS1        2.2450    0.9170   -0.9010 h1        1 HM7      0.070700
     17 HBS2        2.2450    0.9150    0.9020 h1        1 HM7      0.070700
     18 HBR1        2.0710   -1.6080   -0.9070 hc        1 HM7      0.083700
     19 HBR2        2.0710   -1.6090    0.9040 hc        1 HM7      0.083700
     20 HAJ        -0.2240   -4.0920   -0.0030 ho        1 HM7      0.452000
     21 HAE        -2.6170    3.7390    0.0030 hs        1 HM7      0.165800
     22 HBU1        4.6660    2.1280   -0.9030 h1        1 HM7      0.063367
     23 HBU2        4.6660    2.1270    0.9040 h1        1 HM7      0.063367
     24 HBU3        6.0590    1.3970   -0.0000 h1        1 HM7      0.063367
     25 HXT        -4.1690    2.2470    0.0020 ho        1 HM7      0.417000
@<TRIPOS>BOND
     1    1    2 1   
     2    1   14 1   
     3    1   16 1   
     4    1   17 1   
     5    2    3 1   
     6    2   18 1   
     7    2   19 1   
     8    3    4 2   
     9    3    5 1   
    10    4   10 1   
    11    5    6 1   
    12    5    7 2   
    13    6   20 1   
    14    7    8 1   
    15    8    9 2   
    16    8   10 1   
    17   10   11 2   
    18   11   12 1   
    19   11   15 1   
    20   12   21 1   
    21   13   14 1   
    22   13   22 1   
    23   13   23 1   
    24   13   24 1   
    25   15   25 1   
@<TRIPOS>SUBSTRUCTURE
     1 HM7         1 TEMP              0 ****  ****    0 ROOT
