@<TRIPOS>MOLECULE
HM8
   27    24     1     0     0
SMALL
bcc


@<TRIPOS>ATOM
      1 N          -1.7390    1.4770   -0.2810 n3        1 HM8     -0.335000
      2 CAA        -0.3200    1.4010   -0.2030 c3        1 HM8      0.042000
      3 CAV         0.1030    1.3470    1.2470 c3        1 HM8      0.121000
      4 CAW         0.5440    2.7230    1.6950 c3        1 HM8     -0.227000
      5 OBW        -0.9820    0.9230    2.0360 os        1 HM8     -0.753000
      6 SBV        -0.6390    0.0380    3.2070 s4        1 HM8      2.122800
      7 OBZ         0.0670    0.8150    4.2920 o         1 HM8     -0.669900
      8 OBY        -1.8830   -0.4150    3.9340 o         1 HM8     -0.669900
      9 OBX         0.1870   -1.1400    2.7490 os        1 HM8     -1.118000
     10 CAZ         0.1580    0.1560   -0.9140 c2        1 HM8     -0.052000
     11 NBA        -0.4660   -1.0500   -0.9170 n2        1 HM8     -0.096000
     12 OBB         1.2700    0.0570   -1.6940 os        1 HM8     -0.108000
     13 CBC         1.3300   -1.1960   -2.1730 c1        1 HM8      0.253000
     14 OBD         2.3070   -1.6990   -3.0530 o         1 HM8     -0.190000
     15 CAB         0.2490   -1.8870   -1.6890 c1        1 HM8     -0.261000
     16 C          -0.1070   -3.3210   -2.0120 c1        1 HM8      0.155000
     17 SBG         0.6030   -4.5720   -1.1560 s         1 HM8     -0.272000
     18 OXT        -1.0200   -3.6040   -3.0440 oh        1 HM8     -0.241000
     19 HN1        -2.0040    2.3460   -0.1710 hn        1 HM8      0.159500
     20 HN2        -2.0160    1.1740   -1.1000 hn        1 HM8      0.159500
     21 HAA         0.0720    2.1890   -0.6280 h1        1 HM8      0.108000
     22 HAV         0.8450    0.7190    1.3470 h1        1 HM8      0.078000
     23 HAW1       -0.0880    3.3940    1.3600 hc        1 HM8      0.077333
     24 HAW2        1.4380    2.9110    1.3400 hc        1 HM8      0.077333
     25 HAW3        0.5680    2.7560    2.6740 hc        1 HM8      0.077333
     26 HBD         2.5400   -1.0650   -3.6300 ho        1 HM8      0.330000
     27 HXT        -1.0150   -4.4770   -3.2140 ho        1 HM8      0.230000
@<TRIPOS>BOND
     1    1    2 1   
     2    1   19 1   
     3    1   20 1   
     4    2    3 1   
     5    2   10 1   
     6    2   21 1   
     7    3    4 1   
     8    3    5 1   
     9    3   22 1   
    10    4   23 1   
    11    4   24 1   
    12    4   25 1   
    13    5    6 1   
    14    6    7 1   
    15    6    8 1   
    16   10   11 1   
    17   10   12 1   
    18   11   15 1   
    19   12   13 1   
    20   13   15 1   
    21   14   26 1   
    22   16   17 1   
    23   16   18 1   
    24   18   27 1   
@<TRIPOS>SUBSTRUCTURE
     1 HM8         1 TEMP              0 ****  ****    0 ROOT
