@<TRIPOS>MOLECULE
HM8
   27    27     1     0     0
SMALL
bcc


@<TRIPOS>ATOM
      1 N          -1.0410    2.9780   -0.9440 n3        1 HM8     -0.902800
      2 CAA        -0.9260    2.1070    0.2020 c3        1 HM8      0.145200
      3 CAV        -2.1500    1.1450    0.3600 c3        1 HM8      0.232100
      4 CAW        -3.4160    1.9450    0.6200 c3        1 HM8     -0.109100
      5 OBW        -2.2810    0.3830   -0.7950 os        1 HM8     -0.615500
      6 SBV        -2.6140   -1.3210   -0.7620 s6        1 HM8      1.728300
      7 OBZ        -1.3320   -1.8870   -0.7240 o         1 HM8     -0.757533
      8 OBY        -3.3300   -1.4390    0.4240 o         1 HM8     -0.757533
      9 OBX        -3.3030   -1.4850   -1.9510 o         1 HM8     -0.757533
     10 CAZ         0.3380    1.2780    0.2030 cc        1 HM8      0.434700
     11 NBA         1.6160    1.5880    0.3430 nd        1 HM8     -0.622000
     12 OBB         0.1460   -0.1110   -0.0370 os        1 HM8     -0.366800
     13 CBC         1.4100   -0.6540   -0.0450 cc        1 HM8      0.552700
     14 OBD         1.4560   -1.9540   -0.2690 oh        1 HM8     -0.561300
     15 CAB         2.3540    0.3790    0.1960 cd        1 HM8      0.091500
     16 C           3.7760    0.2580    0.2800 c         1 HM8      0.439000
     17 SBG         4.6320   -1.0780    0.1700 s         1 HM8     -0.555400
     18 OXT         4.4010    1.4640    0.4790 oh        1 HM8     -0.532100
     19 HN1        -0.1440    3.3130   -1.2340 hn        1 HM8      0.364300
     20 HN2        -1.4810    2.4900   -1.7040 hn        1 HM8      0.364300
     21 HAA        -0.8780    2.7640    1.1230 h1        1 HM8      0.068700
     22 HAV        -1.9390    0.4770    1.2460 h1        1 HM8      0.038700
     23 HAW1       -4.2470    1.2370    0.8580 hc        1 HM8      0.038033
     24 HAW2       -3.2640    2.6390    1.4800 hc        1 HM8      0.038033
     25 HAW3       -3.7000    2.5350   -0.2830 hc        1 HM8      0.038033
     26 HBD         0.5330   -2.2860   -0.4480 ho        1 HM8      0.531000
     27 HXT         5.3580    1.2890    0.5260 ho        1 HM8      0.431000
@<TRIPOS>BOND
     1    1    2 1   
     2    1   19 1   
     3    1   20 1   
     4    2    3 1   
     5    2   10 1   
     6    2   21 1   
     7    3    4 1   
     8    3    5 1   
     9    3   22 1   
    10    4   23 1   
    11    4   24 1   
    12    4   25 1   
    13    5    6 1   
    14    6    7 1   
    15    6    8 1   
    16    6    9 1   
    17   10   11 2   
    18   10   12 1   
    19   11   15 1   
    20   12   13 1   
    21   13   14 1   
    22   13   15 2   
    23   14   26 1   
    24   15   16 1   
    25   16   17 2   
    26   16   18 1   
    27   18   27 1   
@<TRIPOS>SUBSTRUCTURE
     1 HM8         1 TEMP              0 ****  ****    0 ROOT
