@<TRIPOS>MOLECULE
HM9
   31    31     1     0     0
SMALL
bcc


@<TRIPOS>ATOM
      1 C          -3.1120   -1.0620   -0.7330 c         1 HM9      0.501200
      2 SAE        -2.1090   -2.3740   -1.1890 sh        1 HM9     -0.192400
      3 CAC        -2.3990    0.1000   -0.1590 ca        1 HM9      0.096500
      4 NAB        -1.0410    0.0190   -0.0420 nb        1 HM9     -0.554000
      5 CAF        -3.0980    1.2770    0.2650 ca        1 HM9      0.638300
      6 OAG        -4.4410    1.4750    0.2010 oh        1 HM9     -0.584300
      7 NAH        -2.4420    2.3570    0.7980 nb        1 HM9     -0.747000
      8 CAI        -1.1030    2.2350    0.8940 ca        1 HM9      0.582300
      9 OAJ        -0.3580    3.2540    1.4110 oh        1 HM9     -0.595300
     10 CAA        -0.3730    1.0510    0.4710 ca        1 HM9      0.263300
     11 CBW         1.1130    1.0660    0.6400 c3        1 HM9     -0.109700
     12 CBX         1.8060   -0.2080    0.2110 c3        1 HM9     -0.086400
     13 CBY         3.3130   -0.0630    0.4350 c3        1 HM9      0.169800
     14 NBZ         4.0540   -1.2700    0.1140 nh        1 HM9     -0.791200
     15 CCA         5.4380   -1.0640   -0.2470 c2        1 HM9      0.741100
     16 NCC         5.8890   -1.5950   -1.3580 n2        1 HM9     -0.873100
     17 NCB         6.2070   -0.2700    0.6610 nh        1 HM9     -0.929800
     18 OXT        -4.3490   -1.0620   -0.8660 o         1 HM9     -0.587100
     19 HAE        -3.0460   -3.1960   -1.6430 hs        1 HM9      0.203800
     20 HAG        -4.8740    0.6900   -0.1830 ho        1 HM9      0.475000
     21 HAJ        -0.9360    3.9980    1.6620 ho        1 HM9      0.455000
     22 HBW1        1.5120    1.9380    0.0520 hc        1 HM9      0.065200
     23 HBW2        1.3290    1.2730    1.7250 hc        1 HM9      0.065200
     24 HBX1        1.4110   -1.0770    0.8000 hc        1 HM9      0.064700
     25 HBX2        1.5970   -0.4120   -0.8720 hc        1 HM9      0.064700
     26 HBY1        3.6770    0.8270   -0.1570 h1        1 HM9      0.041700
     27 HBY2        3.4970    0.1610    1.5250 h1        1 HM9      0.041700
     28 HBZ         3.5780   -1.8280   -0.5740 hn        1 HM9      0.406800
     29 HCC         6.8710   -1.5170   -1.5090 hn        1 HM9      0.391400
     30 HCB1        5.8020   -0.1460    1.5630 hn        1 HM9      0.391300
     31 HCB2        7.1640   -0.5410    0.7140 hn        1 HM9      0.391300
@<TRIPOS>BOND
     1    1    2 1   
     2    1    3 1   
     3    1   18 2   
     4    2   19 1   
     5    3    4 ar  
     6    3    5 ar  
     7    4   10 ar  
     8    5    6 1   
     9    5    7 ar  
    10    6   20 1   
    11    7    8 ar  
    12    8    9 1   
    13    8   10 ar  
    14    9   21 1   
    15   10   11 1   
    16   11   12 1   
    17   11   22 1   
    18   11   23 1   
    19   12   13 1   
    20   12   24 1   
    21   12   25 1   
    22   13   14 1   
    23   13   26 1   
    24   13   27 1   
    25   14   15 1   
    26   14   28 1   
    27   15   16 2   
    28   15   17 1   
    29   16   29 1   
    30   17   30 1   
    31   17   31 1   
@<TRIPOS>SUBSTRUCTURE
     1 HM9         1 TEMP              0 ****  ****    0 ROOT
