@<TRIPOS>MOLECULE
HMA
   17    16     1     0     0
SMALL
bcc


@<TRIPOS>ATOM
      1 N          -0.0050    0.1660    0.2190 nz        1 HMA     -0.846600
      2 CA          1.4540   -0.1850    0.1320 c3        1 HMA      0.087500
      3 CB          1.8780   -1.1170    1.2640 c3        1 HMA     -0.156100
      4 C           1.7600   -0.8360   -1.2180 c         1 HMA      0.533100
      5 O           0.9650   -1.2390   -2.0460 o         1 HMA     -0.341100
      6 N2          3.2360   -1.0120   -1.5850 ny        1 HMA     -0.439300
      7 OH          3.9450   -0.0560   -0.9410 oh        1 HMA     -0.376300
      8 HN1        -0.2710    0.8360   -0.5160 hn        1 HMA      0.494133
      9 HN2A       -0.5930   -0.6760    0.1260 hn        1 HMA      0.494133
     10 HA          2.0420    0.7920    0.2050 hx        1 HMA      0.180700
     11 HB1         2.9910   -1.2440    1.2350 hc        1 HMA      0.115367
     12 HB2         1.3890   -2.1200    1.1930 hc        1 HMA      0.115367
     13 HB3         1.6290   -0.6690    2.2630 hc        1 HMA      0.115367
     14 HN2         3.5490   -1.9620   -1.2840 hn        1 HMA      0.505300
     15 HO          4.8740   -0.0390   -1.2890 ho        1 HMA      0.520000
     16 HN3        -0.1870    0.5920    1.1430 hn        1 HMA      0.494133
     17 H22         3.3340   -0.9370   -2.6240 hn        1 HMA      0.505300
@<TRIPOS>BOND
     1    1    2 1   
     2    1    8 1   
     3    1    9 1   
     4    1   16 1   
     5    2    3 1   
     6    2    4 1   
     7    2   10 1   
     8    3   11 1   
     9    3   12 1   
    10    3   13 1   
    11    4    5 2   
    12    4    6 1   
    13    6    7 1   
    14    6   14 1   
    15    6   17 1   
    16    7   15 1   
@<TRIPOS>SUBSTRUCTURE
     1 HMA         1 TEMP              0 ****  ****    0 ROOT
