@<TRIPOS>MOLECULE
HMA
   17    16     1     0     0
SMALL
bcc


@<TRIPOS>ATOM
      1 N           0.0260    0.2690    0.1630 n4        1 HMA     -0.846600
      2 CA          1.4720   -0.1370    0.0950 c3        1 HMA      0.087500
      3 CB          1.8850   -0.9590    1.3130 c3        1 HMA     -0.156100
      4 C           1.7360   -0.9340   -1.1830 c         1 HMA      0.533100
      5 O           0.9160   -1.3960   -1.9540 o         1 HMA     -0.341100
      6 N2          3.2000   -1.1960   -1.5480 n4        1 HMA     -0.439300
      7 OH          3.9480   -0.2020   -1.0180 oh        1 HMA     -0.376300
      8 HN1        -0.2300    0.8680   -0.6350 hn        1 HMA      0.494133
      9 HN2A       -0.5900   -0.5590    0.1660 hn        1 HMA      0.494133
     10 HA          2.0910    0.8230    0.0580 hx        1 HMA      0.180700
     11 HB1         1.6660   -0.4010    2.2630 hc        1 HMA      0.115367
     12 HB2         2.9930   -1.1240    1.2840 hc        1 HMA      0.115367
     13 HB3         1.3630   -1.9470    1.3540 hc        1 HMA      0.115367
     14 HN2         3.4880   -2.1190   -1.1530 hn        1 HMA      0.505300
     15 HO          4.8720   -0.2510   -1.3780 ho        1 HMA      0.520000
     16 HN3        -0.1280    0.7940    1.0400 hn        1 HMA      0.494133
     17 H22         3.2830   -1.2340   -2.5900 hn        1 HMA      0.505300
@<TRIPOS>BOND
     1    1    2 1   
     2    1    8 1   
     3    1    9 1   
     4    1   16 1   
     5    2    3 1   
     6    2    4 1   
     7    2   10 1   
     8    3   11 1   
     9    3   12 1   
    10    3   13 1   
    11    4    5 2   
    12    4    6 1   
    13    6    7 1   
    14    6   14 1   
    15    6   17 1   
    16    7   15 1   
@<TRIPOS>SUBSTRUCTURE
     1 HMA         1 TEMP              0 ****  ****    0 ROOT
