@<TRIPOS>MOLECULE
HMA
   15    14     1     0     0
SMALL
bcc


@<TRIPOS>ATOM
      1 N          -0.5350    0.9170    1.5940 n3        1 HMA     -0.913800
      2 CA          0.6430    0.2370    1.0900 c3        1 HMA      0.091500
      3 CB          1.0870   -0.9880    1.8850 c3        1 HMA     -0.125100
      4 C           0.4330   -0.1750   -0.3790 c         1 HMA      0.595100
      5 O           0.6380   -1.3320   -0.7770 o         1 HMA     -0.565100
      6 N2          0.1640    0.8760   -1.3020 n         1 HMA     -0.350400
      7 OH         -0.3640    0.4810   -2.4640 oh        1 HMA     -0.438100
      8 HN1        -0.3330    1.3460    2.4750 hn        1 HMA      0.359300
      9 HN2A       -1.2940    0.2750    1.7100 hn        1 HMA      0.359300
     10 HA          1.4930    0.9870    1.0970 h1        1 HMA      0.082700
     11 HB1         1.3120   -0.7040    2.9410 hc        1 HMA      0.051700
     12 HB2         0.2950   -1.7750    1.8780 hc        1 HMA      0.051700
     13 HB3         2.0050   -1.4210    1.4210 hc        1 HMA      0.051700
     14 HN2        -0.4360    1.6010   -0.9210 hn        1 HMA      0.317500
     15 HO          0.3580    0.0320   -2.9460 ho        1 HMA      0.432000
@<TRIPOS>BOND
     1    1    2 1   
     2    1    8 1   
     3    1    9 1   
     4    2    3 1   
     5    2    4 1   
     6    2   10 1   
     7    3   11 1   
     8    3   12 1   
     9    3   13 1   
    10    4    5 2   
    11    4    6 1   
    12    6    7 1   
    13    6   14 1   
    14    7   15 1   
@<TRIPOS>SUBSTRUCTURE
     1 HMA         1 TEMP              0 ****  ****    0 ROOT
