@<TRIPOS>MOLECULE
HMA
   15    14     1     0     0
SMALL
bcc


@<TRIPOS>ATOM
      1 N          -1.7890    0.5970    0.4070 n3        1 HMA     -0.915800
      2 CA         -0.3650    0.5240    0.3560 c3        1 HMA      0.116500
      3 CB          0.1690    0.4360    1.7250 c3        1 HMA     -0.095100
      4 C           0.0610   -0.7300   -0.4450 c         1 HMA      0.596100
      5 O          -0.3660   -1.8090   -0.1420 o         1 HMA     -0.551100
      6 N2          1.0080   -0.6110   -1.5080 n         1 HMA     -0.349400
      7 OH          1.4150   -1.7290   -2.1930 oh        1 HMA     -0.441100
      8 HN1        -2.1180    0.7160   -0.4340 hn        1 HMA      0.364800
      9 HN2A       -2.0390    1.3010    0.9360 hn        1 HMA      0.364800
     10 HA         -0.0100    1.3300   -0.0840 h1        1 HMA      0.020700
     11 HB1         0.0060    1.2640    2.1870 hc        1 HMA      0.053700
     12 HB2        -0.2720   -0.2930    2.1990 hc        1 HMA      0.053700
     13 HB3         1.1330    0.2660    1.6900 hc        1 HMA      0.053700
     14 HN2         1.3170    0.2200   -1.7570 hn        1 HMA      0.290500
     15 HO          1.8510   -1.4820   -2.9360 ho        1 HMA      0.437000
@<TRIPOS>BOND
     1    1    2 1   
     2    1    8 1   
     3    1    9 1   
     4    2    3 1   
     5    2    4 1   
     6    2   10 1   
     7    3   11 1   
     8    3   12 1   
     9    3   13 1   
    10    4    5 2   
    11    4    6 1   
    12    6    7 1   
    13    6   14 1   
    14    7   15 1   
@<TRIPOS>SUBSTRUCTURE
     1 HMA         1 TEMP              0 ****  ****    0 ROOT
