@<TRIPOS>MOLECULE
HMA
   17    16     1     0     0
SMALL
bcc


@<TRIPOS>ATOM
      1 N           0.0590    0.3390    0.1610 n4        1 HMA     -0.846600
      2 CA          1.4830   -0.1410    0.1130 c3        1 HMA      0.087500
      3 CB          1.8000   -1.0790    1.2750 c3        1 HMA     -0.156100
      4 C           1.7580   -0.8480   -1.2150 c         1 HMA      0.533100
      5 O           0.9470   -1.1980   -2.0510 o         1 HMA     -0.341100
      6 N2          3.2190   -1.1620   -1.5450 n4        1 HMA     -0.439300
      7 OH          3.9960   -0.2590   -0.9050 oh        1 HMA     -0.376300
      8 HN1        -0.5990   -0.4510    0.0740 hn        1 HMA      0.494133
      9 HN2A       -0.1320    1.0120   -0.5950 hn        1 HMA      0.494133
     10 HA          2.1530    0.7830    0.1780 hx        1 HMA      0.180700
     11 HB1         2.8990   -1.3030    1.2740 hc        1 HMA      0.115367
     12 HB2         1.5720   -0.5870    2.2590 hc        1 HMA      0.115367
     13 HB3         1.2260   -2.0370    1.2150 hc        1 HMA      0.115367
     14 HN2         3.3450   -1.1190   -2.5820 hn        1 HMA      0.505300
     15 HO          4.9310   -0.3310   -1.2330 ho        1 HMA      0.520000
     16 HN3        -0.1030    0.8020    1.0710 hn        1 HMA      0.494133
     17 H22         3.4400   -2.1280   -1.2170 hn        1 HMA      0.505300
@<TRIPOS>BOND
     1    1    2 1   
     2    1    8 1   
     3    1    9 1   
     4    1   16 1   
     5    2    3 1   
     6    2    4 1   
     7    2   10 1   
     8    3   11 1   
     9    3   12 1   
    10    3   13 1   
    11    4    5 2   
    12    4    6 1   
    13    6    7 1   
    14    6   14 1   
    15    6   17 1   
    16    7   15 1   
@<TRIPOS>SUBSTRUCTURE
     1 HMA         1 TEMP              0 ****  ****    0 ROOT
