@<TRIPOS>MOLECULE
HMB
   18    16     1     0     0
SMALL
bcc


@<TRIPOS>ATOM
      1 CA          0.7460    1.0130   -1.2300 c3        1 HMB     -0.202400
      2 CB          1.1860   -0.3060   -1.8010 c3        1 HMB     -0.071100
      3 CG          2.8240   -0.6270    2.5940 c2        1 HMB      0.270200
      4 C          -0.3160    0.8170   -0.1400 c         1 HMB      0.911600
      5 OD1         2.7890   -0.3170    1.2700 oh        1 HMB     -0.573600
      6 OD2         4.1190   -0.9860    2.8970 oh        1 HMB     -0.573600
      7 O          -1.5090    1.1380   -0.3840 o         1 HMB     -0.849800
      8 HA1         1.6240    1.5420   -0.7780 hc        1 HMB      0.025200
      9 HA2         0.3220   -0.8400   -2.2640 hc        1 HMB      0.016700
     10 HB1         1.6070   -0.9540   -0.9920 hc        1 HMB      0.016700
     11 HB2         0.3250    1.6630   -2.0380 hc        1 HMB      0.025200
     12 HG          1.9710   -0.1610   -2.5840 hc        1 HMB      0.016700
     13 HE1         4.6430   -0.9170    2.0850 ho        1 HMB      0.469500
     14 HE2         0.8220   -0.3170    3.1870 ha        1 HMB      0.144000
     15 HE3         2.0030   -0.8880    4.5390 ha        1 HMB      0.144000
     16 O4          0.0580    0.3430    0.9830 o         1 HMB     -0.849800
     17 HD1         1.8690   -0.0450    1.0170 ho        1 HMB      0.469500
     18 CE          1.8330   -0.6120    3.4970 c2        1 HMB     -0.391000
@<TRIPOS>BOND
     1    1    2 1   
     2    1    4 1   
     3    1    8 1   
     4    1   11 1   
     5    2    9 1   
     6    2   10 1   
     7    2   12 1   
     8    3    5 1   
     9    3    6 1   
    10    3   18 2   
    11    4    7 1   
    12    4   16 1   
    13    5   17 1   
    14    6   13 1   
    15   14   18 1   
    16   15   18 1   
@<TRIPOS>SUBSTRUCTURE
     1 HMB         1 TEMP              0 ****  ****    0 ROOT
