@<TRIPOS>MOLECULE
HMB
   18    17     1     0     0
SMALL
bcc


@<TRIPOS>ATOM
      1 CA          1.0480   -0.5380   -0.3790 c3        1 HMB     -0.203400
      2 CB         -0.0730    0.4440   -0.1530 c3        1 HMB     -0.086400
      3 CG         -1.4300   -0.2460   -0.2430 c3        1 HMB      0.320900
      4 C           2.3860    0.0180    0.1490 c         1 HMB      0.910600
      5 OD1        -1.6830   -1.1790    0.7800 oh        1 HMB     -0.637800
      6 OD2        -2.4320    0.7560   -0.0680 os        1 HMB     -0.457600
      7 O           2.4030    0.5340    1.3040 o         1 HMB     -0.847800
      8 HA1         0.8370   -1.4900    0.1730 hc        1 HMB      0.027700
      9 HA2         1.1470   -0.7810   -1.4650 hc        1 HMB      0.027700
     10 HB1         0.0450    0.9160    0.8600 hc        1 HMB      0.065200
     11 HB2        -0.0390    1.2640   -0.9140 hc        1 HMB      0.065200
     12 HG         -1.5780   -0.8030   -1.2100 h2        1 HMB      0.053700
     13 HE1        -3.8600    0.0200   -1.3990 h1        1 HMB      0.021367
     14 HE2        -3.9930   -0.5790    0.3230 h1        1 HMB      0.021367
     15 HE3        -4.4040    1.1680   -0.0730 h1        1 HMB      0.021367
     16 O4          3.4010   -0.0900   -0.5960 o         1 HMB     -0.847800
     17 HD1        -1.2500   -0.8630    1.5830 ho        1 HMB      0.418000
     18 CE         -3.7450    0.2990   -0.3220 c3        1 HMB      0.128700
@<TRIPOS>BOND
     1    1    2 1   
     2    1    4 1   
     3    1    8 1   
     4    1    9 1   
     5    2    3 1   
     6    2   10 1   
     7    2   11 1   
     8    3    5 1   
     9    3    6 1   
    10    3   12 1   
    11    4    7 1   
    12    4   16 1   
    13    5   17 1   
    14    6   18 1   
    15   13   18 1   
    16   14   18 1   
    17   15   18 1   
@<TRIPOS>SUBSTRUCTURE
     1 HMB         1 TEMP              0 ****  ****    0 ROOT
