@<TRIPOS>MOLECULE
HMC
   24    24     1     0     0
SMALL
bcc


@<TRIPOS>ATOM
      1 C1          0.1450    0.1140   -0.2000 c3        1 HMC      0.147300
      2 O1         -0.4360   -1.1720   -0.0290 oh        1 HMC     -0.596800
      3 C2          1.6650    0.0240    0.0210 c3        1 HMC      0.078100
      4 O2          2.2210   -1.1470   -0.5420 oh        1 HMC     -0.600800
      5 C3          1.9900    0.0720    1.5210 c3        1 HMC      0.079100
      6 O3          3.3850   -0.0140    1.7570 oh        1 HMC     -0.610800
      7 C4          1.5300    1.4170    2.1110 c3        1 HMC      0.178300
      8 O4          1.6330    1.3940    3.5280 oh        1 HMC     -0.601800
      9 C5          0.1030    1.7050    1.7360 c2        1 HMC     -0.093400
     10 C6         -0.4940    1.1330    0.6840 c2        1 HMC     -0.196200
     11 C7         -0.5680    2.7040    2.6210 c3        1 HMC      0.169600
     12 O7         -1.8700    2.9790    2.1250 oh        1 HMC     -0.605800
     13 H1         -0.0520    0.3550   -1.2860 h1        1 HMC      0.095700
     14 HO1        -0.5620   -1.3150    0.9170 ho        1 HMC      0.408000
     15 H2          2.1850    0.8710   -0.5060 h1        1 HMC      0.091700
     16 HO2         1.5850   -1.8680   -0.4230 ho        1 HMC      0.422000
     17 H3          1.4810   -0.7790    2.0540 h1        1 HMC      0.049700
     18 HO3         3.7370   -0.6680    1.1350 ho        1 HMC      0.430000
     19 H4          2.1920    2.2400    1.7090 h1        1 HMC      0.061700
     20 HO4         2.5360    1.1110    3.7270 ho        1 HMC      0.426000
     21 H6         -1.5340    1.3900    0.4200 ha        1 HMC      0.165000
     22 H71         0.0380    3.6520    2.6410 h1        1 HMC      0.049200
     23 H72        -0.6250    2.2870    3.6650 h1        1 HMC      0.049200
     24 HO7        -2.2950    3.5410    2.7840 ho        1 HMC      0.406000
@<TRIPOS>BOND
     1    1    2 1   
     2    1    3 1   
     3    1   10 1   
     4    1   13 1   
     5    2   14 1   
     6    3    4 1   
     7    3    5 1   
     8    3   15 1   
     9    4   16 1   
    10    5    6 1   
    11    5    7 1   
    12    5   17 1   
    13    6   18 1   
    14    7    8 1   
    15    7    9 1   
    16    7   19 1   
    17    8   20 1   
    18    9   10 2   
    19    9   11 1   
    20   10   21 1   
    21   11   12 1   
    22   11   22 1   
    23   11   23 1   
    24   12   24 1   
@<TRIPOS>SUBSTRUCTURE
     1 HMC         1 TEMP              0 ****  ****    0 ROOT
