@<TRIPOS>MOLECULE
HMC
   24    24     1     0     0
SMALL
bcc


@<TRIPOS>ATOM
      1 C1          0.1450    0.0970   -0.1580 c3        1 HMC      0.150300
      2 O1         -0.3300   -1.2260    0.0810 oh        1 HMC     -0.614800
      3 C2          1.6720    0.0450    0.0150 c3        1 HMC      0.116100
      4 O2          2.2470   -1.0990   -0.5820 oh        1 HMC     -0.598800
      5 C3          2.0370    0.0950    1.5050 c3        1 HMC      0.076100
      6 O3          3.4410    0.0410    1.6990 oh        1 HMC     -0.613800
      7 C4          1.5640    1.4260    2.1140 c3        1 HMC      0.180300
      8 O4          1.7220    1.4120    3.5260 oh        1 HMC     -0.601800
      9 C5          0.1170    1.6730    1.7930 c2        1 HMC     -0.082400
     10 C6         -0.4960    1.0880    0.7570 c2        1 HMC     -0.204200
     11 C7         -0.5550    2.6430    2.7080 c3        1 HMC      0.167600
     12 O7         -1.8840    2.8770    2.2610 oh        1 HMC     -0.607800
     13 H1         -0.0920    0.3610   -1.2300 h1        1 HMC      0.059700
     14 HO1        -1.2730   -1.1650    0.2720 ho        1 HMC      0.420000
     15 H2          2.1450    0.9130   -0.5260 h1        1 HMC      0.088700
     16 HO2         1.7310   -1.8690   -0.3060 ho        1 HMC      0.426000
     17 H3          1.5600   -0.7710    2.0450 h1        1 HMC      0.067700
     18 HO3         3.7890   -0.6030    1.0650 ho        1 HMC      0.428000
     19 H4          2.1860    2.2670    1.6880 h1        1 HMC      0.058700
     20 HO4         2.6290    1.1200    3.6930 ho        1 HMC      0.426000
     21 H6         -1.5510    1.3210    0.5300 ha        1 HMC      0.154000
     22 H71        -0.5610    2.2170    3.7500 h1        1 HMC      0.050200
     23 H72         0.0180    3.6120    2.7130 h1        1 HMC      0.050200
     24 HO7        -2.3030    3.4180    2.9400 ho        1 HMC      0.406000
@<TRIPOS>BOND
     1    1    2 1   
     2    1    3 1   
     3    1   10 1   
     4    1   13 1   
     5    2   14 1   
     6    3    4 1   
     7    3    5 1   
     8    3   15 1   
     9    4   16 1   
    10    5    6 1   
    11    5    7 1   
    12    5   17 1   
    13    6   18 1   
    14    7    8 1   
    15    7    9 1   
    16    7   19 1   
    17    8   20 1   
    18    9   10 2   
    19    9   11 1   
    20   10   21 1   
    21   11   12 1   
    22   11   22 1   
    23   11   23 1   
    24   12   24 1   
@<TRIPOS>SUBSTRUCTURE
     1 HMC         1 TEMP              0 ****  ****    0 ROOT
