@<TRIPOS>MOLECULE
HMC
   24    24     1     0     0
SMALL
bcc


@<TRIPOS>ATOM
      1 C1          1.6160   -0.3880   -0.6260 c3        1 HMC      0.135300
      2 O1          2.1440    0.8420   -1.1160 oh        1 HMC     -0.603800
      3 C2          0.4080   -0.7180   -1.5260 c3        1 HMC      0.161100
      4 O2          0.7300   -0.5190   -2.8820 oh        1 HMC     -0.570800
      5 C3         -0.7980    0.1270   -1.0870 c3        1 HMC      0.119100
      6 O3         -1.8720   -0.1710   -1.9590 oh        1 HMC     -0.583800
      7 C4         -1.1840   -0.2450    0.3600 c3        1 HMC      0.138300
      8 O4         -2.2060    0.6750    0.7210 oh        1 HMC     -0.599800
      9 C5          0.0020   -0.1910    1.2770 c2        1 HMC     -0.136400
     10 C6          1.2570   -0.2790    0.8200 c2        1 HMC     -0.170200
     11 C7         -0.3260   -0.0560    2.7280 c3        1 HMC      0.164600
     12 O7          0.8440   -0.2670    3.5020 oh        1 HMC     -0.595800
     13 H1          2.3950   -1.1930   -0.7610 h1        1 HMC      0.057700
     14 HO1         2.8630    1.0970   -0.5260 ho        1 HMC      0.412000
     15 H2          0.1610   -1.8140   -1.4510 h1        1 HMC      0.089700
     16 HO2         0.9270    0.4200   -2.9990 ho        1 HMC      0.417000
     17 H3         -0.5440    1.2210   -1.1430 h1        1 HMC      0.066700
     18 HO3        -2.6150    0.3740   -1.6670 ho        1 HMC      0.414000
     19 H4         -1.6050   -1.2930    0.3710 h1        1 HMC      0.057700
     20 HO4        -2.5760    0.3750    1.5600 ho        1 HMC      0.404000
     21 H6          2.1110   -0.2670    1.5180 ha        1 HMC      0.149000
     22 H71        -1.1060   -0.8170    3.0130 h1        1 HMC      0.033700
     23 H72        -0.7360    0.9760    2.9190 h1        1 HMC      0.033700
     24 HO7         0.6000   -0.0840    4.4170 ho        1 HMC      0.407000
@<TRIPOS>BOND
     1    1    2 1   
     2    1    3 1   
     3    1   10 1   
     4    1   13 1   
     5    2   14 1   
     6    3    4 1   
     7    3    5 1   
     8    3   15 1   
     9    4   16 1   
    10    5    6 1   
    11    5    7 1   
    12    5   17 1   
    13    6   18 1   
    14    7    8 1   
    15    7    9 1   
    16    7   19 1   
    17    8   20 1   
    18    9   10 2   
    19    9   11 1   
    20   10   21 1   
    21   11   12 1   
    22   11   22 1   
    23   11   23 1   
    24   12   24 1   
@<TRIPOS>SUBSTRUCTURE
     1 HMC         1 TEMP              0 ****  ****    0 ROOT
