@<TRIPOS>MOLECULE
HMC
   24    24     1     0     0
SMALL
bcc


@<TRIPOS>ATOM
      1 C1         -0.8620    0.7740   -1.4290 c3        1 HMC      0.139300
      2 O1         -1.3230    0.6260   -2.7780 oh        1 HMC     -0.612800
      3 C2          0.8050    0.8300   -1.3750 c3        1 HMC      0.157100
      4 O2          1.3340   -0.3790   -2.0660 oh        1 HMC     -0.614800
      5 C3          1.3230    0.8720   -0.1920 c3        1 HMC      0.108100
      6 O3          0.8960    2.1730    0.4610 oh        1 HMC     -0.592800
      7 C4          0.9140   -0.3550    0.8100 c3        1 HMC      0.157300
      8 O4          1.6340   -1.6100    0.4300 oh        1 HMC     -0.598800
      9 C5         -0.5280   -0.5560    0.8760 c2        1 HMC     -0.138400
     10 C6         -1.3990   -0.2510   -0.5930 c2        1 HMC     -0.164200
     11 C7         -1.1350   -1.4760    1.9720 c3        1 HMC      0.167600
     12 O7         -2.0990   -0.7630    2.7070 oh        1 HMC     -0.604800
     13 H1         -1.2430    1.6430   -1.1970 h1        1 HMC      0.071700
     14 HO1        -1.9620    1.3020   -2.9680 ho        1 HMC      0.415000
     15 H2          1.1070    1.6380   -1.8800 h1        1 HMC      0.065700
     16 HO2         1.7800   -0.1450   -2.7240 ho        1 HMC      0.433000
     17 H3          2.2990    0.8800   -0.2850 h1        1 HMC      0.067700
     18 HO3         1.6160    2.6380    0.7010 ho        1 HMC      0.408000
     19 H4          1.2750   -0.2010    1.7130 h1        1 HMC      0.072700
     20 HO4         2.3460   -1.7750    1.0620 ho        1 HMC      0.427000
     21 H6         -2.3010   -0.4770   -0.6570 ha        1 HMC      0.149000
     22 H71        -1.5750   -2.2930    1.5300 h1        1 HMC      0.041200
     23 H72        -0.4130   -1.7820    2.5840 h1        1 HMC      0.041200
     24 HO7        -2.4880   -1.3130    3.2980 ho        1 HMC      0.405000
@<TRIPOS>BOND
     1    1    2 1   
     2    1    3 1   
     3    1   10 1   
     4    1   13 1   
     5    2   14 1   
     6    3    4 1   
     7    3    5 1   
     8    3   15 1   
     9    4   16 1   
    10    5    6 1   
    11    5    7 1   
    12    5   17 1   
    13    6   18 1   
    14    7    8 1   
    15    7    9 1   
    16    7   19 1   
    17    8   20 1   
    18    9   10 2   
    19    9   11 1   
    20   10   21 1   
    21   11   12 1   
    22   11   22 1   
    23   11   23 1   
    24   12   24 1   
@<TRIPOS>SUBSTRUCTURE
     1 HMC         1 TEMP              0 ****  ****    0 ROOT
