@<TRIPOS>MOLECULE
HMD
   30    32     1     0     0
SMALL
bcc


@<TRIPOS>ATOM
      1 BR1        -0.1170   -0.0330    0.2280 br        1 HMD      0.039300
      2 O1          5.2050   -0.8190    2.5880 o         1 HMD     -0.559500
      3 O2          5.6480   -0.3000   -3.6820 o         1 HMD     -0.319100
      4 N1          2.5260    0.0660    1.2920 ne        1 HMD     -0.451300
      5 N2          5.9040    1.1140    1.5950 n         1 HMD     -0.566900
      6 N3          4.3220    1.2740   -4.9380 nc        1 HMD     -0.530100
      7 N4          3.6200    2.5050   -2.9960 nd        1 HMD     -0.633000
      8 N5          2.8360    3.2190   -5.2870 n4        1 HMD     -0.769600
      9 C1          1.7220    0.0260    0.0970 ce        1 HMD      0.125300
     10 C2          2.4860    0.0350   -1.0400 c2        1 HMD     -0.220200
     11 C3          3.9430    0.0450   -0.6250 c3        1 HMD     -0.132800
     12 C4          3.7790    0.0890    0.9060 cf        1 HMD      0.369300
     13 C5          4.9810    0.1000    1.7880 c         1 HMD      0.623200
     14 C6          5.6440    2.3830    0.9770 c3        1 HMD      0.093000
     15 C7          4.6670    2.4270   -0.1990 c3        1 HMD     -0.092400
     16 C8          4.7730    1.2250   -1.1280 c3        1 HMD     -0.071000
     17 C9          4.3790    1.5440   -2.5280 cc        1 HMD      0.459300
     18 C10         4.9120    0.6630   -3.7190 c         1 HMD      0.522200
     19 C11         3.6220    2.2870   -4.4660 cd        1 HMD      0.636200
     20 HN2         6.6760    1.1110    2.2310 hn        1 HMD      0.336500
     21 HN51        1.8520    3.1830   -4.9790 hn        1 HMD      0.494133
     22 HN52        3.2000    4.1730   -5.1450 hn        1 HMD      0.494133
     23 H2          2.1580   -0.0230   -2.0730 ha        1 HMD      0.154000
     24 H3          4.4270   -0.9270   -0.9220 hc        1 HMD      0.128700
     25 H61         5.2600    3.1180    1.7480 h1        1 HMD      0.057700
     26 H62         6.6450    2.7660    0.6160 h1        1 HMD      0.057700
     27 H71         3.6140    2.5190    0.1790 hc        1 HMD      0.072200
     28 H72         4.8970    3.3730   -0.7600 hc        1 HMD      0.072200
     29 H8          5.8570    0.8950   -1.1740 hc        1 HMD      0.116700
     30 H53         2.8990    2.9650   -6.2850 hn        1 HMD      0.494133
@<TRIPOS>BOND
     1    1    9 1   
     2    2   13 2   
     3    3   18 2   
     4    4    9 1   
     5    4   12 2   
     6    5   13 1   
     7    5   14 1   
     8    5   20 1   
     9    6   18 1   
    10    6   19 2   
    11    7   17 2   
    12    7   19 1   
    13    8   19 1   
    14    8   21 1   
    15    8   22 1   
    16    8   30 1   
    17    9   10 2   
    18   10   11 1   
    19   10   23 1   
    20   11   12 1   
    21   11   16 1   
    22   11   24 1   
    23   12   13 1   
    24   14   15 1   
    25   14   25 1   
    26   14   26 1   
    27   15   16 1   
    28   15   27 1   
    29   15   28 1   
    30   16   17 1   
    31   16   29 1   
    32   17   18 1   
@<TRIPOS>SUBSTRUCTURE
     1 HMD         1 TEMP              0 ****  ****    0 ROOT
