@<TRIPOS>MOLECULE
HMD
   30    32     1     0     0
SMALL
bcc


@<TRIPOS>ATOM
      1 Br1        -0.1140   -0.0440    0.2260 br        1 HMD      0.039300
      2 O1          5.2090   -0.8160    2.5890 o         1 HMD     -0.559500
      3 O2          5.6550   -0.2950   -3.6810 o         1 HMD     -0.319100
      4 N1          2.5280    0.0620    1.2920 ne        1 HMD     -0.451300
      5 N2          5.9030    1.1200    1.5950 ns        1 HMD     -0.566900
      6 N3          4.3250    1.2740   -4.9380 nc        1 HMD     -0.530100
      7 N4          3.6180    2.5030   -2.9970 nd        1 HMD     -0.633000
      8 N5          2.8320    3.2140   -5.2880 nz        1 HMD     -0.769600
      9 C1          1.7250    0.0200    0.0960 ce        1 HMD      0.125300
     10 C2          2.4900    0.0300   -1.0410 c2        1 HMD     -0.220200
     11 C3          3.9460    0.0450   -0.6250 c3        1 HMD     -0.132800
     12 C4          3.7810    0.0890    0.9060 cf        1 HMD      0.369300
     13 C5          4.9830    0.1030    1.7880 c         1 HMD      0.623200
     14 C6          5.6400    2.3880    0.9780 c3        1 HMD      0.093000
     15 C7          4.6630    2.4290   -0.1990 c3        1 HMD     -0.092400
     16 C8          4.7730    1.2270   -1.1270 c3        1 HMD     -0.071000
     17 C9          4.3790    1.5450   -2.5280 cc        1 HMD      0.459300
     18 C10         4.9150    0.6650   -3.7190 c         1 HMD      0.522200
     19 C11         3.6200    2.2850   -4.4670 cd        1 HMD      0.636200
     20 HN2         6.6750    1.1190    2.2330 hn        1 HMD      0.336500
     21 HN51        2.8970    2.9610   -6.2850 hn        1 HMD      0.494133
     22 HN52        3.1920    4.1700   -5.1460 hn        1 HMD      0.494133
     23 H2          2.1620   -0.0290   -2.0740 ha        1 HMD      0.154000
     24 H3          4.4330   -0.9260   -0.9210 hc        1 HMD      0.128700
     25 H61         5.2530    3.1220    1.7480 h1        1 HMD      0.057700
     26 H62         6.6400    2.7740    0.6170 h1        1 HMD      0.057700
     27 H71         4.8910    3.3750   -0.7600 hc        1 HMD      0.072200
     28 H72         3.6100    2.5180    0.1780 hc        1 HMD      0.072200
     29 H8          5.8580    0.8990   -1.1730 hc        1 HMD      0.116700
     30 H53         1.8480    3.1750   -4.9810 hn        1 HMD      0.494133
@<TRIPOS>BOND
     1    1    9 1   
     2    2   13 2   
     3    3   18 2   
     4    4    9 1   
     5    4   12 2   
     6    5   13 1   
     7    5   14 1   
     8    5   20 1   
     9    6   18 1   
    10    6   19 2   
    11    7   17 2   
    12    7   19 1   
    13    8   19 1   
    14    8   21 1   
    15    8   22 1   
    16    8   30 1   
    17    9   10 2   
    18   10   11 1   
    19   10   23 1   
    20   11   12 1   
    21   11   16 1   
    22   11   24 1   
    23   12   13 1   
    24   14   15 1   
    25   14   25 1   
    26   14   26 1   
    27   15   16 1   
    28   15   27 1   
    29   15   28 1   
    30   16   17 1   
    31   16   29 1   
    32   17   18 1   
@<TRIPOS>SUBSTRUCTURE
     1 HMD         1 TEMP              0 ****  ****    0 ROOT
