@<TRIPOS>MOLECULE
HMD
   29    31     1     0     0
SMALL
bcc


@<TRIPOS>ATOM
      1 BR1         2.5240    0.2240   -2.5520 br        1 HMD      0.003300
      2 O1         -3.2230   -1.0420   -2.6800 o         1 HMD     -0.603500
      3 O2         -1.2750   -1.9880    3.1900 o         1 HMD     -0.477100
      4 N1         -0.3140    0.0230   -2.3810 ne        1 HMD     -0.469300
      5 N2         -3.5400    0.4940   -1.0370 n         1 HMD     -0.570900
      6 N3          0.4690   -0.6940    4.2190 nc        1 HMD     -0.724100
      7 N4          0.4580    0.9910    2.4820 nd        1 HMD     -0.650000
      8 N5          2.0020    1.1690    4.4110 nh        1 HMD     -0.882800
      9 C1          0.9340   -0.1310   -1.6810 ce        1 HMD      0.086300
     10 C2          0.7560   -0.5440   -0.3870 c2        1 HMD     -0.159200
     11 C3         -0.7290   -0.7370   -0.1590 c3        1 HMD     -0.127800
     12 C4         -1.2640   -0.3000   -1.5330 cf        1 HMD      0.356300
     13 C5         -2.7250   -0.3000   -1.8150 c         1 HMD      0.636200
     14 C6         -3.1530    1.5200   -0.1130 c3        1 HMD      0.101000
     15 C7         -1.7540    1.4680    0.4980 c3        1 HMD     -0.091400
     16 C8         -1.3530    0.0770    0.9700 c3        1 HMD     -0.061000
     17 C9         -0.4420    0.1130    2.1450 cc        1 HMD      0.356300
     18 C10        -0.5070   -1.0340    3.2390 c         1 HMD      0.558200
     19 C11         1.0210    0.4700    3.7840 cd        1 HMD      0.836200
     20 HN2        -4.5100    0.4770   -1.2700 hn        1 HMD      0.327500
     21 HN51        2.3780    0.8330    5.2640 hn        1 HMD      0.462300
     22 HN52        2.3450    2.0090    4.0130 hn        1 HMD      0.462300
     23 H2          1.5070   -0.7470    0.3730 ha        1 HMD      0.172000
     24 H3         -0.9380   -1.8320   -0.0010 hc        1 HMD      0.124700
     25 H61        -3.9030    1.4880    0.7330 h1        1 HMD      0.044200
     26 H62        -3.2560    2.5290   -0.6180 h1        1 HMD      0.044200
     27 H71        -1.7660    2.1780    1.3680 hc        1 HMD      0.070700
     28 H72        -0.9950    1.8570   -0.2300 hc        1 HMD      0.070700
     29 H8         -2.2810   -0.4730    1.3150 hc        1 HMD      0.100700
@<TRIPOS>BOND
     1    1    9 1   
     2    2   13 2   
     3    3   18 2   
     4    4    9 1   
     5    4   12 2   
     6    5   13 1   
     7    5   14 1   
     8    5   20 1   
     9    6   18 1   
    10    6   19 2   
    11    7   17 2   
    12    7   19 1   
    13    8   19 1   
    14    8   21 1   
    15    8   22 1   
    16    9   10 2   
    17   10   11 1   
    18   10   23 1   
    19   11   12 1   
    20   11   16 1   
    21   11   24 1   
    22   12   13 1   
    23   14   15 1   
    24   14   25 1   
    25   14   26 1   
    26   15   16 1   
    27   15   27 1   
    28   15   28 1   
    29   16   17 1   
    30   16   29 1   
    31   17   18 1   
@<TRIPOS>SUBSTRUCTURE
     1 HMD         1 TEMP              0 ****  ****    0 ROOT
