@<TRIPOS>MOLECULE
HMD
   30    32     1     0     0
SMALL
bcc


@<TRIPOS>ATOM
      1 BR1        -0.1080   -0.0710    0.2130 br        1 HMD      0.039300
      2 O1          5.2170   -0.8190    2.5800 o         1 HMD     -0.559500
      3 O2          5.6690   -0.2770   -3.6890 o         1 HMD     -0.319100
      4 N1          2.5330    0.0470    1.2820 ne        1 HMD     -0.451300
      5 N2          5.9010    1.1220    1.5930 n         1 HMD     -0.566900
      6 N3          4.3300    1.2880   -4.9420 nc        1 HMD     -0.530100
      7 N4          3.6120    2.5060   -2.9980 nd        1 HMD     -0.633000
      8 N5          2.8240    3.2200   -5.2870 n4        1 HMD     -0.769600
      9 C1          1.7310    0.0040    0.0850 ce        1 HMD      0.125300
     10 C2          2.4980    0.0210   -1.0510 c2        1 HMD     -0.220200
     11 C3          3.9530    0.0430   -0.6330 c3        1 HMD     -0.132800
     12 C4          3.7860    0.0820    0.8970 cf        1 HMD      0.369300
     13 C5          4.9870    0.1000    1.7810 c         1 HMD      0.623200
     14 C6          5.6320    2.3900    0.9780 c3        1 HMD      0.093000
     15 C7          4.6560    2.4300   -0.2000 c3        1 HMD     -0.092400
     16 C8          4.7740    1.2310   -1.1310 c3        1 HMD     -0.071000
     17 C9          4.3790    1.5510   -2.5310 cc        1 HMD      0.459300
     18 C10         4.9230    0.6780   -3.7250 c         1 HMD      0.522200
     19 C11         3.6180    2.2920   -4.4690 cd        1 HMD      0.636200
     20 HN2         6.6720    1.1240    2.2300 hn        1 HMD      0.336500
     21 HN51        1.8400    3.1720   -4.9820 hn        1 HMD      0.494133
     22 HN52        3.1780    4.1770   -5.1420 hn        1 HMD      0.494133
     23 H2          2.1710   -0.0360   -2.0840 ha        1 HMD      0.154000
     24 H3          4.4460   -0.9240   -0.9310 hc        1 HMD      0.128700
     25 H61         5.2410    3.1210    1.7500 h1        1 HMD      0.057700
     26 H62         6.6310    2.7830    0.6200 h1        1 HMD      0.057700
     27 H71         3.6020    2.5120    0.1770 hc        1 HMD      0.072200
     28 H72         4.8800    3.3790   -0.7580 hc        1 HMD      0.072200
     29 H8          5.8610    0.9100   -1.1770 hc        1 HMD      0.116700
     30 H53         2.8930    2.9700   -6.2860 hn        1 HMD      0.494133
@<TRIPOS>BOND
     1    1    9 1   
     2    2   13 2   
     3    3   18 2   
     4    4    9 1   
     5    4   12 2   
     6    5   13 1   
     7    5   14 1   
     8    5   20 1   
     9    6   18 1   
    10    6   19 2   
    11    7   17 2   
    12    7   19 1   
    13    8   19 1   
    14    8   21 1   
    15    8   22 1   
    16    8   30 1   
    17    9   10 2   
    18   10   11 1   
    19   10   23 1   
    20   11   12 1   
    21   11   16 1   
    22   11   24 1   
    23   12   13 1   
    24   14   15 1   
    25   14   25 1   
    26   14   26 1   
    27   15   16 1   
    28   15   27 1   
    29   15   28 1   
    30   16   17 1   
    31   16   29 1   
    32   17   18 1   
@<TRIPOS>SUBSTRUCTURE
     1 HMD         1 TEMP              0 ****  ****    0 ROOT
