@<TRIPOS>MOLECULE
HMF
   25    23     1     0     0
SMALL
bcc


@<TRIPOS>ATOM
      1 N          -1.9670    1.6810    2.3730 n3        1 HMF     -0.325000
      2 CA         -0.6660    1.7840    1.7900 c3        1 HMF     -0.131000
      3 C           0.3520    2.0200    2.8700 c2        1 HMF      0.308000
      4 O           0.5410    1.1520    3.7520 o         1 HMF     -0.578000
      5 OXT         1.0530    3.0500    2.8490 o         1 HMF     -0.578000
      6 CB         -0.3330    0.4890    1.0550 c3        1 HMF     -0.138000
      7 CG         -0.3480    0.7340   -0.4450 c3        1 HMF     -0.130000
      8 C1          0.1790   -0.5270   -1.1810 c2        1 HMF     -0.043000
      9 C2         -0.7200   -1.4770   -1.6650 c2        1 HMF     -0.138000
     10 C6          1.5650   -0.7020   -1.3790 c1        1 HMF     -0.126000
     11 C3         -0.2480   -2.6030   -2.3460 c1        1 HMF     -0.139000
     12 C5          2.0390   -1.8340   -2.0630 c1        1 HMF     -0.144000
     13 C4          1.1410   -2.7790   -2.5440 c1        1 HMF     -0.144000
     14 H          -1.9290    1.9510    3.2710 hn        1 HMF      0.126000
     15 H2         -2.5540    2.2240    1.9130 hn        1 HMF      0.126000
     16 HA         -0.6500    2.5490    1.1430 h1        1 HMF      0.079000
     17 HB2        -1.0090   -0.2050    1.2830 hc        1 HMF      0.090000
     18 HB3         0.5430    0.1850    1.3230 hc        1 HMF      0.090000
     19 HG2         0.2190    1.4920   -0.6560 hc        1 HMF      0.087000
     20 HG3        -1.2880    0.9240   -0.7430 hc        1 HMF      0.087000
     21 HC2        -1.6940   -1.3560   -1.5210 ha        1 HMF      0.128000
     22 H6          2.1910   -0.0010   -1.1050 ha        1 HMF      0.147000
     23 H3         -0.8780   -3.2690   -2.6850 ha        1 HMF      0.115000
     24 H5          2.9940   -1.9180   -2.2690 ha        1 HMF      0.116500
     25 H4          1.4690   -3.5650   -3.0190 ha        1 HMF      0.116500
@<TRIPOS>BOND
     1    1    2 1   
     2    1   14 1   
     3    1   15 1   
     4    2    3 1   
     5    2    6 1   
     6    2   16 1   
     7    3    4 1   
     8    3    5 1   
     9    6    7 1   
    10    6   17 1   
    11    6   18 1   
    12    7    8 1   
    13    7   19 1   
    14    7   20 1   
    15    8    9 1   
    16    8   10 1   
    17    9   11 1   
    18    9   21 1   
    19   10   22 1   
    20   11   23 1   
    21   12   13 1   
    22   12   24 1   
    23   13   25 1   
@<TRIPOS>SUBSTRUCTURE
     1 HMF         1 TEMP              0 ****  ****    0 ROOT
