@<TRIPOS>MOLECULE
HMF
   25    25     1     0     0
SMALL
bcc


@<TRIPOS>ATOM
      1 N          -2.5250    1.7190    0.4990 n3        1 HMF     -0.892800
      2 CA         -2.1390    0.3200    0.6320 c3        1 HMF      0.016500
      3 C          -3.1680   -0.6960    0.0300 c         1 HMF      0.888600
      4 O          -4.2250   -0.2350   -0.4880 o         1 HMF     -0.843300
      5 OXT        -2.8910   -1.9250    0.1190 o         1 HMF     -0.843300
      6 CB         -0.7620    0.0130    0.0400 c3        1 HMF     -0.059400
      7 CG          0.3530    0.6680    0.8330 c3        1 HMF     -0.044100
      8 C1          1.7040    0.2930    0.3340 ca        1 HMF     -0.050300
      9 C2          2.5830    1.2690   -0.1510 ca        1 HMF     -0.132000
     10 C6          2.1230   -1.0450    0.3590 ca        1 HMF     -0.132000
     11 C3          3.8560    0.9170   -0.5990 ca        1 HMF     -0.136500
     12 C5          3.3950   -1.3950   -0.0890 ca        1 HMF     -0.136500
     13 C4          4.2650   -0.4150   -0.5680 ca        1 HMF     -0.154000
     14 H          -2.4250    1.9850   -0.4660 hn        1 HMF      0.330800
     15 H2         -3.5100    1.7750    0.7030 hn        1 HMF      0.330800
     16 HA         -2.1010    0.1050    1.7400 h1        1 HMF      0.039700
     17 HB2        -0.6380   -1.1030    0.0500 hc        1 HMF      0.050700
     18 HB3        -0.7150    0.3480   -1.0280 hc        1 HMF      0.050700
     19 HG2         0.2270    1.7830    0.8020 hc        1 HMF      0.047700
     20 HG3         0.2680    0.3560    1.9090 hc        1 HMF      0.047700
     21 HC2         2.2630    2.3210   -0.1820 ha        1 HMF      0.137500
     22 H6          1.4320   -1.8190    0.7290 ha        1 HMF      0.137500
     23 H3          4.5360    1.6920   -0.9790 ha        1 HMF      0.117000
     24 H5          3.7110   -2.4470   -0.0690 ha        1 HMF      0.117000
     25 H4          5.2670   -0.6930   -0.9220 ha        1 HMF      0.114000
@<TRIPOS>BOND
     1    1    2 1   
     2    1   14 1   
     3    1   15 1   
     4    2    3 1   
     5    2    6 1   
     6    2   16 1   
     7    3    4 1   
     8    3    5 1   
     9    6    7 1   
    10    6   17 1   
    11    6   18 1   
    12    7    8 1   
    13    7   19 1   
    14    7   20 1   
    15    8    9 ar  
    16    8   10 ar  
    17    9   11 ar  
    18    9   21 1   
    19   10   12 ar  
    20   10   22 1   
    21   11   13 ar  
    22   11   23 1   
    23   12   13 ar  
    24   12   24 1   
    25   13   25 1   
@<TRIPOS>SUBSTRUCTURE
     1 HMF         1 TEMP              0 ****  ****    0 ROOT
