@<TRIPOS>MOLECULE
HMH
   19    19     1     0     0
SMALL
bcc


@<TRIPOS>ATOM
      1 CM2        -0.0090   -0.0730   -0.0040 c3        1 HMH     -0.136400
      2 N1A         2.1270   -0.1050    1.2150 nb        1 HMH     -0.733000
      3 C2A         1.5010   -0.0460   -0.0060 ca        1 HMH      0.681300
      4 N3A         2.1230    0.0380   -1.2150 nb        1 HMH     -0.762000
      5 C4A         3.4980    0.0450   -1.2150 ca        1 HMH      0.666200
      6 N4A         4.1720    0.0280   -2.4380 nv        1 HMH     -0.930500
      7 C5A         4.2290   -0.0050    0.0160 ca        1 HMH     -0.388900
      8 C6A         3.4690   -0.0800    1.1980 ca        1 HMH      0.484200
      9 C7A         5.7140    0.0040    0.0340 c3        1 HMH      0.199700
     10 O1          6.1620   -0.0040    1.3820 oh        1 HMH     -0.598800
     11 HCM1       -0.3970    0.7610    0.6300 hc        1 HMH      0.062033
     12 HCM2       -0.4220    0.0340   -1.0360 hc        1 HMH      0.062033
     13 HCM3       -0.3580   -1.0450    0.4260 hc        1 HMH      0.062033
     14 HN41        3.6260    0.2100   -3.2510 hn        1 HMH      0.411300
     15 HN42        5.0630    0.4680   -2.4280 hn        1 HMH      0.411300
     16 HC6         3.9770   -0.1240    2.1820 h4        1 HMH      0.047100
     17 HC71        6.1070    0.9300   -0.4760 h1        1 HMH      0.027700
     18 HC72        6.1110   -0.9010   -0.5060 h1        1 HMH      0.027700
     19 HO1         7.1180   -0.1270    1.3470 ho        1 HMH      0.406000
@<TRIPOS>BOND
     1    1    3 1   
     2    1   11 1   
     3    1   12 1   
     4    1   13 1   
     5    2    3 ar  
     6    2    8 ar  
     7    3    4 ar  
     8    4    5 ar  
     9    5    6 1   
    10    5    7 ar  
    11    6   14 1   
    12    6   15 1   
    13    7    8 ar  
    14    7    9 1   
    15    8   16 1   
    16    9   10 1   
    17    9   17 1   
    18    9   18 1   
    19   10   19 1   
@<TRIPOS>SUBSTRUCTURE
     1 HMH         1 TEMP              0 ****  ****    0 ROOT
