@<TRIPOS>MOLECULE
HMH
   19    19     1     0     0
SMALL
bcc


@<TRIPOS>ATOM
      1 CM2         0.4850    0.0090    3.3390 c3        1 HMH     -0.136400
      2 N1A         1.4530    0.0400    1.0780 nb        1 HMH     -0.733000
      3 C2A         0.3100    0.0080    1.8390 ca        1 HMH      0.681300
      4 N3A        -0.9640   -0.0280    1.3580 nb        1 HMH     -0.762000
      5 C4A        -1.1210   -0.0110   -0.0080 ca        1 HMH      0.666200
      6 N4A        -2.4120    0.0560   -0.5370 nh        1 HMH     -0.930500
      7 C5A         0.0200    0.0130   -0.8740 ca        1 HMH     -0.388900
      8 C6A         1.2820    0.0390   -0.2530 ca        1 HMH      0.484200
      9 C7A        -0.1320    0.0300   -2.3510 c3        1 HMH      0.199700
     10 O1          1.1570    0.0030   -2.9510 oh        1 HMH     -0.598800
     11 HCM1        0.9920    0.9550    3.6490 hc        1 HMH      0.062033
     12 HCM2       -0.4970   -0.0650    3.8660 hc        1 HMH      0.062033
     13 HCM3        1.1230   -0.8580    3.6400 hc        1 HMH      0.062033
     14 HN41       -3.1630   -0.1100    0.0960 hn        1 HMH      0.411300
     15 HN42       -2.5170   -0.3690   -1.4300 hn        1 HMH      0.411300
     16 HC6         2.2030    0.0600   -0.8700 h4        1 HMH      0.047100
     17 HC71       -0.7130   -0.8730   -2.6960 h1        1 HMH      0.027700
     18 HC72       -0.6830    0.9580   -2.6720 h1        1 HMH      0.027700
     19 HO1         1.0170    0.1440   -3.8940 ho        1 HMH      0.406000
@<TRIPOS>BOND
     1    1    3 1   
     2    1   11 1   
     3    1   12 1   
     4    1   13 1   
     5    2    3 ar  
     6    2    8 ar  
     7    3    4 ar  
     8    4    5 ar  
     9    5    6 1   
    10    5    7 ar  
    11    6   14 1   
    12    6   15 1   
    13    7    8 ar  
    14    7    9 1   
    15    8   16 1   
    16    9   10 1   
    17    9   17 1   
    18    9   18 1   
    19   10   19 1   
@<TRIPOS>SUBSTRUCTURE
     1 HMH         1 TEMP              0 ****  ****    0 ROOT
