@<TRIPOS>MOLECULE
HMH
   19    16     1     0     0
SMALL
bcc


@<TRIPOS>ATOM
      1 CM2        -3.4210    0.0000    0.1610 c3        1 HMH     -0.069000
      2 N1A        -1.2170   -0.0230    1.3610 n1        1 HMH     -0.532800
      3 C2A        -1.8660    0.0300    0.1900 c1        1 HMH      0.413700
      4 N3A        -1.1580    0.0680   -0.9850 n1        1 HMH     -0.561800
      5 C4A         0.1630    0.0530   -0.9630 c1        1 HMH      0.200800
      6 N4A         0.8830    0.1700   -2.1560 n3        1 HMH     -0.793400
      7 C5A         0.8270   -0.0010    0.2360 c1        1 HMH     -0.224100
      8 C6A         0.1340   -0.0380    1.3850 c1        1 HMH      0.402300
      9 C7A         2.3200   -0.0230    0.2600 c3        1 HMH      0.165500
     10 O1          2.7790   -0.2240    1.6190 oh        1 HMH     -0.598800
     11 HCM1       -3.7510    0.7710   -0.3310 hc        1 HMH      0.062033
     12 HCM2       -3.7760    0.0280    1.1060 hc        1 HMH      0.062033
     13 HCM3       -3.7210   -0.8110   -0.2720 hc        1 HMH      0.062033
     14 HN41        1.4370    0.8800   -2.2830 hn        1 HMH      0.411300
     15 HN42        0.8050   -0.4710   -2.8020 hn        1 HMH      0.411300
     16 HC6         0.6130   -0.0770    2.2520 ha        1 HMH      0.126500
     17 HC71        2.6430   -0.7540   -0.3050 h1        1 HMH      0.027700
     18 HC72        2.6710    0.8440   -0.0850 h1        1 HMH      0.027700
     19 HO1         3.6350   -0.4220    1.6130 ho        1 HMH      0.406000
@<TRIPOS>BOND
     1    1    3 1   
     2    1   11 1   
     3    1   12 1   
     4    1   13 1   
     5    2    8 3   
     6    3    4 3   
     7    5    6 1   
     8    5    7 3   
     9    6   14 1   
    10    6   15 1   
    11    7    9 1   
    12    8   16 1   
    13    9   10 1   
    14    9   17 1   
    15    9   18 1   
    16   10   19 1   
@<TRIPOS>SUBSTRUCTURE
     1 HMH         1 TEMP              0 ****  ****    0 ROOT
