@<TRIPOS>MOLECULE
HMH
   19    19     1     0     0
SMALL
bcc


@<TRIPOS>ATOM
      1 CM2        -0.0100   -0.0740    0.0100 c3        1 HMH     -0.136400
      2 N1A         2.1290    0.0380    1.2200 nb        1 HMH     -0.733000
      3 C2A         1.5000   -0.0380    0.0010 ca        1 HMH      0.681300
      4 N3A         2.1190   -0.0780   -1.2110 nb        1 HMH     -0.762000
      5 C4A         3.4950   -0.0600   -1.2160 ca        1 HMH      0.666200
      6 N4A         4.1660   -0.2020   -2.4320 nh        1 HMH     -0.930500
      7 C5A         4.2280    0.0270    0.0120 ca        1 HMH     -0.388900
      8 C6A         3.4710    0.0710    1.1970 ca        1 HMH      0.484200
      9 C7A         5.7130    0.0490    0.0250 c3        1 HMH      0.199700
     10 O1          6.1630    0.1880    1.3650 oh        1 HMH     -0.598800
     11 HCM1       -0.4240   -0.1140   -1.0260 hc        1 HMH      0.062033
     12 HCM2       -0.3530   -0.9780    0.5720 hc        1 HMH      0.062033
     13 HCM3       -0.4010    0.8390    0.5220 hc        1 HMH      0.062033
     14 HN41        3.6180   -0.1110   -3.2580 hn        1 HMH      0.411300
     15 HN42        5.0540    0.2440   -2.4700 hn        1 HMH      0.411300
     16 HC6         3.9800    0.1360    2.1790 h4        1 HMH      0.047100
     17 HC71        6.1160   -0.9050   -0.4170 h1        1 HMH      0.027700
     18 HC72        6.0980    0.9180   -0.5810 h1        1 HMH      0.027700
     19 HO1         7.1200    0.0680    1.3420 ho        1 HMH      0.406000
@<TRIPOS>BOND
     1    1    3 1   
     2    1   11 1   
     3    1   12 1   
     4    1   13 1   
     5    2    3 ar  
     6    2    8 ar  
     7    3    4 ar  
     8    4    5 ar  
     9    5    6 1   
    10    5    7 ar  
    11    6   14 1   
    12    6   15 1   
    13    7    8 ar  
    14    7    9 1   
    15    8   16 1   
    16    9   10 1   
    17    9   17 1   
    18    9   18 1   
    19   10   19 1   
@<TRIPOS>SUBSTRUCTURE
     1 HMH         1 TEMP              0 ****  ****    0 ROOT
