@<TRIPOS>MOLECULE
HMH
   20    20     1     0     0
SMALL
bcc


@<TRIPOS>ATOM
      1 CM2        -0.0340    0.0290    0.0210 c3        1 HMH     -0.152400
      2 N1A         2.1290    0.1240    1.2190 nb        1 HMH     -0.641000
      3 C2A         1.4730    0.0300    0.0050 ca        1 HMH      0.718300
      4 N3A         2.1040   -0.0600   -1.2010 nb        1 HMH     -0.706000
      5 C4A         3.4680   -0.0560   -1.1770 ca        1 HMH      0.483200
      6 N4A         4.1430   -0.1540   -2.4900 n4        1 HMH     -0.825300
      7 C5A         4.2290    0.0350    0.0010 ca        1 HMH     -0.288900
      8 C6A         3.4600    0.1250    1.2050 ca        1 HMH      0.501200
      9 C7A         5.7180    0.0390    0.0250 c3        1 HMH      0.178700
     10 O1          6.1340    0.1420    1.3730 oh        1 HMH     -0.579800
     11 HCM1       -0.4580   -0.0490   -1.0100 hc        1 HMH      0.091367
     12 HCM2       -0.3970    0.9770    0.4950 hc        1 HMH      0.091367
     13 HCM3       -0.3940   -0.8370    0.6320 hc        1 HMH      0.091367
     14 HN41        4.7310   -0.9950   -2.4980 hn        1 HMH      0.474133
     15 HN42        4.7290    0.6770   -2.6240 hn        1 HMH      0.474133
     16 HC6         3.9840    0.2000    2.1840 h4        1 HMH      0.095100
     17 HC71        6.1130   -0.9150   -0.4280 h1        1 HMH      0.039700
     18 HC72        6.1100    0.9160   -0.5660 h1        1 HMH      0.039700
     19 HO1         7.1010    0.1440    1.3720 ho        1 HMH      0.440000
     20 H4A3        3.4540   -0.2130   -3.2550 hn        1 HMH      0.474133
@<TRIPOS>BOND
     1    1    3 1   
     2    1   11 1   
     3    1   12 1   
     4    1   13 1   
     5    2    3 ar  
     6    2    8 ar  
     7    3    4 ar  
     8    4    5 ar  
     9    5    6 1   
    10    5    7 ar  
    11    6   14 1   
    12    6   15 1   
    13    6   20 1   
    14    7    8 ar  
    15    7    9 1   
    16    8   16 1   
    17    9   10 1   
    18    9   17 1   
    19    9   18 1   
    20   10   19 1   
@<TRIPOS>SUBSTRUCTURE
     1 HMH         1 TEMP              0 ****  ****    0 ROOT
