@<TRIPOS>MOLECULE
HMI
   25    24     1     0     0
SMALL
bcc


@<TRIPOS>ATOM
      1 N          -0.0220   -0.4630   -0.0620 ns        1 HMI     -0.357400
      2 OH          1.2690   -0.7770    0.0670 oh        1 HMI     -0.431100
      3 C1         -0.6110    0.1220    1.1080 c         1 HMI      0.579100
      4 O1          0.0990    0.6190    1.9910 o         1 HMI     -0.517100
      5 CA         -2.1320    0.2270    1.1130 c3        1 HMI     -0.226700
      6 CB         -2.6400   -0.0100    2.5300 c3        1 HMI     -0.065400
      7 CG         -4.1400   -0.2570    2.5810 c3        1 HMI     -0.072700
      8 CD1        -4.4990   -1.6420    2.0860 c3        1 HMI     -0.091600
      9 CD2        -4.6370   -0.0680    4.0010 c3        1 HMI     -0.091600
     10 C          -2.5460    1.5830    0.5880 c         1 HMI      0.634100
     11 O          -2.2920    1.8930   -0.7180 oh        1 HMI     -0.576100
     12 OXT        -3.1390    2.4680    1.1990 o         1 HMI     -0.463000
     13 HN         -1.7820    1.1900   -1.1430 ho        1 HMI      0.432000
     14 HOH         1.7540    0.0720    0.0710 ho        1 HMI      0.439000
     15 HA         -2.5850   -0.5470    0.4280 hc        1 HMI      0.085700
     16 HB1        -2.0970   -0.8870    2.9700 hc        1 HMI      0.071200
     17 HB2        -2.3860    0.8930    3.1500 hc        1 HMI      0.071200
     18 HG         -4.6460    0.5090    1.9250 hc        1 HMI      0.063700
     19 HD11       -3.9930   -2.4240    2.7030 hc        1 HMI      0.036700
     20 HD12       -4.1940   -1.7800    1.0210 hc        1 HMI      0.036700
     21 HD13       -5.6030   -1.7990    2.1550 hc        1 HMI      0.036700
     22 HD21       -4.1230   -0.7770    4.6940 hc        1 HMI      0.036700
     23 HD22       -5.7360   -0.2560    4.0510 hc        1 HMI      0.036700
     24 HD23       -4.4390    0.9750    4.3470 hc        1 HMI      0.036700
     25 H2         -0.5070   -1.3070   -0.3530 hn        1 HMI      0.297500
@<TRIPOS>BOND
     1    1    2 1   
     2    1    3 1   
     3    1   25 1   
     4    2   14 1   
     5    3    4 2   
     6    3    5 1   
     7    5    6 1   
     8    5   10 1   
     9    5   15 1   
    10    6    7 1   
    11    6   16 1   
    12    6   17 1   
    13    7    8 1   
    14    7    9 1   
    15    7   18 1   
    16    8   19 1   
    17    8   20 1   
    18    8   21 1   
    19    9   22 1   
    20    9   23 1   
    21    9   24 1   
    22   10   11 1   
    23   10   12 2   
    24   11   13 1   
@<TRIPOS>SUBSTRUCTURE
     1 HMI         1 TEMP              0 ****  ****    0 ROOT
