@<TRIPOS>MOLECULE
HMI
   24    23     1     0     0
SMALL
bcc


@<TRIPOS>ATOM
      1 N           0.0860    0.7820   -2.4950 n         1 HMI     -0.371400
      2 OH         -0.3440    0.3830   -3.7000 oh        1 HMI     -0.460100
      3 C1         -0.5550    0.1460   -1.3850 c         1 HMI      0.619100
      4 O1         -1.6930   -0.3430   -1.5520 o         1 HMI     -0.644100
      5 CA          0.1460    0.2410   -0.0530 c3        1 HMI     -0.266700
      6 CB         -0.7550   -0.2590    1.0590 c3        1 HMI     -0.041400
      7 CG         -0.2940    0.2010    2.4360 c3        1 HMI     -0.075700
      8 CD1        -0.6020    1.6630    2.6750 c3        1 HMI     -0.082100
      9 CD2        -0.9470   -0.6470    3.5090 c3        1 HMI     -0.082100
     10 C           1.5120   -0.5150   -0.1080 c         1 HMI      0.921600
     11 O           1.7820   -1.3430    0.7980 o         1 HMI     -0.823800
     12 OXT         2.2960   -0.2130   -1.0560 o         1 HMI     -0.823800
     13 HN          1.1040    0.6430   -2.4620 hn        1 HMI      0.347500
     14 HOH        -1.3130    0.4960   -3.6930 ho        1 HMI      0.413000
     15 HA          0.4110    1.3200    0.1280 hc        1 HMI      0.067700
     16 HB1        -0.7490   -1.3810    1.0320 hc        1 HMI      0.043700
     17 HB2        -1.8090    0.0830    0.8810 hc        1 HMI      0.043700
     18 HG          0.8230    0.0410    2.4840 hc        1 HMI      0.091700
     19 HD11       -0.2590    1.9710    3.6930 hc        1 HMI      0.020367
     20 HD12       -0.0830    2.3040    1.9220 hc        1 HMI      0.020367
     21 HD13       -1.7000    1.8530    2.6020 hc        1 HMI      0.020367
     22 HD21       -2.0600   -0.5710    3.4480 hc        1 HMI      0.020367
     23 HD22       -0.6560   -1.7170    3.3820 hc        1 HMI      0.020367
     24 HD23       -0.6250   -0.3080    4.5230 hc        1 HMI      0.020367
@<TRIPOS>BOND
     1    1    2 1   
     2    1    3 1   
     3    1   13 1   
     4    2   14 1   
     5    3    4 2   
     6    3    5 1   
     7    5    6 1   
     8    5   10 1   
     9    5   15 1   
    10    6    7 1   
    11    6   16 1   
    12    6   17 1   
    13    7    8 1   
    14    7    9 1   
    15    7   18 1   
    16    8   19 1   
    17    8   20 1   
    18    8   21 1   
    19    9   22 1   
    20    9   23 1   
    21    9   24 1   
    22   10   11 1   
    23   10   12 1   
@<TRIPOS>SUBSTRUCTURE
     1 HMI         1 TEMP              0 ****  ****    0 ROOT
