@<TRIPOS>MOLECULE
HMI
   24    23     1     0     0
SMALL
bcc


@<TRIPOS>ATOM
      1 N           2.6400    0.7660   -1.5750 n         1 HMI     -0.368400
      2 OH          3.9990    0.9190   -1.4990 oh        1 HMI     -0.459100
      3 C1          1.8430    0.9220   -0.4110 c         1 HMI      0.621100
      4 O1          2.3660    1.1930    0.6510 o         1 HMI     -0.647100
      5 CA          0.3420    0.7580   -0.4950 c3        1 HMI     -0.269700
      6 CB         -0.1600    0.0620    0.7510 c3        1 HMI     -0.042400
      7 CG         -1.2510   -0.9170    0.3770 c3        1 HMI     -0.083700
      8 CD1        -0.7840   -2.3270    0.6640 c3        1 HMI     -0.081600
      9 CD2        -2.4940   -0.6230    1.1880 c3        1 HMI     -0.081600
     10 C          -0.3090    2.1190   -0.6090 c         1 HMI      0.922600
     11 O           0.0030    3.0350    0.1970 o         1 HMI     -0.826800
     12 OXT        -1.1550    2.3380   -1.5150 o         1 HMI     -0.826800
     13 HN          2.2470    0.5640   -2.3740 hn        1 HMI      0.350500
     14 HOH         4.3270    1.0620   -2.3140 ho        1 HMI      0.412000
     15 HA          0.1160    0.2230   -1.2800 hc        1 HMI      0.076700
     16 HB1         0.5780   -0.4190    1.1760 hc        1 HMI      0.035200
     17 HB2        -0.5180    0.7260    1.3730 hc        1 HMI      0.035200
     18 HG         -1.4550   -0.8300   -0.5740 hc        1 HMI      0.101700
     19 HD11       -1.5130   -2.9560    0.4850 hc        1 HMI      0.022200
     20 HD12       -0.5160   -2.3970    1.6040 hc        1 HMI      0.022200
     21 HD13       -0.0190   -2.5410    0.0900 hc        1 HMI      0.022200
     22 HD21       -2.2730   -0.6430    2.1430 hc        1 HMI      0.022200
     23 HD22       -3.1770   -1.2980    0.9960 hc        1 HMI      0.022200
     24 HD23       -2.8360    0.2650    0.9510 hc        1 HMI      0.022200
@<TRIPOS>BOND
     1    1    2 1   
     2    1    3 1   
     3    1   13 1   
     4    2   14 1   
     5    3    4 2   
     6    3    5 1   
     7    5    6 1   
     8    5   10 1   
     9    5   15 1   
    10    6    7 1   
    11    6   16 1   
    12    6   17 1   
    13    7    8 1   
    14    7    9 1   
    15    7   18 1   
    16    8   19 1   
    17    8   20 1   
    18    8   21 1   
    19    9   22 1   
    20    9   23 1   
    21    9   24 1   
    22   10   11 1   
    23   10   12 1   
@<TRIPOS>SUBSTRUCTURE
     1 HMI         1 TEMP              0 ****  ****    0 ROOT
