@<TRIPOS>MOLECULE
HMI
   25    24     1     0     0
SMALL
bcc


@<TRIPOS>ATOM
      1 N          -0.0180   -0.4680   -0.0560 n         1 HMI     -0.357400
      2 OH          1.2780   -0.7600    0.0790 oh        1 HMI     -0.431100
      3 C1         -0.6140    0.1350    1.1020 c         1 HMI      0.579100
      4 O1          0.0890    0.6600    1.9740 o         1 HMI     -0.517100
      5 CA         -2.1360    0.2190    1.1050 c3        1 HMI     -0.226700
      6 CB         -2.6400    0.0100    2.5280 c3        1 HMI     -0.065400
      7 CG         -4.1370   -0.2570    2.5860 c3        1 HMI     -0.072700
      8 CD1        -4.4770   -1.6580    2.1250 c3        1 HMI     -0.091600
      9 CD2        -4.6360   -0.0400    4.0010 c3        1 HMI     -0.091600
     10 C          -2.5690    1.5560    0.5480 c         1 HMI      0.634100
     11 O          -2.3230    1.8370   -0.7660 oh        1 HMI     -0.576100
     12 OXT        -3.1720    2.4480    1.1390 o         1 HMI     -0.463000
     13 HN         -0.4900   -1.3250   -0.3280 hn        1 HMI      0.297500
     14 HOH         1.7510    0.0960    0.0630 ho        1 HMI      0.439000
     15 HA         -2.5790   -0.5770    0.4400 hc        1 HMI      0.085700
     16 HB1        -2.0850   -0.8500    2.9880 hc        1 HMI      0.071200
     17 HB2        -2.3990    0.9300    3.1260 hc        1 HMI      0.071200
     18 HG         -4.6540    0.4860    1.9120 hc        1 HMI      0.063700
     19 HD11       -3.9610   -2.4180    2.7600 hc        1 HMI      0.036700
     20 HD12       -5.5790   -1.8280    2.1980 hc        1 HMI      0.036700
     21 HD13       -4.1710   -1.8170    1.0630 hc        1 HMI      0.036700
     22 HD21       -4.1130   -0.7250    4.7110 hc        1 HMI      0.036700
     23 HD22       -4.4520    1.0140    4.3220 hc        1 HMI      0.036700
     24 HD23       -5.7330   -0.2410    4.0570 hc        1 HMI      0.036700
     25 H2         -1.8050    1.1300   -1.1750 ho        1 HMI      0.432000
@<TRIPOS>BOND
     1    1    2 1   
     2    1    3 1   
     3    1   13 1   
     4    2   14 1   
     5    3    4 2   
     6    3    5 1   
     7    5    6 1   
     8    5   10 1   
     9    5   15 1   
    10    6    7 1   
    11    6   16 1   
    12    6   17 1   
    13    7    8 1   
    14    7    9 1   
    15    7   18 1   
    16    8   19 1   
    17    8   20 1   
    18    8   21 1   
    19    9   22 1   
    20    9   23 1   
    21    9   24 1   
    22   10   11 1   
    23   10   12 2   
    24   11   25 1   
@<TRIPOS>SUBSTRUCTURE
     1 HMI         1 TEMP              0 ****  ****    0 ROOT
