@<TRIPOS>MOLECULE
HMI
   25    24     1     0     0
SMALL
bcc


@<TRIPOS>ATOM
      1 N          -0.0270   -0.5160   -0.0580 n         1 HMI     -0.357400
      2 OH          1.2600   -0.8480    0.0750 oh        1 HMI     -0.431100
      3 C1         -0.6080    0.0880    1.1070 c         1 HMI      0.579100
      4 O1          0.1090    0.5820    1.9860 o         1 HMI     -0.517100
      5 CA         -2.1270    0.2140    1.1100 c3        1 HMI     -0.226700
      6 CB         -2.6390   -0.0020    2.5290 c3        1 HMI     -0.065400
      7 CG         -4.1430   -0.2280    2.5820 c3        1 HMI     -0.072700
      8 CD1        -4.5210   -1.6120    2.0990 c3        1 HMI     -0.091600
      9 CD2        -4.6370   -0.0180    3.9990 c3        1 HMI     -0.091600
     10 C          -2.5210    1.5710    0.5730 c         1 HMI      0.634100
     11 O          -2.2630    1.8660   -0.7350 oh        1 HMI     -0.576100
     12 OXT        -3.1020    2.4700    1.1760 o         1 HMI     -0.463000
     13 HN         -1.7630    1.1520   -1.1540 ho        1 HMI      0.432000
     14 HOH         1.7570   -0.0050    0.0710 ho        1 HMI      0.439000
     15 HA         -2.5910   -0.5590    0.4330 hc        1 HMI      0.085700
     16 HB1        -2.1080   -0.8830    2.9770 hc        1 HMI      0.071200
     17 HB2        -2.3730    0.9020    3.1410 hc        1 HMI      0.071200
     18 HG         -4.6370    0.5390    1.9180 hc        1 HMI      0.063700
     19 HD11       -4.0270   -2.3960    2.7240 hc        1 HMI      0.036700
     20 HD12       -4.2170   -1.7640    1.0360 hc        1 HMI      0.036700
     21 HD13       -5.6270   -1.7530    2.1690 hc        1 HMI      0.036700
     22 HD21       -4.1340   -0.7280    4.6990 hc        1 HMI      0.036700
     23 HD22       -4.4250    1.0250    4.3360 hc        1 HMI      0.036700
     24 HD23       -5.7390   -0.1900    4.0510 hc        1 HMI      0.036700
     25 H2         -0.5230   -1.3560   -0.3410 hn        1 HMI      0.297500
@<TRIPOS>BOND
     1    1    2 1   
     2    1    3 1   
     3    1   25 1   
     4    2   14 1   
     5    3    4 2   
     6    3    5 1   
     7    5    6 1   
     8    5   10 1   
     9    5   15 1   
    10    6    7 1   
    11    6   16 1   
    12    6   17 1   
    13    7    8 1   
    14    7    9 1   
    15    7   18 1   
    16    8   19 1   
    17    8   20 1   
    18    8   21 1   
    19    9   22 1   
    20    9   23 1   
    21    9   24 1   
    22   10   11 1   
    23   10   12 2   
    24   11   13 1   
@<TRIPOS>SUBSTRUCTURE
     1 HMI         1 TEMP              0 ****  ****    0 ROOT
