@<TRIPOS>MOLECULE
HMK
   34    34     1     0     0
SMALL
bcc


@<TRIPOS>ATOM
      1 C1         -0.5070   -1.7990   -1.2760 c3        1 HMK     -0.036000
      2 O1          0.8030   -1.7990   -1.2760 os        1 HMK     -0.194000
      3 C2          1.5120   -1.7990    0.1050 c2        1 HMK      0.126000
      4 C3          0.6640   -1.5500    1.3240 c1        1 HMK     -0.196000
      5 C4         -0.8070   -1.0440    1.0920 c2        1 HMK      0.051000
      6 C5         -1.2060   -0.8970   -0.2380 c3        1 HMK      0.090000
      7 C6          2.8090   -2.2270    0.2500 c2        1 HMK     -0.241000
      8 C7          3.3470   -2.4330    1.5460 c1        1 HMK      0.118000
      9 C8          2.5310   -2.1930    2.7190 c1        1 HMK     -0.185000
     10 C9          1.1900   -1.7510    2.5760 c2        1 HMK     -0.040000
     11 O2         -0.9240    0.3070    1.7160 os        1 HMK     -0.186000
     12 O5         -2.5890   -1.1430   -0.3080 oh        1 HMK     -0.300000
     13 O6          3.8890   -3.7180    1.7550 oh        1 HMK     -0.246000
     14 C10        -0.8900    1.3160    0.5990 c2        1 HMK      0.094000
     15 C11        -0.9560    0.5980   -0.6100 c2        1 HMK     -0.160000
     16 C12        -0.9940    2.7100    0.5900 c1        1 HMK     -0.133000
     17 C13        -1.1640    3.3950   -0.6280 c1        1 HMK      0.008500
     18 C14        -1.2290    2.6830   -1.8260 c1        1 HMK      0.008500
     19 C15        -1.1240    1.2790   -1.8180 c1        1 HMK     -0.032000
     20 O3         -1.4260    4.7660   -0.9170 os        1 HMK     -0.215500
     21 C16        -1.6560    4.8810   -2.2970 c3        1 HMK      0.100000
     22 O4         -1.5000    3.6100   -2.8730 os        1 HMK     -0.215500
     23 H11        -0.8060   -2.7160   -1.1260 h1        1 HMK      0.108000
     24 H12A       -0.8070   -1.5240   -2.1630 h1        1 HMK      0.108000
     25 H4         -1.4240   -1.6540    1.5400 h4        1 HMK      0.125000
     26 H6          3.3600   -2.3900   -0.5390 ha        1 HMK      0.155000
     27 H8          2.9040   -2.3350    3.6100 ha        1 HMK      0.156000
     28 H9          0.6430   -1.5890    3.3680 ha        1 HMK      0.145000
     29 HO5        -2.7360   -2.0180   -0.2910 ho        1 HMK      0.204000
     30 HO6         4.7750   -3.6660    1.7690 ho        1 HMK      0.223000
     31 H12        -0.9440    3.2090    1.4270 ha        1 HMK      0.175000
     32 H15        -1.1640    0.7820   -2.6570 ha        1 HMK      0.162000
     33 H161       -1.0110    5.5020   -2.6880 h2        1 HMK      0.112000
     34 H162       -2.5630    5.2060   -2.4550 h2        1 HMK      0.112000
@<TRIPOS>BOND
     1    1    2 1   
     2    1    6 1   
     3    1   23 1   
     4    1   24 1   
     5    2    3 1   
     6    3    4 1   
     7    3    7 1   
     8    4   10 1   
     9    5    6 1   
    10    5   11 1   
    11    5   25 1   
    12    6   12 1   
    13    6   15 1   
    14    7    8 1   
    15    7   26 1   
    16    8   13 1   
    17    9   10 1   
    18    9   27 1   
    19   10   28 1   
    20   11   14 1   
    21   12   29 1   
    22   13   30 1   
    23   14   15 1   
    24   14   16 1   
    25   15   19 1   
    26   16   31 1   
    27   17   18 1   
    28   17   20 1   
    29   18   22 1   
    30   19   32 1   
    31   20   21 1   
    32   21   22 1   
    33   21   33 1   
    34   21   34 1   
@<TRIPOS>SUBSTRUCTURE
     1 HMK         1 TEMP              0 ****  ****    0 ROOT
