@<TRIPOS>MOLECULE
HMK
   34    38     1     0     0
SMALL
bcc


@<TRIPOS>ATOM
      1 C1          0.1080   -0.2440   -0.2710 c3        1 HMK      0.115400
      2 O1          1.4720    0.0570    0.0270 os        1 HMK     -0.313900
      3 C2          1.7470    0.1070    1.3820 ca        1 HMK      0.166100
      4 C3          1.1020   -0.7340    2.3000 ca        1 HMK     -0.193300
      5 C4          0.1380   -1.7630    1.8340 c3        1 HMK      0.205400
      6 C5         -0.3970   -1.5360    0.3780 c3        1 HMK      0.169100
      7 C6          2.7410    1.0080    1.7860 ca        1 HMK     -0.240000
      8 C7          3.0680    1.0630    3.1460 ca        1 HMK      0.159100
      9 C8          2.4110    0.2520    4.0900 ca        1 HMK     -0.184000
     10 C9          1.4380   -0.6380    3.6570 ca        1 HMK     -0.042000
     11 O2         -1.0220   -1.7900    2.7290 os        1 HMK     -0.310900
     12 O5          0.0250   -2.6670   -0.3670 oh        1 HMK     -0.574800
     13 O6          4.0320    1.9120    3.6350 oh        1 HMK     -0.493100
     14 C10        -2.1610   -1.6370    1.9600 ca        1 HMK      0.149100
     15 C11        -1.8900   -1.4880    0.5810 ca        1 HMK     -0.224300
     16 C12        -3.4520   -1.6400    2.5120 ca        1 HMK     -0.133000
     17 C13        -4.4540   -1.4840    1.5680 ca        1 HMK      0.101100
     18 C14        -4.1950   -1.3360    0.1780 ca        1 HMK      0.013100
     19 C15        -2.9170   -1.3340   -0.3530 ca        1 HMK     -0.052000
     20 O3         -5.8240   -1.4450    1.7850 os        1 HMK     -0.328900
     21 C16        -6.4510   -1.2680    0.4920 c3        1 HMK      0.322200
     22 O4         -5.4040   -1.2020   -0.5020 os        1 HMK     -0.332900
     23 H11         0.1080   -0.3400   -1.3900 h1        1 HMK      0.070700
     24 H12A       -0.5340    0.6190    0.0500 h1        1 HMK      0.070700
     25 H4          0.5920   -2.7920    1.9100 h1        1 HMK      0.107700
     26 H6          3.2430    1.6430    1.0440 ha        1 HMK      0.153000
     27 H8          2.6800    0.3330    5.1520 ha        1 HMK      0.155000
     28 H9          0.9140   -1.2820    4.3820 ha        1 HMK      0.150000
     29 HO5        -0.5080   -2.6900   -1.1720 ho        1 HMK      0.410000
     30 HO6         4.4080    2.4020    2.8890 ho        1 HMK      0.423000
     31 H12        -3.6380   -1.7570    3.5840 ha        1 HMK      0.177000
     32 H15        -2.7270   -1.2200   -1.4270 ha        1 HMK      0.155000
     33 H161       -7.0050   -0.2980    0.4960 h2        1 HMK      0.074700
     34 H162       -7.0890   -2.1620    0.2820 h2        1 HMK      0.074700
@<TRIPOS>BOND
     1    1    2 1   
     2    1    6 1   
     3    1   23 1   
     4    1   24 1   
     5    2    3 1   
     6    3    4 ar  
     7    3    7 ar  
     8    4    5 1   
     9    4   10 ar  
    10    5    6 1   
    11    5   11 1   
    12    5   25 1   
    13    6   12 1   
    14    6   15 1   
    15    7    8 ar  
    16    7   26 1   
    17    8    9 ar  
    18    8   13 1   
    19    9   10 ar  
    20    9   27 1   
    21   10   28 1   
    22   11   14 1   
    23   12   29 1   
    24   13   30 1   
    25   14   15 ar  
    26   14   16 ar  
    27   15   19 ar  
    28   16   17 ar  
    29   16   31 1   
    30   17   18 ar  
    31   17   20 1   
    32   18   19 ar  
    33   18   22 1   
    34   19   32 1   
    35   20   21 1   
    36   21   22 1   
    37   21   33 1   
    38   21   34 1   
@<TRIPOS>SUBSTRUCTURE
     1 HMK         1 TEMP              0 ****  ****    0 ROOT
