@<TRIPOS>MOLECULE
HMK
   34    38     1     0     0
SMALL
bcc


@<TRIPOS>ATOM
      1 C1          0.6990   -1.8610   -0.4670 c3        1 HMK      0.115400
      2 O1          2.1240   -1.9170   -0.4110 os        1 HMK     -0.313900
      3 C2          2.7220   -0.6850   -0.2170 ca        1 HMK      0.166100
      4 C3          2.1280    0.3110    0.5720 ca        1 HMK     -0.193300
      5 C4          0.8530    0.0470    1.2860 c3        1 HMK      0.205400
      6 C5          0.0570   -1.1930    0.7530 c3        1 HMK      0.169100
      7 C6          3.9780   -0.4980   -0.8100 ca        1 HMK     -0.240000
      8 C7          4.6270    0.7260   -0.6090 ca        1 HMK      0.159100
      9 C8          4.0350    1.7520    0.1520 ca        1 HMK     -0.184000
     10 C9          2.7940    1.5320    0.7350 ca        1 HMK     -0.042000
     11 O2         -0.0250    1.2150    1.1700 os        1 HMK     -0.310900
     12 O5         -0.0130   -2.1020    1.8410 oh        1 HMK     -0.574800
     13 O6          5.8610    0.9990   -1.1470 oh        1 HMK     -0.493100
     14 C10        -1.2390    0.7910    0.6650 ca        1 HMK      0.149100
     15 C11        -1.2820   -0.5960    0.3990 ca        1 HMK     -0.224300
     16 C12        -2.3170    1.6650    0.4510 ca        1 HMK     -0.133000
     17 C13        -3.4450    1.0360   -0.0510 ca        1 HMK      0.101100
     18 C14        -3.5010   -0.3590   -0.3200 ca        1 HMK      0.013100
     19 C15        -2.4300   -1.2100   -0.1050 ca        1 HMK     -0.052000
     20 O3         -4.6670    1.6130   -0.3670 os        1 HMK     -0.328900
     21 C16        -5.5220    0.5490   -0.8510 c3        1 HMK      0.322200
     22 O4         -4.7650   -0.6810   -0.8120 os        1 HMK     -0.332900
     23 H11         0.4040   -2.9440   -0.5230 h1        1 HMK      0.070700
     24 H12A        0.3920   -1.3210   -1.4010 h1        1 HMK      0.070700
     25 H4          1.0370   -0.0730    2.3920 h1        1 HMK      0.107700
     26 H6          4.4290   -1.3000   -1.4090 ha        1 HMK      0.153000
     27 H8          4.5640    2.7070    0.2760 ha        1 HMK      0.155000
     28 H9          2.3170    2.3240    1.3350 ha        1 HMK      0.150000
     29 HO5        -0.7120   -2.7350    1.6360 ho        1 HMK      0.410000
     30 HO6         6.1580    0.2160   -1.6340 ho        1 HMK      0.423000
     31 H12        -2.2620    2.7370    0.6650 ha        1 HMK      0.177000
     32 H15        -2.4830   -2.2850   -0.3160 ha        1 HMK      0.155000
     33 H161       -6.3960    0.4550   -0.1590 h2        1 HMK      0.074700
     34 H162       -5.7960    0.7690   -1.9120 h2        1 HMK      0.074700
@<TRIPOS>BOND
     1    1    2 1   
     2    1    6 1   
     3    1   23 1   
     4    1   24 1   
     5    2    3 1   
     6    3    4 ar  
     7    3    7 ar  
     8    4    5 1   
     9    4   10 ar  
    10    5    6 1   
    11    5   11 1   
    12    5   25 1   
    13    6   12 1   
    14    6   15 1   
    15    7    8 ar  
    16    7   26 1   
    17    8    9 ar  
    18    8   13 1   
    19    9   10 ar  
    20    9   27 1   
    21   10   28 1   
    22   11   14 1   
    23   12   29 1   
    24   13   30 1   
    25   14   15 ar  
    26   14   16 ar  
    27   15   19 ar  
    28   16   17 ar  
    29   16   31 1   
    30   17   18 ar  
    31   17   20 1   
    32   18   19 ar  
    33   18   22 1   
    34   19   32 1   
    35   20   21 1   
    36   21   22 1   
    37   21   33 1   
    38   21   34 1   
@<TRIPOS>SUBSTRUCTURE
     1 HMK         1 TEMP              0 ****  ****    0 ROOT
