@<TRIPOS>MOLECULE
HMK
   34    38     1     0     0
SMALL
bcc


@<TRIPOS>ATOM
      1 C1          0.1670   -0.3960   -0.2940 c3        1 HMK      0.115400
      2 O1          1.5390   -0.1350    0.0000 os        1 HMK     -0.313900
      3 C2          1.8090   -0.0360    1.3530 ca        1 HMK      0.166100
      4 C3          1.1270   -0.8110    2.3030 ca        1 HMK     -0.193300
      5 C4          0.1270   -1.8220    1.8750 c3        1 HMK      0.205400
      6 C5         -0.3900   -1.6390    0.4070 c3        1 HMK      0.169100
      7 C6          2.8340    0.8440    1.7250 ca        1 HMK     -0.240000
      8 C7          3.1550    0.9460    3.0830 ca        1 HMK      0.159100
      9 C8          2.4620    0.2030    4.0580 ca        1 HMK     -0.184000
     10 C9          1.4580   -0.6680    3.6560 ca        1 HMK     -0.042000
     11 O2         -1.0380   -1.7650    2.7610 os        1 HMK     -0.310900
     12 O5         -0.0080   -2.8170   -0.2850 oh        1 HMK     -0.574800
     13 O6          4.1480    1.7780    3.5420 oh        1 HMK     -0.493100
     14 C10        -2.1660   -1.6040    1.9780 ca        1 HMK      0.149100
     15 C11        -1.8820   -1.5260    0.5960 ca        1 HMK     -0.224300
     16 C12        -3.4590   -1.5340    2.5200 ca        1 HMK     -0.133000
     17 C13        -4.4490   -1.3810    1.5630 ca        1 HMK      0.101100
     18 C14        -4.1770   -1.3040    0.1700 ca        1 HMK      0.013100
     19 C15        -2.8960   -1.3750   -0.3510 ca        1 HMK     -0.052000
     20 O3         -5.8180   -1.2810    1.7680 os        1 HMK     -0.328900
     21 C16        -6.4310   -1.1380    0.4630 c3        1 HMK      0.322200
     22 O4         -5.3760   -1.1550   -0.5250 os        1 HMK     -0.332900
     23 H11         0.1700   -0.5410   -1.4090 h1        1 HMK      0.070700
     24 H12A       -0.4430    0.5030   -0.0160 h1        1 HMK      0.070700
     25 H4          0.5400   -2.8630    1.9990 h1        1 HMK      0.107700
     26 H6          3.3650    1.4260    0.9600 ha        1 HMK      0.153000
     27 H8          2.7280    0.3200    5.1170 ha        1 HMK      0.155000
     28 H9          0.9060   -1.2590    4.4050 ha        1 HMK      0.150000
     29 HO5        -0.5360   -2.8550   -1.0930 ho        1 HMK      0.410000
     30 HO6         4.5470    2.2210    2.7790 ho        1 HMK      0.423000
     31 H12        -3.6560   -1.5960    3.5950 ha        1 HMK      0.177000
     32 H15        -2.6960   -1.3150   -1.4280 ha        1 HMK      0.155000
     33 H161       -7.1010   -2.0160    0.2880 h2        1 HMK      0.074700
     34 H162       -6.9470   -0.1480    0.4210 h2        1 HMK      0.074700
@<TRIPOS>BOND
     1    1    2 1   
     2    1    6 1   
     3    1   23 1   
     4    1   24 1   
     5    2    3 1   
     6    3    4 ar  
     7    3    7 ar  
     8    4    5 1   
     9    4   10 ar  
    10    5    6 1   
    11    5   11 1   
    12    5   25 1   
    13    6   12 1   
    14    6   15 1   
    15    7    8 ar  
    16    7   26 1   
    17    8    9 ar  
    18    8   13 1   
    19    9   10 ar  
    20    9   27 1   
    21   10   28 1   
    22   11   14 1   
    23   12   29 1   
    24   13   30 1   
    25   14   15 ar  
    26   14   16 ar  
    27   15   19 ar  
    28   16   17 ar  
    29   16   31 1   
    30   17   18 ar  
    31   17   20 1   
    32   18   19 ar  
    33   18   22 1   
    34   19   32 1   
    35   20   21 1   
    36   21   22 1   
    37   21   33 1   
    38   21   34 1   
@<TRIPOS>SUBSTRUCTURE
     1 HMK         1 TEMP              0 ****  ****    0 ROOT
