@<TRIPOS>MOLECULE
HMM
   25    26     1     0     0
SMALL
bcc


@<TRIPOS>ATOM
      1 C31        -0.9170    0.3420    3.3880 c3        1 HMM      0.103300
      2 N07        -0.4140    0.1150    2.0730 n         1 HMM     -0.506400
      3 C08         0.8810   -0.3810    1.7650 c         1 HMM      0.738500
      4 O09         1.8330   -0.4740    2.5490 o         1 HMM     -0.575500
      5 N10         0.8860   -0.8350    0.3560 n         1 HMM     -0.239400
      6 N11        -0.3940   -0.5870   -0.1690 n         1 HMM     -0.259400
      7 C12        -1.2110    0.0240    0.8990 c         1 HMM      0.746500
      8 O13        -2.4000    0.3450    0.7960 o         1 HMM     -0.575500
      9 C14         2.0720   -0.3790   -0.3890 c3        1 HMM      0.051200
     10 C15         1.8450    0.7500   -1.3380 c2        1 HMM     -0.198200
     11 C16         0.6320    0.9690   -1.8500 c2        1 HMM     -0.167200
     12 C17        -0.5340    0.1030   -1.4730 c3        1 HMM      0.069900
     13 C18        -0.7600   -0.9480   -2.5890 c3        1 HMM      0.143400
     14 O19        -1.2020   -0.2120   -3.7190 oh        1 HMM     -0.605800
     15 H311       -1.2940   -0.6130    3.8450 h1        1 HMM      0.060033
     16 H312       -0.0870    0.7500    4.0250 h1        1 HMM      0.060033
     17 H313       -1.7610    1.0800    3.3300 h1        1 HMM      0.060033
     18 H141        2.8850   -0.1220    0.3500 h1        1 HMM      0.089700
     19 H142        2.4130   -1.2820   -0.9770 h1        1 HMM      0.089700
     20 H151        2.7270    1.3530   -1.5950 ha        1 HMM      0.149000
     21 H161        0.4090    1.7530   -2.5880 ha        1 HMM      0.160000
     22 H171       -1.4720    0.7400   -1.4280 h1        1 HMM      0.109700
     23 H181        0.1970   -1.4800   -2.8320 h1        1 HMM      0.044200
     24 H182       -1.5390   -1.6920   -2.2760 h1        1 HMM      0.044200
     25 HO19       -1.5340   -0.8580   -4.3530 ho        1 HMM      0.410000
@<TRIPOS>BOND
     1    1    2 1   
     2    1   15 1   
     3    1   16 1   
     4    1   17 1   
     5    2    3 1   
     6    2    7 1   
     7    3    4 2   
     8    3    5 1   
     9    5    6 1   
    10    5    9 1   
    11    6    7 1   
    12    6   12 1   
    13    7    8 2   
    14    9   10 1   
    15    9   18 1   
    16    9   19 1   
    17   10   11 2   
    18   10   20 1   
    19   11   12 1   
    20   11   21 1   
    21   12   13 1   
    22   12   22 1   
    23   13   14 1   
    24   13   23 1   
    25   13   24 1   
    26   14   25 1   
@<TRIPOS>SUBSTRUCTURE
     1 HMM         1 TEMP              0 ****  ****    0 ROOT
