@<TRIPOS>MOLECULE
HMM
   25    26     1     0     0
SMALL
bcc


@<TRIPOS>ATOM
      1 C31         0.0690    0.4350    0.0090 c3        1 HMM      0.103300
      2 N07         1.4670    0.1530    0.0370 n         1 HMM     -0.506400
      3 C08         2.2290   -0.0970    1.2100 c         1 HMM      0.738500
      4 O09         1.8660    0.1110    2.3730 o         1 HMM     -0.575500
      5 N10         3.5140   -0.7140    0.8100 n         1 HMM     -0.239400
      6 N11         3.5170   -0.8060   -0.5920 n         1 HMM     -0.259400
      7 C12         2.2410   -0.2490   -1.0850 c         1 HMM      0.746500
      8 O13         1.8930   -0.1980   -2.2700 o         1 HMM     -0.575500
      9 C14         4.6730   -0.1170    1.4970 c3        1 HMM      0.051200
     10 C15         5.5040    0.8100    0.6760 c2        1 HMM     -0.198200
     11 C16         5.5210    0.7050   -0.6550 c2        1 HMM     -0.167200
     12 C17         4.6930   -0.3300   -1.3580 c3        1 HMM      0.069900
     13 C18         5.5970   -1.5380   -1.7150 c3        1 HMM      0.143400
     14 O19         6.4980   -1.0580   -2.7010 oh        1 HMM     -0.605800
     15 H311       -0.5330   -0.5120    0.0650 h1        1 HMM      0.060033
     16 H312       -0.1730    0.9680   -0.9500 h1        1 HMM      0.060033
     17 H313       -0.1850    1.0840    0.8890 h1        1 HMM      0.060033
     18 H141        5.3120   -0.9970    1.8070 h1        1 HMM      0.089700
     19 H142        4.3120    0.3940    2.4360 h1        1 HMM      0.089700
     20 H151        6.1020    1.5460    1.2300 ha        1 HMM      0.149000
     21 H161        6.1460    1.3260   -1.3120 ha        1 HMM      0.160000
     22 H171        4.3160    0.0980   -2.3390 h1        1 HMM      0.109700
     23 H181        6.1670   -1.8850   -0.8140 h1        1 HMM      0.044200
     24 H182        4.9810   -2.3820   -2.1230 h1        1 HMM      0.044200
     25 HO19        6.9320   -1.8340   -3.0740 ho        1 HMM      0.410000
@<TRIPOS>BOND
     1    1    2 1   
     2    1   15 1   
     3    1   16 1   
     4    1   17 1   
     5    2    3 1   
     6    2    7 1   
     7    3    4 2   
     8    3    5 1   
     9    5    6 1   
    10    5    9 1   
    11    6    7 1   
    12    6   12 1   
    13    7    8 2   
    14    9   10 1   
    15    9   18 1   
    16    9   19 1   
    17   10   11 2   
    18   10   20 1   
    19   11   12 1   
    20   11   21 1   
    21   12   13 1   
    22   12   22 1   
    23   13   14 1   
    24   13   23 1   
    25   13   24 1   
    26   14   25 1   
@<TRIPOS>SUBSTRUCTURE
     1 HMM         1 TEMP              0 ****  ****    0 ROOT
