@<TRIPOS>MOLECULE
HMM
   25    26     1     0     0
SMALL
bcc


@<TRIPOS>ATOM
      1 C31         0.0640    0.4240    0.0070 c3        1 HMM      0.103300
      2 N07         1.4630    0.1450    0.0340 n         1 HMM     -0.506400
      3 C08         2.2220   -0.1270    1.2030 c         1 HMM      0.738500
      4 O09         1.8560    0.0560    2.3700 o         1 HMM     -0.575500
      5 N10         3.5100   -0.7320    0.7950 n         1 HMM     -0.239400
      6 N11         3.5170   -0.7960   -0.6090 n         1 HMM     -0.259400
      7 C12         2.2410   -0.2320   -1.0940 c         1 HMM      0.746500
      8 O13         1.8950   -0.1580   -2.2790 o         1 HMM     -0.575500
      9 C14         4.6660   -0.1470    1.4970 c3        1 HMM      0.051200
     10 C15         5.4970    0.7990    0.6970 c2        1 HMM     -0.198200
     11 C16         5.5160    0.7210   -0.6360 c2        1 HMM     -0.167200
     12 C17         4.6940   -0.3010   -1.3620 c3        1 HMM      0.069900
     13 C18         5.6010   -1.4990   -1.7410 c3        1 HMM      0.143400
     14 O19         6.5040   -0.9970   -2.7150 oh        1 HMM     -0.605800
     15 H311       -0.1770    0.9750   -0.9410 h1        1 HMM      0.060033
     16 H312       -0.5350   -0.5260    0.0430 h1        1 HMM      0.060033
     17 H313       -0.1940    1.0540    0.9000 h1        1 HMM      0.060033
     18 H141        5.3070   -1.0310    1.7910 h1        1 HMM      0.089700
     19 H142        4.3010    0.3450    2.4450 h1        1 HMM      0.089700
     20 H151        6.0910    1.5260    1.2680 ha        1 HMM      0.149000
     21 H161        6.1420    1.3570   -1.2790 ha        1 HMM      0.160000
     22 H171        4.3180    0.1460   -2.3350 h1        1 HMM      0.109700
     23 H181        6.1700   -1.8630   -0.8460 h1        1 HMM      0.044200
     24 H182        4.9890   -2.3370   -2.1670 h1        1 HMM      0.044200
     25 HO19        6.9410   -1.7640   -3.1030 ho        1 HMM      0.410000
@<TRIPOS>BOND
     1    1    2 1   
     2    1   15 1   
     3    1   16 1   
     4    1   17 1   
     5    2    3 1   
     6    2    7 1   
     7    3    4 2   
     8    3    5 1   
     9    5    6 1   
    10    5    9 1   
    11    6    7 1   
    12    6   12 1   
    13    7    8 2   
    14    9   10 1   
    15    9   18 1   
    16    9   19 1   
    17   10   11 2   
    18   10   20 1   
    19   11   12 1   
    20   11   21 1   
    21   12   13 1   
    22   12   22 1   
    23   13   14 1   
    24   13   23 1   
    25   13   24 1   
    26   14   25 1   
@<TRIPOS>SUBSTRUCTURE
     1 HMM         1 TEMP              0 ****  ****    0 ROOT
