@<TRIPOS>MOLECULE
HMN
   41    40     1     0     0
SMALL
bcc


@<TRIPOS>ATOM
      1 C1          0.1410   -0.4310    4.8700 c         1 HMN      0.896600
      2 O1A         0.1350    0.4970    5.7280 o         1 HMN     -0.827300
      3 O1B        -0.5050   -1.5080    4.9470 o         1 HMN     -0.827300
      4 C2          1.0270   -0.1960    3.6150 c3        1 HMN      0.006100
      5 O2          1.8430    0.9560    3.7620 oh        1 HMN     -0.662800
      6 C3          0.1310   -0.0450    2.3910 c3        1 HMN     -0.127400
      7 C4          0.9210    0.0140    1.0910 c3        1 HMN      0.135100
      8 O4          1.5550    1.2750    0.9120 oh        1 HMN     -0.640800
      9 C5         -0.0050   -0.2100   -0.1410 c3        1 HMN      0.069700
     10 N2         -0.9330    0.8850   -0.3160 n         1 HMN     -0.547900
     11 C10        -2.2850    0.6920   -0.5140 c         1 HMN      0.647100
     12 O10        -2.7400   -0.4000   -0.9170 o         1 HMN     -0.628100
     13 C11        -3.1930    1.8790   -0.2890 c3        1 HMN     -0.178100
     14 C6          0.8830   -0.4350   -1.3960 c3        1 HMN      0.103100
     15 O6          1.8380   -1.4530   -1.1510 oh        1 HMN     -0.597800
     16 C7          0.0500   -0.8380   -2.6300 c3        1 HMN      0.064100
     17 O7          0.4200   -2.1350   -3.0670 oh        1 HMN     -0.601800
     18 C8          0.2250    0.1670   -3.7860 c3        1 HMN      0.114100
     19 O8          0.0150    1.4990   -3.3640 oh        1 HMN     -0.583800
     20 C9         -0.7280   -0.2050   -4.9290 c3        1 HMN      0.096400
     21 O9         -0.1000    0.1780   -6.1420 oh        1 HMN     -0.598800
     22 HC2         1.7300   -1.0610    3.4790 h1        1 HMN      0.044700
     23 HO2         1.5110    1.4430    4.5360 ho        1 HMN      0.435000
     24 HC31       -0.4760    0.8900    2.5010 hc        1 HMN      0.060200
     25 HC32       -0.5670   -0.9230    2.3770 hc        1 HMN      0.060200
     26 HC4         1.7110   -0.7900    1.0810 h1        1 HMN      0.056700
     27 HO4         1.9520    1.5110    1.7640 ho        1 HMN      0.443000
     28 HC5        -0.5900   -1.1620    0.0410 h1        1 HMN      0.078700
     29 HN2        -0.6280    1.7510    0.0740 hn        1 HMN      0.325500
     30 H111       -4.2220    1.6160   -0.6330 hc        1 HMN      0.064033
     31 H112       -3.2260    2.1240    0.8010 hc        1 HMN      0.064033
     32 H113       -2.8350    2.7730   -0.8530 hc        1 HMN      0.064033
     33 HC6         1.4960    0.4880   -1.5990 h1        1 HMN      0.110700
     34 HO6         1.3550   -2.2380   -0.8570 ho        1 HMN      0.408000
     35 HC7        -1.0430   -0.9400   -2.3660 h1        1 HMN      0.108700
     36 HO7         1.3770   -2.1300   -3.2110 ho        1 HMN      0.410000
     37 HC8         1.2880    0.1570   -4.1600 h1        1 HMN      0.091700
     38 HO8        -0.8290    1.5240   -2.8960 ho        1 HMN      0.400000
     39 HC91       -0.9100   -1.3140   -4.9280 h1        1 HMN      0.036200
     40 HC92       -1.7040    0.3360   -4.8130 h1        1 HMN      0.036200
     41 HO9        -0.7090   -0.0600   -6.8500 ho        1 HMN      0.392000
@<TRIPOS>BOND
     1    1    2 1   
     2    1    3 1   
     3    1    4 1   
     4    4    5 1   
     5    4    6 1   
     6    4   22 1   
     7    5   23 1   
     8    6    7 1   
     9    6   24 1   
    10    6   25 1   
    11    7    8 1   
    12    7    9 1   
    13    7   26 1   
    14    8   27 1   
    15    9   10 1   
    16    9   14 1   
    17    9   28 1   
    18   10   11 1   
    19   10   29 1   
    20   11   12 2   
    21   11   13 1   
    22   13   30 1   
    23   13   31 1   
    24   13   32 1   
    25   14   15 1   
    26   14   16 1   
    27   14   33 1   
    28   15   34 1   
    29   16   17 1   
    30   16   18 1   
    31   16   35 1   
    32   17   36 1   
    33   18   19 1   
    34   18   20 1   
    35   18   37 1   
    36   19   38 1   
    37   20   21 1   
    38   20   39 1   
    39   20   40 1   
    40   21   41 1   
@<TRIPOS>SUBSTRUCTURE
     1 HMN         1 TEMP              0 ****  ****    0 ROOT
