@<TRIPOS>MOLECULE
HMN
   41    39     1     0     0
SMALL
bcc


@<TRIPOS>ATOM
      1 C1         -3.8810   -2.9240    1.4460 c1        1 HMN      0.316000
      2 O1A        -5.0010   -2.4290    1.2900 o         1 HMN     -0.575000
      3 O1B        -3.6480   -4.0670    1.0370 os        1 HMN     -0.548000
      4 C2         -2.8320   -2.1540    2.0670 c3        1 HMN     -0.056000
      5 O2         -3.3330   -1.5170    3.2050 oh        1 HMN     -0.392000
      6 C3         -2.2960   -1.0590    1.0350 c3        1 HMN     -0.201000
      7 C4         -0.8320   -0.6910    1.3780 c3        1 HMN      0.022000
      8 O4         -0.7950   -0.0130    2.5790 oh        1 HMN     -0.379000
      9 C5         -0.2610    0.1950    0.2820 c3        1 HMN     -0.008000
     10 N2         -0.1430    1.5370    0.7650 n         1 HMN     -0.359000
     11 C10        -1.1190    2.5800    0.3370 c2        1 HMN      0.305000
     12 O10        -1.9230    2.3400   -0.5670 o         1 HMN     -0.414000
     13 C11        -1.0600    3.9780    0.9600 c3        1 HMN     -0.242000
     14 C6          1.1200   -0.3220   -0.1250 c3        1 HMN      0.005000
     15 O6          1.1270   -1.7280   -0.0770 oh        1 HMN     -0.328000
     16 C7          1.4330    0.1300   -1.5110 c3        1 HMN      0.048000
     17 O7          0.6480   -0.5870   -2.4260 oh        1 HMN     -0.340000
     18 C8          2.8940   -0.1140   -1.8030 c3        1 HMN      0.034000
     19 O8          3.6730    0.6420   -0.9350 oh        1 HMN     -0.337000
     20 C9          3.2020    0.2940   -3.2660 c3        1 HMN     -0.055000
     21 O9          4.5770    0.0170   -3.5610 oh        1 HMN     -0.351000
     22 HC2        -2.0980   -2.7530    2.3230 h1        1 HMN      0.084000
     23 HO2        -3.4910   -2.1440    3.8660 ho        1 HMN      0.234000
     24 HC31       -2.8550   -0.2570    1.0920 hc        1 HMN      0.099500
     25 HC32       -2.3350   -1.4270    0.1120 hc        1 HMN      0.099500
     26 HC4        -0.3090   -1.4920    1.4470 h1        1 HMN      0.091000
     27 HO4        -0.3380   -0.4880    3.1720 ho        1 HMN      0.242000
     28 HC5        -0.8380    0.1790   -0.4700 h1        1 HMN      0.119000
     29 HN2         0.5650    1.7680    1.3180 hn        1 HMN      0.236000
     30 H111       -1.8090    4.4900    0.6680 hc        1 HMN      0.103333
     31 H112       -1.0800    3.9020    1.9100 hc        1 HMN      0.103333
     32 H113       -0.2400    4.4190    0.6880 hc        1 HMN      0.103333
     33 HC6         1.7790    0.0210    0.4790 h1        1 HMN      0.106000
     34 HO6         1.8050   -2.0060    0.4380 ho        1 HMN      0.215000
     35 HC7         1.2430    1.0650   -1.5920 h1        1 HMN      0.094000
     36 HO7         0.4450   -0.0640   -3.1160 ho        1 HMN      0.233000
     37 HC8         3.0950   -1.0570   -1.6810 h1        1 HMN      0.113000
     38 HO8         4.5230    0.4730   -1.0830 ho        1 HMN      0.211000
     39 HC91        2.6190   -0.2240   -3.8860 h1        1 HMN      0.084000
     40 HC92        3.0260    1.2780   -3.3840 h1        1 HMN      0.084000
     41 HO9         4.7420    0.2080   -4.4140 ho        1 HMN      0.197000
@<TRIPOS>BOND
     1    1    2 1   
     2    1    4 1   
     3    4    5 1   
     4    4    6 1   
     5    4   22 1   
     6    5   23 1   
     7    6    7 1   
     8    6   24 1   
     9    6   25 1   
    10    7    8 1   
    11    7    9 1   
    12    7   26 1   
    13    8   27 1   
    14    9   10 1   
    15    9   14 1   
    16    9   28 1   
    17   10   11 1   
    18   10   29 1   
    19   11   12 1   
    20   11   13 1   
    21   13   30 1   
    22   13   31 1   
    23   13   32 1   
    24   14   15 1   
    25   14   16 1   
    26   14   33 1   
    27   15   34 1   
    28   16   17 1   
    29   16   18 1   
    30   16   35 1   
    31   17   36 1   
    32   18   19 1   
    33   18   20 1   
    34   18   37 1   
    35   19   38 1   
    36   20   21 1   
    37   20   39 1   
    38   20   40 1   
    39   21   41 1   
@<TRIPOS>SUBSTRUCTURE
     1 HMN         1 TEMP              0 ****  ****    0 ROOT
