@<TRIPOS>MOLECULE
HMN
   42    41     1     0     0
SMALL
bcc


@<TRIPOS>ATOM
      1 C1          0.6040    0.9850    1.2180 c         1 HMN      0.905600
      2 O1A        -0.1400    1.5690    0.3770 o         1 HMN     -0.815800
      3 O1B         0.3380    0.7500    2.4200 o         1 HMN     -0.815800
      4 C2          2.0370    0.5800    0.7370 c3        1 HMN      0.002100
      5 O2          2.9810    0.6450    1.7920 oh        1 HMN     -0.658800
      6 C3          2.4120    1.5790   -0.3430 c3        1 HMN     -0.137400
      7 C4          3.8790    1.6730   -0.7180 c3        1 HMN      0.147100
      8 O4          4.5870    2.4440    0.2390 oh        1 HMN     -0.651800
      9 C5          3.9910    2.4100   -2.0800 c3        1 HMN      0.098500
     10 N2          3.2560    3.7240   -2.0500 n4        1 HMN     -0.674800
     11 C10         1.7970    3.6030   -2.4650 c         1 HMN      0.574100
     12 O10         1.6210    3.1580   -3.5920 o         1 HMN     -0.456100
     13 C11         0.7660    4.0360   -1.4880 c3        1 HMN     -0.221100
     14 C6          5.4530    2.5920   -2.5500 c3        1 HMN      0.099100
     15 O6          5.4220    2.9440   -3.9270 oh        1 HMN     -0.622800
     16 C7          6.2160    3.7300   -1.8450 c3        1 HMN      0.128100
     17 O7          5.7550    4.9870   -2.3120 oh        1 HMN     -0.624800
     18 C8          7.7290    3.5870   -2.0890 c3        1 HMN      0.121100
     19 O8          8.0860    2.2530   -1.7720 oh        1 HMN     -0.606800
     20 C9          8.4910    4.5880   -1.2150 c3        1 HMN      0.092400
     21 O9          9.8600    4.4280   -1.5480 oh        1 HMN     -0.611800
     22 HC2         2.0390   -0.4690    0.3390 h1        1 HMN      0.048700
     23 HO2         2.4700    0.6520    2.6200 ho        1 HMN      0.449000
     24 HC31        1.7890    1.3280   -1.2420 hc        1 HMN      0.056200
     25 HC32        2.0960    2.5850    0.0530 hc        1 HMN      0.056200
     26 HC4         4.3560    0.6610   -0.8240 h1        1 HMN      0.083700
     27 HO4         4.3990    2.0500    1.1090 ho        1 HMN      0.471000
     28 HC5         3.4720    1.7660   -2.8550 hx        1 HMN      0.111700
     29 HN2         3.7370    4.3670   -2.6970 hn        1 HMN      0.468800
     30 H111        0.3420    3.1180   -0.9490 hc        1 HMN      0.134367
     31 H112       -0.0770    4.5140   -2.0500 hc        1 HMN      0.134367
     32 H113        1.1510    4.7410   -0.7140 hc        1 HMN      0.134367
     33 HC6         5.9900    1.6190   -2.3680 h1        1 HMN      0.117700
     34 HO6         5.4840    2.1310   -4.4430 ho        1 HMN      0.430000
     35 HC7         5.9950    3.7200   -0.7400 h1        1 HMN      0.130700
     36 HO7         6.0590    5.0910   -3.2250 ho        1 HMN      0.428000
     37 HC8         7.9580    3.7800   -3.1760 h1        1 HMN      0.057700
     38 HO8         9.0530    2.2300   -1.7170 ho        1 HMN      0.436000
     39 HC91        8.1490    5.6320   -1.4440 h1        1 HMN      0.047700
     40 HC92        8.3250    4.3620   -0.1290 h1        1 HMN      0.047700
     41 HO9        10.3620    5.0030   -0.9590 ho        1 HMN      0.418000
     42 H22         3.3290    4.1040   -1.0980 hn        1 HMN      0.468800
@<TRIPOS>BOND
     1    1    2 1   
     2    1    3 1   
     3    1    4 1   
     4    4    5 1   
     5    4    6 1   
     6    4   22 1   
     7    5   23 1   
     8    6    7 1   
     9    6   24 1   
    10    6   25 1   
    11    7    8 1   
    12    7    9 1   
    13    7   26 1   
    14    8   27 1   
    15    9   10 1   
    16    9   14 1   
    17    9   28 1   
    18   10   11 1   
    19   10   29 1   
    20   10   42 1   
    21   11   12 2   
    22   11   13 1   
    23   13   30 1   
    24   13   31 1   
    25   13   32 1   
    26   14   15 1   
    27   14   16 1   
    28   14   33 1   
    29   15   34 1   
    30   16   17 1   
    31   16   18 1   
    32   16   35 1   
    33   17   36 1   
    34   18   19 1   
    35   18   20 1   
    36   18   37 1   
    37   19   38 1   
    38   20   21 1   
    39   20   39 1   
    40   20   40 1   
    41   21   41 1   
@<TRIPOS>SUBSTRUCTURE
     1 HMN         1 TEMP              0 ****  ****    0 ROOT
