@<TRIPOS>MOLECULE
HMN
   42    41     1     0     0
SMALL
bcc


@<TRIPOS>ATOM
      1 C1          0.5830    1.0460    1.2290 c         1 HMN      0.905600
      2 O1A        -0.1540    1.6270    0.3800 o         1 HMN     -0.815800
      3 O1B         0.3120    0.8260    2.4330 o         1 HMN     -0.815800
      4 C2          2.0130    0.6230    0.7550 c3        1 HMN      0.002100
      5 O2          2.9550    0.6910    1.8120 oh        1 HMN     -0.658800
      6 C3          2.3990    1.6060   -0.3340 c3        1 HMN     -0.137400
      7 C4          3.8670    1.6830   -0.7080 c3        1 HMN      0.147100
      8 O4          4.5800    2.4580    0.2430 oh        1 HMN     -0.651800
      9 C5          3.9880    2.4050   -2.0770 c3        1 HMN      0.098500
     10 N2          3.2650    3.7250   -2.0630 ny        1 HMN     -0.674800
     11 C10         1.8070    3.6120   -2.4800 c         1 HMN      0.574100
     12 O10         1.6280    3.1570   -3.6020 o         1 HMN     -0.456100
     13 C11         0.7780    4.0650   -1.5100 c3        1 HMN     -0.221100
     14 C6          5.4530    2.5680   -2.5460 c3        1 HMN      0.099100
     15 O6          5.4280    2.9050   -3.9260 oh        1 HMN     -0.622800
     16 C7          6.2250    3.7070   -1.8520 c3        1 HMN      0.128100
     17 O7          5.7770    4.9630   -2.3330 oh        1 HMN     -0.624800
     18 C8          7.7370    3.5480   -2.0910 c3        1 HMN      0.121100
     19 O8          8.0820    2.2140   -1.7590 oh        1 HMN     -0.606800
     20 C9          8.5070    4.5510   -1.2260 c3        1 HMN      0.092400
     21 O9          9.8750    4.3750   -1.5540 oh        1 HMN     -0.611800
     22 HC2         2.0060   -0.4300    0.3690 h1        1 HMN      0.048700
     23 HO2         2.4420    0.7110    2.6390 ho        1 HMN      0.449000
     24 HC31        1.7760    1.3510   -1.2320 hc        1 HMN      0.056200
     25 HC32        2.0910    2.6200    0.0500 hc        1 HMN      0.056200
     26 HC4         4.3350    0.6660   -0.8010 h1        1 HMN      0.083700
     27 HO4         4.3870    2.0750    1.1170 ho        1 HMN      0.471000
     28 HC5         3.4660    1.7560   -2.8460 hx        1 HMN      0.111700
     29 HN2         3.3400    4.1150   -1.1150 hn        1 HMN      0.468800
     30 H111        0.3440    3.1570   -0.9620 hc        1 HMN      0.134367
     31 H112        1.1670    4.7760   -0.7430 hc        1 HMN      0.134367
     32 H113       -0.0600    4.5440   -2.0780 hc        1 HMN      0.134367
     33 HC6         5.9810    1.5920   -2.3530 h1        1 HMN      0.117700
     34 HO6         5.4840    2.0870   -4.4330 ho        1 HMN      0.430000
     35 HC7         6.0020    3.7110   -0.7470 h1        1 HMN      0.130700
     36 HO7         6.0830    5.0540   -3.2470 ho        1 HMN      0.428000
     37 HC8         7.9700    3.7270   -3.1790 h1        1 HMN      0.057700
     38 HO8         9.0480    2.1830   -1.7010 ho        1 HMN      0.436000
     39 HC91        8.3360    4.3380   -0.1370 h1        1 HMN      0.047700
     40 HC92        8.1740    5.5950   -1.4660 h1        1 HMN      0.047700
     41 HO9        10.3800    4.9520   -0.9690 ho        1 HMN      0.418000
     42 H22         3.7540    4.3560   -2.7160 hn        1 HMN      0.468800
@<TRIPOS>BOND
     1    1    2 1   
     2    1    3 1   
     3    1    4 1   
     4    4    5 1   
     5    4    6 1   
     6    4   22 1   
     7    5   23 1   
     8    6    7 1   
     9    6   24 1   
    10    6   25 1   
    11    7    8 1   
    12    7    9 1   
    13    7   26 1   
    14    8   27 1   
    15    9   10 1   
    16    9   14 1   
    17    9   28 1   
    18   10   11 1   
    19   10   29 1   
    20   10   42 1   
    21   11   12 2   
    22   11   13 1   
    23   13   30 1   
    24   13   31 1   
    25   13   32 1   
    26   14   15 1   
    27   14   16 1   
    28   14   33 1   
    29   15   34 1   
    30   16   17 1   
    31   16   18 1   
    32   16   35 1   
    33   17   36 1   
    34   18   19 1   
    35   18   20 1   
    36   18   37 1   
    37   19   38 1   
    38   20   21 1   
    39   20   39 1   
    40   20   40 1   
    41   21   41 1   
@<TRIPOS>SUBSTRUCTURE
     1 HMN         1 TEMP              0 ****  ****    0 ROOT
