@<TRIPOS>MOLECULE
HMN
   42    41     1     0     0
SMALL
bcc


@<TRIPOS>ATOM
      1 C1          0.5700    1.1170    1.2630 c         1 HMN      0.905600
      2 O1A        -0.1630    1.6880    0.4050 o         1 HMN     -0.815800
      3 O1B         0.2990    0.9200    2.4710 o         1 HMN     -0.815800
      4 C2          1.9970    0.6740    0.7960 c3        1 HMN      0.002100
      5 O2          2.9410    0.7530    1.8500 oh        1 HMN     -0.658800
      6 C3          2.3900    1.6350   -0.3110 c3        1 HMN     -0.137400
      7 C4          3.8580    1.6950   -0.6870 c3        1 HMN      0.147100
      8 O4          4.5780    2.4810    0.2500 oh        1 HMN     -0.651800
      9 C5          3.9840    2.3910   -2.0680 c3        1 HMN      0.098500
     10 N2          3.2710    3.7170   -2.0770 n4        1 HMN     -0.674800
     11 C10         1.8110    3.6080   -2.4910 c         1 HMN      0.574100
     12 O10         1.6280    3.1350   -3.6050 o         1 HMN     -0.456100
     13 C11         0.7870    4.0860   -1.5280 c3        1 HMN     -0.221100
     14 C6          5.4490    2.5350   -2.5410 c3        1 HMN      0.099100
     15 O6          5.4260    2.8480   -3.9270 oh        1 HMN     -0.622800
     16 C7          6.2310    3.6790   -1.8670 c3        1 HMN      0.128100
     17 O7          5.7920    4.9310   -2.3700 oh        1 HMN     -0.624800
     18 C8          7.7410    3.5050   -2.1050 c3        1 HMN      0.121100
     19 O8          8.0760    2.1740   -1.7500 oh        1 HMN     -0.606800
     20 C9          8.5190    4.5170   -1.2580 c3        1 HMN      0.092400
     21 O9          9.8860    4.3240   -1.5830 oh        1 HMN     -0.611800
     22 HC2         1.9810   -0.3850    0.4280 h1        1 HMN      0.048700
     23 HO2         2.4290    0.7920    2.6770 ho        1 HMN      0.449000
     24 HC31        2.0900    2.6580    0.0560 hc        1 HMN      0.056200
     25 HC32        1.7640    1.3690   -1.2030 hc        1 HMN      0.056200
     26 HC4         4.3180    0.6720   -0.7630 h1        1 HMN      0.083700
     27 HO4         4.3830    2.1140    1.1300 ho        1 HMN      0.471000
     28 HC5         3.4550    1.7330   -2.8260 hx        1 HMN      0.111700
     29 HN2         3.3500    4.1230   -1.1360 hn        1 HMN      0.468800
     30 H111       -0.0480    4.5620   -2.1040 hc        1 HMN      0.134367
     31 H112        1.1820    4.8070   -0.7740 hc        1 HMN      0.134367
     32 H113        0.3460    3.1910   -0.9640 hc        1 HMN      0.134367
     33 HC6         5.9700    1.5590   -2.3310 h1        1 HMN      0.117700
     34 HO6         5.4760    2.0210   -4.4200 ho        1 HMN      0.430000
     35 HC7         6.0090    3.7050   -0.7620 h1        1 HMN      0.130700
     36 HO7         6.0980    5.0030   -3.2860 ho        1 HMN      0.428000
     37 HC8         7.9750    3.6630   -3.1960 h1        1 HMN      0.057700
     38 HO8         9.0420    2.1360   -1.6930 ho        1 HMN      0.436000
     39 HC91        8.1940    5.5590   -1.5160 h1        1 HMN      0.047700
     40 HC92        8.3480    4.3240   -0.1660 h1        1 HMN      0.047700
     41 HO9        10.3960    4.9070   -1.0090 ho        1 HMN      0.418000
     42 H22         3.7640    4.3330   -2.7410 hn        1 HMN      0.468800
@<TRIPOS>BOND
     1    1    2 1   
     2    1    3 1   
     3    1    4 1   
     4    4    5 1   
     5    4    6 1   
     6    4   22 1   
     7    5   23 1   
     8    6    7 1   
     9    6   24 1   
    10    6   25 1   
    11    7    8 1   
    12    7    9 1   
    13    7   26 1   
    14    8   27 1   
    15    9   10 1   
    16    9   14 1   
    17    9   28 1   
    18   10   11 1   
    19   10   29 1   
    20   10   42 1   
    21   11   12 2   
    22   11   13 1   
    23   13   30 1   
    24   13   31 1   
    25   13   32 1   
    26   14   15 1   
    27   14   16 1   
    28   14   33 1   
    29   15   34 1   
    30   16   17 1   
    31   16   18 1   
    32   16   35 1   
    33   17   36 1   
    34   18   19 1   
    35   18   20 1   
    36   18   37 1   
    37   19   38 1   
    38   20   21 1   
    39   20   39 1   
    40   20   40 1   
    41   21   41 1   
@<TRIPOS>SUBSTRUCTURE
     1 HMN         1 TEMP              0 ****  ****    0 ROOT
