@<TRIPOS>MOLECULE
HMO
   32    34     1     0     0
SMALL
bcc


@<TRIPOS>ATOM
      1 C1          0.1390   -0.0890   -0.0140 ca        1 HMO      0.177100
      2 C2          1.5320    0.1100   -0.0080 ca        1 HMO     -0.237000
      3 C3          2.1860    0.3230    1.1970 ca        1 HMO     -0.011000
      4 C4          1.4800    0.3430    2.4090 ca        1 HMO     -0.251600
      5 C5          0.0900    0.1410    2.3750 ca        1 HMO      0.167100
      6 C6         -0.6020   -0.0760    1.1770 ca        1 HMO     -0.192000
      7 C7          2.1750    0.5740    3.6850 c         1 HMO      0.601900
      8 C8          1.2980    0.5150    4.8690 cc        1 HMO     -0.196400
      9 C9         -0.0350    0.3220    4.7170 cd        1 HMO      0.077100
     10 O10        -0.6890    0.1440    3.5220 os        1 HMO     -0.217200
     11 C11         1.8630    0.6620    6.2070 ca        1 HMO     -0.074800
     12 C12         1.3650   -0.1150    7.2660 ca        1 HMO     -0.075000
     13 C13         1.8720    0.0220    8.5530 ca        1 HMO     -0.187500
     14 C14         2.9000    0.9510    8.7860 ca        1 HMO      0.129100
     15 C15         3.4150    1.7270    7.7380 ca        1 HMO     -0.187500
     16 C16         2.8950    1.5770    6.4560 ca        1 HMO     -0.075000
     17 O17         3.3590    1.0470   10.0790 oh        1 HMO     -0.497100
     18 O18         3.3920    0.8010    3.7360 o         1 HMO     -0.549100
     19 O19        -0.6080   -0.3080   -1.1500 os        1 HMO     -0.320900
     20 C20         0.1050   -0.3310   -2.3840 c3        1 HMO      0.111700
     21 H2          2.1050    0.0970   -0.9450 ha        1 HMO      0.146000
     22 H3          3.2780    0.4820    1.2230 ha        1 HMO      0.163000
     23 H6         -1.6890   -0.2320    1.1700 ha        1 HMO      0.171000
     24 H9         -0.7790    0.2850    5.5330 h4        1 HMO      0.184000
     25 H12         0.5700   -0.8520    7.0770 ha        1 HMO      0.143000
     26 H13         1.4880   -0.5840    9.3850 ha        1 HMO      0.143500
     27 H15         4.2250    2.4450    7.9260 ha        1 HMO      0.143500
     28 H16         3.3110    2.1700    5.6250 ha        1 HMO      0.143000
     29 H17         4.0750    1.6980   10.0930 ho        1 HMO      0.420000
     30 H201        0.6000    0.6530   -2.5700 h1        1 HMO      0.050033
     31 H202       -0.6980   -0.5200   -3.1400 h1        1 HMO      0.050033
     32 H203        0.8560   -1.1570   -2.3890 h1        1 HMO      0.050033
@<TRIPOS>BOND
     1    1    2 ar  
     2    1    6 ar  
     3    1   19 1   
     4    2    3 ar  
     5    2   21 1   
     6    3    4 ar  
     7    3   22 1   
     8    4    5 ar  
     9    4    7 1   
    10    5    6 ar  
    11    5   10 1   
    12    6   23 1   
    13    7    8 1   
    14    7   18 2   
    15    8    9 2   
    16    8   11 1   
    17    9   10 1   
    18    9   24 1   
    19   11   12 ar  
    20   11   16 ar  
    21   12   13 ar  
    22   12   25 1   
    23   13   14 ar  
    24   13   26 1   
    25   14   15 ar  
    26   14   17 1   
    27   15   16 ar  
    28   15   27 1   
    29   16   28 1   
    30   17   29 1   
    31   19   20 1   
    32   20   30 1   
    33   20   31 1   
    34   20   32 1   
@<TRIPOS>SUBSTRUCTURE
     1 HMO         1 TEMP              0 ****  ****    0 ROOT
