@<TRIPOS>MOLECULE
HMO
   32    34     1     0     0
SMALL
bcc


@<TRIPOS>ATOM
      1 C1         -0.0630   -0.0770    4.1470 ca        1 HMO      0.177100
      2 C2          1.2730    0.0590    3.7290 ca        1 HMO     -0.237000
      3 C3          1.5660    0.0790    2.3730 ca        1 HMO     -0.011000
      4 C4          0.5490   -0.0340    1.4120 ca        1 HMO     -0.251600
      5 C5         -0.7770   -0.1670    1.8570 ca        1 HMO      0.167100
      6 C6         -1.1080   -0.1920    3.2170 ca        1 HMO     -0.192000
      7 C7          0.8620   -0.0180   -0.0250 c         1 HMO      0.601900
      8 C8         -0.3210   -0.0960   -0.9010 cc        1 HMO     -0.196400
      9 C9         -1.5580   -0.2320   -0.3610 cd        1 HMO      0.077100
     10 O10        -1.8450   -0.2850    0.9810 os        1 HMO     -0.217200
     11 C11        -0.1660   -0.0250   -2.3500 ca        1 HMO     -0.074800
     12 C12        -1.1070    0.6760   -3.1230 ca        1 HMO     -0.075000
     13 C13        -0.9920    0.7410   -4.5060 ca        1 HMO     -0.187500
     14 C14         0.0870    0.0950   -5.1310 ca        1 HMO      0.129100
     15 C15         1.0420   -0.6000   -4.3750 ca        1 HMO     -0.187500
     16 C16         0.9110   -0.6540   -2.9910 ca        1 HMO     -0.075000
     17 O17         0.1480    0.1880   -6.5020 oh        1 HMO     -0.497100
     18 O18         2.0280    0.0510   -0.4410 o         1 HMO     -0.549100
     19 O19        -0.4640   -0.1090    5.4650 os        1 HMO     -0.320900
     20 C20         0.5650    0.0070    6.4440 c3        1 HMO      0.111700
     21 H2          2.0850    0.1490    4.4630 ha        1 HMO      0.146000
     22 H3          2.6080    0.1830    2.0240 ha        1 HMO      0.163000
     23 H6         -2.1500   -0.2970    3.5470 ha        1 HMO      0.171000
     24 H9         -2.5020   -0.3210   -0.9260 h4        1 HMO      0.184000
     25 H12        -1.9440    1.1920   -2.6280 ha        1 HMO      0.143000
     26 H13        -1.7250    1.2880   -5.1140 ha        1 HMO      0.143500
     27 H15         1.8890   -1.0940   -4.8700 ha        1 HMO      0.143500
     28 H16         1.6690   -1.1820   -2.3910 ha        1 HMO      0.143000
     29 H17         0.9460   -0.2740   -6.7980 ho        1 HMO      0.420000
     30 H201        0.0040   -0.0430    7.4120 h1        1 HMO      0.050033
     31 H202        1.2860   -0.8420    6.3590 h1        1 HMO      0.050033
     32 H203        1.0940    0.9860    6.3440 h1        1 HMO      0.050033
@<TRIPOS>BOND
     1    1    2 ar  
     2    1    6 ar  
     3    1   19 1   
     4    2    3 ar  
     5    2   21 1   
     6    3    4 ar  
     7    3   22 1   
     8    4    5 ar  
     9    4    7 1   
    10    5    6 ar  
    11    5   10 1   
    12    6   23 1   
    13    7    8 1   
    14    7   18 2   
    15    8    9 2   
    16    8   11 1   
    17    9   10 1   
    18    9   24 1   
    19   11   12 ar  
    20   11   16 ar  
    21   12   13 ar  
    22   12   25 1   
    23   13   14 ar  
    24   13   26 1   
    25   14   15 ar  
    26   14   17 1   
    27   15   16 ar  
    28   15   27 1   
    29   16   28 1   
    30   17   29 1   
    31   19   20 1   
    32   20   30 1   
    33   20   31 1   
    34   20   32 1   
@<TRIPOS>SUBSTRUCTURE
     1 HMO         1 TEMP              0 ****  ****    0 ROOT
