@<TRIPOS>MOLECULE
HMO
   32    26     1     0     0
SMALL
bcc


@<TRIPOS>ATOM
      1 C1         -1.1590    0.1990   -3.8190 c1        1 HMO      0.134000
      2 C2          0.2410    0.2300   -3.8070 c1        1 HMO     -0.128500
      3 C3          0.9320    0.2360   -2.5880 c1        1 HMO     -0.128500
      4 C4          0.2150    0.2100   -1.3690 c1        1 HMO     -0.231000
      5 C5         -1.1590    0.1800   -1.3810 c1        1 HMO      0.128000
      6 C6         -1.8620    0.1740   -2.6220 c1        1 HMO     -0.243000
      7 C7          0.9010    0.1900   -0.1520 c2        1 HMO      0.322000
      8 C8          0.2000    0.1400    1.0290 c1        1 HMO     -0.185000
      9 C9         -1.2000    0.1090    1.0120 c1        1 HMO      0.029000
     10 O10        -1.8690    0.1280   -0.1750 os        1 HMO     -0.131000
     11 C11         0.6970    0.1710    2.3570 c1        1 HMO     -0.063000
     12 C12         0.8970   -1.0190    3.0540 c1        1 HMO     -0.128500
     13 C13         1.3960   -0.9900    4.3540 c1        1 HMO     -0.128500
     14 C14         1.6960    0.2260    4.9580 c1        1 HMO      0.085000
     15 C15         1.4990    1.4110    4.2680 c1        1 HMO     -0.158000
     16 C16         0.9970    1.3840    2.9590 c1        1 HMO     -0.061000
     17 O17         2.2380    0.2490    6.2340 oh        1 HMO     -0.250000
     18 O18         2.1050    0.2160   -0.1370 o         1 HMO     -0.306000
     19 O19        -1.8730    0.2320   -5.0770 os        1 HMO     -0.202000
     20 C20        -2.2840   -1.0720   -5.5530 c3        1 HMO     -0.080000
     21 H2          0.7350    0.2480   -4.6480 ha        1 HMO      0.146500
     22 H3          1.9180    0.2580   -2.5800 ha        1 HMO      0.146500
     23 H6         -2.8530    0.1520   -2.6290 ha        1 HMO      0.160000
     24 H9         -1.6900    0.0730    1.8390 ha        1 HMO      0.182000
     25 H12         0.6830   -1.8880    2.6240 ha        1 HMO      0.146500
     26 H13         1.5380   -1.8450    4.8540 ha        1 HMO      0.146500
     27 H15         1.7140    2.2760    4.6990 ha        1 HMO      0.154000
     28 H16         0.8570    2.2210    2.4700 ha        1 HMO      0.158000
     29 H17         1.6250    0.0010    6.8170 ho        1 HMO      0.218000
     30 H201       -3.1780   -1.2840   -5.1990 h1        1 HMO      0.089333
     31 H202       -1.6430   -1.7470   -5.2480 h1        1 HMO      0.089333
     32 H203       -2.3130   -1.0680   -6.5450 h1        1 HMO      0.089333
@<TRIPOS>BOND
     1    1    6 1   
     2    1   19 1   
     3    2    3 1   
     4    2   21 1   
     5    3   22 1   
     6    4    5 1   
     7    4    7 1   
     8    5   10 1   
     9    6   23 1   
    10    7    8 1   
    11    7   18 1   
    12    9   10 1   
    13    9   24 1   
    14   11   16 1   
    15   12   13 1   
    16   12   25 1   
    17   13   26 1   
    18   14   15 1   
    19   14   17 1   
    20   15   27 1   
    21   16   28 1   
    22   17   29 1   
    23   19   20 1   
    24   20   30 1   
    25   20   31 1   
    26   20   32 1   
@<TRIPOS>SUBSTRUCTURE
     1 HMO         1 TEMP              0 ****  ****    0 ROOT
