@<TRIPOS>MOLECULE
HMO
   32    34     1     0     0
SMALL
bcc


@<TRIPOS>ATOM
      1 C1          0.1410   -0.0980   -0.0140 ca        1 HMO      0.177100
      2 C2          1.5300    0.1310   -0.0090 ca        1 HMO     -0.237000
      3 C3          2.1820    0.3520    1.1950 ca        1 HMO     -0.011000
      4 C4          1.4780    0.3510    2.4090 ca        1 HMO     -0.251600
      5 C5          0.0930    0.1180    2.3760 ca        1 HMO      0.167100
      6 C6         -0.5970   -0.1070    1.1790 ca        1 HMO     -0.192000
      7 C7          2.1710    0.5910    3.6840 c         1 HMO      0.601900
      8 C8          1.2980    0.5070    4.8700 cc        1 HMO     -0.196400
      9 C9         -0.0310    0.2850    4.7190 cd        1 HMO      0.077100
     10 O10        -0.6830    0.1000    3.5250 os        1 HMO     -0.217200
     11 C11         1.8630    0.6590    6.2070 ca        1 HMO     -0.074800
     12 C12         1.3850   -0.1340    7.2640 ca        1 HMO     -0.075000
     13 C13         1.8910    0.0070    8.5500 ca        1 HMO     -0.187500
     14 C14         2.8990    0.9570    8.7860 ca        1 HMO      0.129100
     15 C15         3.3940    1.7500    7.7410 ca        1 HMO     -0.187500
     16 C16         2.8760    1.5950    6.4590 ca        1 HMO     -0.075000
     17 O17         3.3590    1.0560   10.0780 oh        1 HMO     -0.497100
     18 O18         3.3830    0.8440    3.7330 o         1 HMO     -0.549100
     19 O19        -0.6030   -0.3270   -1.1500 os        1 HMO     -0.320900
     20 C20         0.1080   -0.3290   -2.3840 c3        1 HMO      0.111700
     21 H2          2.1010    0.1360   -0.9480 ha        1 HMO      0.146000
     22 H3          3.2700    0.5350    1.2190 ha        1 HMO      0.163000
     23 H6         -1.6810   -0.2860    1.1730 ha        1 HMO      0.171000
     24 H9         -0.7720    0.2280    5.5370 h4        1 HMO      0.184000
     25 H12         0.6050   -0.8870    7.0730 ha        1 HMO      0.143000
     26 H13         1.5220   -0.6120    9.3790 ha        1 HMO      0.143500
     27 H15         4.1890    2.4840    7.9310 ha        1 HMO      0.143500
     28 H16         3.2760    2.2020    5.6300 ha        1 HMO      0.143000
     29 H17         4.0610    1.7230   10.0940 ho        1 HMO      0.420000
     30 H201        0.5800    0.6660   -2.5670 h1        1 HMO      0.050033
     31 H202       -0.6930   -0.5320   -3.1400 h1        1 HMO      0.050033
     32 H203        0.8760   -1.1390   -2.3950 h1        1 HMO      0.050033
@<TRIPOS>BOND
     1    1    2 ar  
     2    1    6 ar  
     3    1   19 1   
     4    2    3 ar  
     5    2   21 1   
     6    3    4 ar  
     7    3   22 1   
     8    4    5 ar  
     9    4    7 1   
    10    5    6 ar  
    11    5   10 1   
    12    6   23 1   
    13    7    8 1   
    14    7   18 2   
    15    8    9 2   
    16    8   11 1   
    17    9   10 1   
    18    9   24 1   
    19   11   12 ar  
    20   11   16 ar  
    21   12   13 ar  
    22   12   25 1   
    23   13   14 ar  
    24   13   26 1   
    25   14   15 ar  
    26   14   17 1   
    27   15   16 ar  
    28   15   27 1   
    29   16   28 1   
    30   17   29 1   
    31   19   20 1   
    32   20   30 1   
    33   20   31 1   
    34   20   32 1   
@<TRIPOS>SUBSTRUCTURE
     1 HMO         1 TEMP              0 ****  ****    0 ROOT
