@<TRIPOS>MOLECULE
HMP
   25    24     1     0     0
SMALL
bcc


@<TRIPOS>ATOM
      1 C1         -0.0530   -0.0280    0.1440 c         1 HMP      0.579100
      2 O1         -0.7730    0.9780    0.1710 o         1 HMP     -0.517100
      3 C2          1.4680    0.0420    0.2170 c3        1 HMP     -0.226700
      4 C3          1.8960    0.2240    1.6550 c         1 HMP      0.634100
      5 O3          1.6650   -0.7840    2.5480 oh        1 HMP     -0.576100
      6 O4          2.4840    1.1870    2.1410 o         1 HMP     -0.463000
      7 C1'         1.9540    1.1850   -0.6660 c3        1 HMP     -0.065400
      8 C2'         3.4530    1.1290   -0.9250 c3        1 HMP     -0.072700
      9 C3'         3.8110    0.0420   -1.9170 c3        1 HMP     -0.091600
     10 C4'         3.9300    2.4750   -1.4340 c3        1 HMP     -0.091600
     11 N          -0.6280   -1.3420    0.1890 ns        1 HMP     -0.357400
     12 O5         -1.9220   -1.3900   -0.1340 oh        1 HMP     -0.431100
     13 H2          1.9280   -0.9220   -0.1470 hc        1 HMP      0.085700
     14 H1'1        1.6960    2.1550   -0.1610 hc        1 HMP      0.071200
     15 H1'2        1.4010    1.1520   -1.6410 hc        1 HMP      0.071200
     16 H2'         3.9710    0.9170    0.0540 hc        1 HMP      0.063700
     17 H3'1        3.5210   -0.9650   -1.5320 hc        1 HMP      0.036700
     18 H3'2        4.9130    0.0400   -2.0990 hc        1 HMP      0.036700
     19 H3'3        3.2940    0.2120   -2.8920 hc        1 HMP      0.036700
     20 H4'1        3.4030    2.7460   -2.3800 hc        1 HMP      0.036700
     21 H4'2        3.7320    3.2700   -0.6750 hc        1 HMP      0.036700
     22 H4'3        5.0270    2.4420   -1.6350 hc        1 HMP      0.036700
     23 HN          1.1580   -1.4960    2.1350 ho        1 HMP      0.432000
     24 HO5        -2.4030   -0.9900    0.6180 ho        1 HMP      0.439000
     25 HN3        -0.1430   -1.9920   -0.4220 hn        1 HMP      0.297500
@<TRIPOS>BOND
     1    1    2 2   
     2    1    3 1   
     3    1   11 1   
     4    3    4 1   
     5    3    7 1   
     6    3   13 1   
     7    4    5 1   
     8    4    6 2   
     9    5   23 1   
    10    7    8 1   
    11    7   14 1   
    12    7   15 1   
    13    8    9 1   
    14    8   10 1   
    15    8   16 1   
    16    9   17 1   
    17    9   18 1   
    18    9   19 1   
    19   10   20 1   
    20   10   21 1   
    21   10   22 1   
    22   11   12 1   
    23   11   25 1   
    24   12   24 1   
@<TRIPOS>SUBSTRUCTURE
     1 HMP         1 TEMP              0 ****  ****    0 ROOT
