@<TRIPOS>MOLECULE
HMP
   25    24     1     0     0
SMALL
bcc


@<TRIPOS>ATOM
      1 C1         -0.0670   -0.0090    0.1010 c         1 HMP      0.579100
      2 O1         -0.7840    0.9990    0.0870 o         1 HMP     -0.517100
      3 C2          1.4520    0.0570    0.2130 c3        1 HMP     -0.226700
      4 C3          1.8430    0.2710    1.6570 c         1 HMP      0.634100
      5 O3          1.5830   -0.7150    2.5670 oh        1 HMP     -0.576100
      6 O4          2.4220    1.2430    2.1360 o         1 HMP     -0.463000
      7 C1'         1.9650    1.1770   -0.6830 c3        1 HMP     -0.065400
      8 C2'         3.4700    1.1100   -0.9010 c3        1 HMP     -0.072700
      9 C3'         3.8500   -0.0010   -1.8580 c3        1 HMP     -0.091600
     10 C4'         3.9660    2.4420   -1.4290 c3        1 HMP     -0.091600
     11 N          -0.6480   -1.3200    0.1600 n         1 HMP     -0.357400
     12 O5         -1.9330   -1.3720   -0.1970 oh        1 HMP     -0.431100
     13 H2          1.9170   -0.9170   -0.1160 hc        1 HMP      0.085700
     14 H1'1        1.6980    2.1600   -0.2080 hc        1 HMP      0.071200
     15 H1'2        1.4380    1.1240   -1.6720 hc        1 HMP      0.071200
     16 H2'         3.9620    0.9190    0.0960 hc        1 HMP      0.063700
     17 H3'1        3.5460   -0.9970   -1.4580 hc        1 HMP      0.036700
     18 H3'2        3.3590    0.1480   -2.8500 hc        1 HMP      0.036700
     19 H3'3        4.9570   -0.0110   -2.0110 hc        1 HMP      0.036700
     20 H4'1        5.0680    2.4010   -1.6010 hc        1 HMP      0.036700
     21 H4'2        3.4650    2.6930   -2.3950 hc        1 HMP      0.036700
     22 H4'3        3.7510    3.2560   -0.6940 hc        1 HMP      0.036700
     23 HN          1.0840   -1.4340    2.1570 ho        1 HMP      0.432000
     24 HO5        -2.4330   -0.9530    0.5340 ho        1 HMP      0.439000
     25 HN3        -0.1500   -1.9860   -0.4240 hn        1 HMP      0.297500
@<TRIPOS>BOND
     1    1    2 2   
     2    1    3 1   
     3    1   11 1   
     4    3    4 1   
     5    3    7 1   
     6    3   13 1   
     7    4    5 1   
     8    4    6 2   
     9    5   23 1   
    10    7    8 1   
    11    7   14 1   
    12    7   15 1   
    13    8    9 1   
    14    8   10 1   
    15    8   16 1   
    16    9   17 1   
    17    9   18 1   
    18    9   19 1   
    19   10   20 1   
    20   10   21 1   
    21   10   22 1   
    22   11   12 1   
    23   11   25 1   
    24   12   24 1   
@<TRIPOS>SUBSTRUCTURE
     1 HMP         1 TEMP              0 ****  ****    0 ROOT
