@<TRIPOS>MOLECULE
HMP
   24    23     1     0     0
SMALL
bcc


@<TRIPOS>ATOM
      1 C1         -0.5540    0.1460   -1.3850 c         1 HMP      0.619100
      2 O1         -1.6900   -0.3470   -1.5520 o         1 HMP     -0.644100
      3 C2          0.1460    0.2420   -0.0530 c3        1 HMP     -0.266700
      4 C3          1.5140   -0.5090   -0.1080 c         1 HMP      0.921600
      5 O3          1.7860   -1.3370    0.7980 o         1 HMP     -0.823800
      6 O4          2.2970   -0.2050   -1.0550 o         1 HMP     -0.823800
      7 C1'        -0.7540   -0.2600    1.0590 c3        1 HMP     -0.041400
      8 C2'        -0.2940    0.2000    2.4360 c3        1 HMP     -0.075700
      9 C3'        -0.6070    1.6620    2.6750 c3        1 HMP     -0.082100
     10 C4'        -0.9460   -0.6490    3.5080 c3        1 HMP     -0.082100
     11 N           0.0860    0.7830   -2.4940 n         1 HMP     -0.371400
     12 O5         -0.3430    0.3840   -3.7000 oh        1 HMP     -0.460100
     13 H2          0.4080    1.3220    0.1280 hc        1 HMP      0.067700
     14 H1'1       -0.7440   -1.3830    1.0320 hc        1 HMP      0.043700
     15 H1'2       -1.8090    0.0790    0.8800 hc        1 HMP      0.043700
     16 H2'         0.8230    0.0440    2.4850 hc        1 HMP      0.091700
     17 H3'1       -0.2650    1.9700    3.6930 hc        1 HMP      0.020367
     18 H3'2       -0.0900    2.3040    1.9230 hc        1 HMP      0.020367
     19 H3'3       -1.7060    1.8480    2.6020 hc        1 HMP      0.020367
     20 H4'1       -2.0580   -0.5770    3.4480 hc        1 HMP      0.020367
     21 H4'2       -0.6510   -1.7190    3.3810 hc        1 HMP      0.020367
     22 H4'3       -0.6240   -0.3100    4.5230 hc        1 HMP      0.020367
     23 HN          1.1040    0.6480   -2.4620 hn        1 HMP      0.347500
     24 HO5        -1.3130    0.4940   -3.6930 ho        1 HMP      0.413000
@<TRIPOS>BOND
     1    1    2 2   
     2    1    3 1   
     3    1   11 1   
     4    3    4 1   
     5    3    7 1   
     6    3   13 1   
     7    4    5 1   
     8    4    6 1   
     9    7    8 1   
    10    7   14 1   
    11    7   15 1   
    12    8    9 1   
    13    8   10 1   
    14    8   16 1   
    15    9   17 1   
    16    9   18 1   
    17    9   19 1   
    18   10   20 1   
    19   10   21 1   
    20   10   22 1   
    21   11   12 1   
    22   11   23 1   
    23   12   24 1   
@<TRIPOS>SUBSTRUCTURE
     1 HMP         1 TEMP              0 ****  ****    0 ROOT
