@<TRIPOS>MOLECULE
HMP
   24    22     1     0     0
SMALL
bcc


@<TRIPOS>ATOM
      1 C1         -1.8080   -0.4400    1.0070 c1        1 HMP      0.496500
      2 O1         -2.3750    0.6220    1.2310 o         1 HMP     -0.638500
      3 C2         -0.2940   -0.4670    0.7910 c2        1 HMP     -0.210200
      4 C3          0.4090   -0.4810    2.1350 c         1 HMP      0.871600
      5 O3          0.1200    0.3900    3.0100 o         1 HMP     -0.823800
      6 O4          1.2310   -1.3850    2.4000 o         1 HMP     -0.823800
      7 C1'         0.1260    0.7540    0.0190 c3        1 HMP     -0.037200
      8 C2'         1.2150    0.3820   -0.9600 c3        1 HMP     -0.075700
      9 C3'         2.4310    1.2710   -0.7310 c3        1 HMP     -0.082100
     10 C4'         0.7040    0.5740   -2.3860 c3        1 HMP     -0.082100
     11 N          -2.5610   -1.6440    0.9170 n3        1 HMP     -0.241500
     12 O5         -3.8950   -1.6520    1.2820 oh        1 HMP     -0.486200
     13 H2         -0.0540   -1.2620    0.2930 ha        1 HMP      0.107000
     14 H1'1       -0.6400    1.1100   -0.4670 hc        1 HMP      0.043700
     15 H1'2        0.4600    1.4280    0.6360 hc        1 HMP      0.043700
     16 H2'         1.4680   -0.5590   -0.8260 hc        1 HMP      0.091700
     17 H3'1        3.1230    1.0540   -1.3900 hc        1 HMP      0.020367
     18 H3'2        2.1710    2.2130   -0.8290 hc        1 HMP      0.020367
     19 H3'3        2.7820    1.1200    0.1740 hc        1 HMP      0.020367
     20 H4'1       -0.0580   -0.0220   -2.5420 hc        1 HMP      0.020367
     21 H4'2        0.4210    1.5050   -2.5100 hc        1 HMP      0.020367
     22 H4'3        1.4230    0.3610   -3.0250 hc        1 HMP      0.020367
     23 HN         -2.1730   -2.4010    0.5950 hn        1 HMP      0.310700
     24 HO5        -4.2280   -2.4720    1.1750 ho        1 HMP      0.413000
@<TRIPOS>BOND
     1    1    2 2   
     2    1   11 2   
     3    3    4 2   
     4    3    7 1   
     5    3   13 1   
     6    4    5 1   
     7    4    6 1   
     8    7    8 1   
     9    7   14 1   
    10    7   15 1   
    11    8    9 1   
    12    8   10 1   
    13    8   16 1   
    14    9   17 1   
    15    9   18 1   
    16    9   19 1   
    17   10   20 1   
    18   10   21 1   
    19   10   22 1   
    20   11   12 1   
    21   11   23 1   
    22   12   24 1   
@<TRIPOS>SUBSTRUCTURE
     1 HMP         1 TEMP              0 ****  ****    0 ROOT
