@<TRIPOS>MOLECULE
HMP
   25    24     1     0     0
SMALL
bcc


@<TRIPOS>ATOM
      1 C1         -0.0580    0.0120    0.1590 c         1 HMP      0.579100
      2 O1         -0.7580    1.0310    0.1870 o         1 HMP     -0.517100
      3 C2          1.4650    0.0530    0.2220 c3        1 HMP     -0.226700
      4 C3          1.9070    0.2330    1.6560 c         1 HMP      0.634100
      5 O3          1.6640   -0.7680    2.5540 oh        1 HMP     -0.576100
      6 O4          2.5150    1.1870    2.1340 o         1 HMP     -0.463000
      7 C1'         1.9660    1.1830   -0.6690 c3        1 HMP     -0.065400
      8 C2'         3.4620    1.0980   -0.9390 c3        1 HMP     -0.072700
      9 C3'         3.7930    0.0010   -1.9290 c3        1 HMP     -0.091600
     10 C4'         3.9610    2.4330   -1.4560 c3        1 HMP     -0.091600
     11 N          -0.6570   -1.2900    0.2150 n         1 HMP     -0.357400
     12 O5         -1.9540   -1.3160   -0.0990 oh        1 HMP     -0.431100
     13 H2          1.9040   -0.9200   -0.1420 hc        1 HMP      0.085700
     14 H1'1        1.4050    1.1570   -1.6400 hc        1 HMP      0.071200
     15 H1'2        1.7300    2.1600   -0.1660 hc        1 HMP      0.071200
     16 H2'         3.9830    0.8800    0.0380 hc        1 HMP      0.063700
     17 H3'1        3.2710    0.1770   -2.9000 hc        1 HMP      0.036700
     18 H3'2        3.4860   -0.9990   -1.5380 hc        1 HMP      0.036700
     19 H3'3        4.8930   -0.0220   -2.1190 hc        1 HMP      0.036700
     20 H4'1        3.7830    3.2340   -0.6990 hc        1 HMP      0.036700
     21 H4'2        3.4320    2.7100   -2.3990 hc        1 HMP      0.036700
     22 H4'3        5.0560    2.3780   -1.6650 hc        1 HMP      0.036700
     23 HN         -0.1890   -1.9530   -0.3960 hn        1 HMP      0.297500
     24 HO5        -2.4220   -0.9030    0.6550 ho        1 HMP      0.439000
     25 HN3         1.1420   -1.4720    2.1470 ho        1 HMP      0.432000
@<TRIPOS>BOND
     1    1    2 2   
     2    1    3 1   
     3    1   11 1   
     4    3    4 1   
     5    3    7 1   
     6    3   13 1   
     7    4    5 1   
     8    4    6 2   
     9    5   25 1   
    10    7    8 1   
    11    7   14 1   
    12    7   15 1   
    13    8    9 1   
    14    8   10 1   
    15    8   16 1   
    16    9   17 1   
    17    9   18 1   
    18    9   19 1   
    19   10   20 1   
    20   10   21 1   
    21   10   22 1   
    22   11   12 1   
    23   11   23 1   
    24   12   24 1   
@<TRIPOS>SUBSTRUCTURE
     1 HMP         1 TEMP              0 ****  ****    0 ROOT
