@<TRIPOS>MOLECULE
HMQ
   21    21     1     0     0
SMALL
bcc


@<TRIPOS>ATOM
      1 O5         -2.0770    3.1210    0.0730 o         1 HMQ     -0.568100
      2 C5         -1.6610    1.9520    0.1020 c         1 HMQ      0.569500
      3 C6         -0.4000    1.5450   -0.5200 ce        1 HMQ     -0.270200
      4 C4         -2.4370    0.8820    0.7610 ce        1 HMQ     -0.242200
      5 C3         -2.0000   -0.3780    0.8120 c2        1 HMQ     -0.098200
      6 C2         -0.6870   -0.8140    0.2140 c3        1 HMQ      0.362000
      7 O6         -0.9320   -1.8670   -0.7810 os        1 HMQ     -0.232800
      8 O7         -1.3280   -2.9660   -0.2450 oh        1 HMQ     -0.403000
      9 O2          0.0260   -1.5080    1.2000 oh        1 HMQ     -0.646800
     10 C1          0.0700    0.2830   -0.5020 c2        1 HMQ      0.000600
     11 C7          1.3280   -0.1030   -1.1750 c3        1 HMQ     -0.208200
     12 C8          2.5840    0.0980   -0.2830 c         1 HMQ      0.924600
     13 OD1         2.7020   -0.6440    0.7380 o         1 HMQ     -0.821800
     14 OD2         3.4280    0.9530   -0.6480 o         1 HMQ     -0.821800
     15 H6          0.1730    2.3480   -1.0140 ha        1 HMQ      0.160000
     16 H4         -3.3980    1.1870    1.2040 ha        1 HMQ      0.135000
     17 H3         -2.5630   -1.1920    1.2930 ha        1 HMQ      0.142000
     18 H2          0.9870   -1.3250    1.1010 ho        1 HMQ      0.494000
     19 H71C        1.2910   -1.1860   -1.4610 hc        1 HMQ      0.059200
     20 H72C        1.4680    0.5090   -2.1030 hc        1 HMQ      0.059200
     21 H7L        -0.5720   -3.3640    0.2500 ho        1 HMQ      0.407000
@<TRIPOS>BOND
     1    1    2 2   
     2    2    3 1   
     3    2    4 1   
     4    3   10 2   
     5    3   15 1   
     6    4    5 2   
     7    4   16 1   
     8    5    6 1   
     9    5   17 1   
    10    6    7 1   
    11    6    9 1   
    12    6   10 1   
    13    7    8 1   
    14    8   21 1   
    15    9   18 1   
    16   10   11 1   
    17   11   12 1   
    18   11   19 1   
    19   11   20 1   
    20   12   13 1   
    21   12   14 1   
@<TRIPOS>SUBSTRUCTURE
     1 HMQ         1 TEMP              0 ****  ****    0 ROOT
