@<TRIPOS>MOLECULE
HMQ
   21    21     1     0     0
SMALL
bcc


@<TRIPOS>ATOM
      1 O5          0.1610   -1.0030   -0.3290 o         1 HMQ     -0.568100
      2 C5          1.2690   -0.4470   -0.2560 c         1 HMQ      0.569500
      3 C6          2.0020   -0.3070    1.0040 ce        1 HMQ     -0.270200
      4 C4          1.9130    0.1310   -1.4520 ce        1 HMQ     -0.242200
      5 C3          3.1090    0.7210   -1.3950 c2        1 HMQ     -0.098200
      6 C2          3.9010    0.8440   -0.1190 c3        1 HMQ      0.362000
      7 O6          4.1650    2.2630    0.1560 os        1 HMQ     -0.232800
      8 O7          4.9860    2.7810   -0.6860 oh        1 HMQ     -0.403000
      9 O2          5.1900    0.3520   -0.3620 oh        1 HMQ     -0.646800
     10 C1          3.2040    0.2930    1.1070 c2        1 HMQ      0.000600
     11 C7          3.9000    0.4550    2.4010 c3        1 HMQ     -0.208200
     12 C8          4.7730   -0.7720    2.7810 c         1 HMQ      0.924600
     13 OD1         4.4410   -1.4310    3.7970 o         1 HMQ     -0.821800
     14 OD2         5.7930   -1.0090    2.0670 o         1 HMQ     -0.821800
     15 H6          1.5140   -0.7370    1.8950 ha        1 HMQ      0.160000
     16 H4          1.3470    0.0470   -2.3920 ha        1 HMQ      0.135000
     17 H3          3.6050    1.1630   -2.2720 ha        1 HMQ      0.142000
     18 H2          5.5280   -0.0980    0.4430 ho        1 HMQ      0.494000
     19 H71C        3.1510    0.6070    3.2200 hc        1 HMQ      0.059200
     20 H72C        4.5760    1.3470    2.3610 hc        1 HMQ      0.059200
     21 H7L         5.8820    2.4010   -0.5240 ho        1 HMQ      0.407000
@<TRIPOS>BOND
     1    1    2 2   
     2    2    3 1   
     3    2    4 1   
     4    3   10 2   
     5    3   15 1   
     6    4    5 2   
     7    4   16 1   
     8    5    6 1   
     9    5   17 1   
    10    6    7 1   
    11    6    9 1   
    12    6   10 1   
    13    7    8 1   
    14    8   21 1   
    15    9   18 1   
    16   10   11 1   
    17   11   12 1   
    18   11   19 1   
    19   11   20 1   
    20   12   13 1   
    21   12   14 1   
@<TRIPOS>SUBSTRUCTURE
     1 HMQ         1 TEMP              0 ****  ****    0 ROOT
