@<TRIPOS>MOLECULE
HMR
   28    25     1     0     0
SMALL
bcc


@<TRIPOS>ATOM
      1 N          -1.8990   -0.8410   -1.9760 n3        1 HMR     -0.342000
      2 CA         -0.4790   -0.8550   -1.9360 c3        1 HMR     -0.023000
      3 CB         -0.0130   -0.8960   -0.4890 c3        1 HMR     -0.152000
      4 CG         -0.1210    0.4960    0.1190 c3        1 HMR     -0.168000
      5 CD          0.4100    0.4690    1.5440 c3        1 HMR     -0.060000
      6 NE          0.1560    1.7290    2.1720 n3        1 HMR     -0.331000
      7 CZ          0.7600    2.0340    3.4270 c2        1 HMR      0.157000
      8 NH1         2.0010    2.4490    3.4720 n1        1 HMR     -0.361000
      9 NH2         0.0160    1.8870    4.6270 n3        1 HMR     -0.327000
     10 C           0.1750   -1.7520   -4.1390 c1        1 HMR      0.326000
     11 O           1.2080   -1.1670   -4.5600 o         1 HMR     -0.584000
     12 CH2         0.0320   -2.0700   -2.6640 c2        1 HMR     -0.260000
     13 OXT        -0.7090   -2.1330   -4.9530 o         1 HMR     -0.584000
     14 H          -2.1820   -0.2730   -2.6420 hn        1 HMR      0.150000
     15 H2         -2.2090   -1.6920   -2.1450 hn        1 HMR      0.150000
     16 HA         -0.1330   -0.0450   -2.3680 h1        1 HMR      0.089000
     17 HB2        -0.5730   -1.5160    0.0150 hc        1 HMR      0.070500
     18 HB3         0.9190   -1.1970   -0.4550 hc        1 HMR      0.070500
     19 HG2         0.4040    1.1250   -0.4120 hc        1 HMR      0.092500
     20 HG3        -1.0560    0.7770    0.1250 hc        1 HMR      0.092500
     21 HD2        -0.0380   -0.2410    2.0450 h1        1 HMR      0.077000
     22 HD3         1.3760    0.3000    1.5290 h1        1 HMR      0.077000
     23 HE         -0.3980    2.3350    1.7740 hn        1 HMR      0.199000
     24 HH1         2.4790    2.5430    2.7020 DU        1 HMR      0.151000
     25 HH21       -0.0530    2.5870    5.2090 hn        1 HMR      0.178000
     26 HH22       -0.3760    1.0840    4.8270 hn        1 HMR      0.178000
     27 HC1         0.9050   -2.3270   -2.2990 ha        1 HMR      0.066500
     28 HC2        -0.6020   -2.8100   -2.5500 ha        1 HMR      0.066500
@<TRIPOS>BOND
     1    1    2 1   
     2    1   14 1   
     3    1   15 1   
     4    2    3 1   
     5    2   12 1   
     6    2   16 1   
     7    3    4 1   
     8    3   17 1   
     9    3   18 1   
    10    4    5 1   
    11    4   19 1   
    12    4   20 1   
    13    5    6 1   
    14    5   21 1   
    15    5   22 1   
    16    6    7 1   
    17    6   23 1   
    18    7    8 1   
    19    7    9 1   
    20    9   25 1   
    21    9   26 1   
    22   10   11 1   
    23   10   13 1   
    24   12   27 1   
    25   12   28 1   
@<TRIPOS>SUBSTRUCTURE
     1 HMR         1 TEMP              0 ****  ****    0 ROOT
