@<TRIPOS>MOLECULE
HMR
   28    27     1     0     0
SMALL
bcc


@<TRIPOS>ATOM
      1 N           1.1380   -1.0960    1.8220 n3        1 HMR     -0.909800
      2 CA          0.1660   -0.0220    1.6690 c3        1 HMR      0.174500
      3 CB         -0.5630   -0.0900    0.3160 c3        1 HMR     -0.072400
      4 CG          0.3870    0.0950   -0.8460 c3        1 HMR     -0.085400
      5 CD         -0.3890    0.0820   -2.1640 c3        1 HMR      0.179800
      6 NE          0.4800    0.2710   -3.3120 nh        1 HMR     -0.797200
      7 CZ         -0.0830    0.0940   -4.6170 c2        1 HMR      0.741100
      8 NH1        -1.3770   -0.0430   -4.7860 n2        1 HMR     -0.871100
      9 NH2         0.8750    0.0900   -5.6980 nh        1 HMR     -0.933800
     10 O          -0.5330    1.2110    4.8560 o         1 HMR     -0.850800
     11 CH2        -0.8880    0.0540    2.7790 c3        1 HMR     -0.230400
     12 OXT         0.5130   -0.7390    4.5780 o         1 HMR     -0.850800
     13 H           0.6480   -1.9700    1.8820 hn        1 HMR      0.353800
     14 H2          1.6050   -0.9660    2.7090 hn        1 HMR      0.353800
     15 HA          0.7550    0.9440    1.6920 h1        1 HMR      0.048700
     16 HB2        -1.0980   -1.0700    0.2200 hc        1 HMR      0.032200
     17 HB3        -1.3400    0.7190    0.2980 hc        1 HMR      0.032200
     18 HG2         0.9340    1.0670   -0.7300 hc        1 HMR      0.049700
     19 HG3         1.1530   -0.7240   -0.8410 hc        1 HMR      0.049700
     20 HD2        -0.9670   -0.8860   -2.2320 h1        1 HMR      0.049700
     21 HD3        -1.1390    0.9220   -2.1680 h1        1 HMR      0.049700
     22 HE          1.3480   -0.2190   -3.2030 hn        1 HMR      0.390800
     23 HH1        -1.6800   -0.0580   -5.7350 hn        1 HMR      0.378400
     24 HH21        0.5350    0.5550   -6.5120 hn        1 HMR      0.378800
     25 HH22        1.7830    0.4200   -5.4510 hn        1 HMR      0.378800
     26 HC1        -1.5530    0.9350    2.5980 hc        1 HMR      0.027200
     27 HC2        -1.5200   -0.8700    2.7680 hc        1 HMR      0.027200
     28 C          -0.2510    0.1880    4.1720 c         1 HMR      0.906600
@<TRIPOS>BOND
     1    1    2 1   
     2    1   13 1   
     3    1   14 1   
     4    2    3 1   
     5    2   11 1   
     6    2   15 1   
     7    3    4 1   
     8    3   16 1   
     9    3   17 1   
    10    4    5 1   
    11    4   18 1   
    12    4   19 1   
    13    5    6 1   
    14    5   20 1   
    15    5   21 1   
    16    6    7 1   
    17    6   22 1   
    18    7    8 2   
    19    7    9 1   
    20    8   23 1   
    21    9   24 1   
    22    9   25 1   
    23   10   28 1   
    24   11   26 1   
    25   11   27 1   
    26   11   28 1   
    27   12   28 1   
@<TRIPOS>SUBSTRUCTURE
     1 HMR         1 TEMP              0 ****  ****    0 ROOT
