@<TRIPOS>MOLECULE
HMS
   23    21     1     0     0
SMALL
bcc


@<TRIPOS>ATOM
      1 O1         -2.5950    2.5170    2.8750 o         1 HMS     -0.937500
      2 P1         -1.1610    2.2900    3.2900 p4        1 HMS      1.694200
      3 O2         -1.1020    2.0410    4.7780 os        1 HMS     -1.221000
      4 O3         -0.3400    3.5100    2.9500 o         1 HMS     -0.986300
      5 O4         -0.5830    1.0350    2.5220 os        1 HMS     -0.576200
      6 C1         -0.5680    1.0580    1.1140 c3        1 HMS      0.204400
      7 C2         -0.0980   -0.2810    0.5930 c3        1 HMS      0.104100
      8 O5          1.2460   -0.4830    0.9620 oh        1 HMS     -0.673800
      9 C3         -0.2160   -0.3050   -0.9140 c3        1 HMS     -0.004900
     10 O6         -1.5750   -0.3570   -1.2770 oh        1 HMS     -0.647800
     11 C4          0.4980   -1.5230   -1.4560 c         1 HMS      0.571100
     12 O7          0.3650   -2.5990   -0.9080 o         1 HMS     -0.613100
     13 C5          1.3750   -1.4020   -2.6830 c3        1 HMS      0.002400
     14 O8          1.8500   -2.6790   -3.0480 oh        1 HMS     -0.641800
     15 H3         -1.4710    1.2390    0.7810 h1        1 HMS     -0.004300
     16 H4          0.0410    1.7610    0.8050 h1        1 HMS     -0.004300
     17 H5         -0.6510   -0.9920    0.9740 h1        1 HMS      0.017700
     18 H6          1.2810   -1.0050    1.6810 ho        1 HMS      0.483000
     19 H7          0.1900    0.5030   -1.2850 h1        1 HMS      0.167700
     20 H8         -1.7080    0.1470   -1.9970 ho        1 HMS      0.473000
     21 H9          2.1340   -0.8150   -2.4850 h1        1 HMS      0.095700
     22 H10         0.8540   -1.0240   -3.4210 h1        1 HMS      0.095700
     23 H11         2.2320   -2.6340   -3.8500 ho        1 HMS      0.402000
@<TRIPOS>BOND
     1    1    2 1   
     2    2    4 2   
     3    2    5 1   
     4    5    6 1   
     5    6    7 1   
     6    6   15 1   
     7    6   16 1   
     8    7    8 1   
     9    7    9 1   
    10    7   17 1   
    11    8   18 1   
    12    9   10 1   
    13    9   11 1   
    14    9   19 1   
    15   10   20 1   
    16   11   12 2   
    17   11   13 1   
    18   13   14 1   
    19   13   21 1   
    20   13   22 1   
    21   14   23 1   
@<TRIPOS>SUBSTRUCTURE
     1 HMS         1 TEMP              0 ****  ****    0 ROOT
