@<TRIPOS>MOLECULE
HMS
   23    22     1     0     0
SMALL
bcc


@<TRIPOS>ATOM
      1 O1         -1.2870   -1.1290   -1.4280 o         1 HMS     -0.925500
      2 P1         -1.7710    0.2690   -1.1160 p5        1 HMS      1.325900
      3 O2         -0.7160    1.3040   -1.4410 o         1 HMS     -0.925500
      4 O3         -3.2130    0.5900   -1.3450 o         1 HMS     -0.925500
      5 O4         -1.5490    0.3290    0.6040 os        1 HMS     -0.576200
      6 C1         -0.6560   -0.5520    1.1570 c3        1 HMS      0.204400
      7 C2          0.8220   -0.0800    1.0370 c3        1 HMS      0.104100
      8 O5          0.8840    1.3330    1.0380 oh        1 HMS     -0.673800
      9 C3          1.4370   -0.6050   -0.2880 c3        1 HMS     -0.004900
     10 O6          1.3020   -2.0100   -0.4030 oh        1 HMS     -0.647800
     11 C4          2.8910   -0.2400   -0.3910 c         1 HMS      0.571100
     12 O7          3.8540   -0.9630   -0.0890 o         1 HMS     -0.613100
     13 C5          3.1450    1.1610   -0.9010 c3        1 HMS      0.002400
     14 O8          4.5230    1.4800   -1.0280 oh        1 HMS     -0.641800
     15 H3         -0.8780   -0.6290    2.2630 h1        1 HMS     -0.004300
     16 H4         -0.7620   -1.5710    0.6940 h1        1 HMS     -0.004300
     17 H5          1.4240   -0.4240    1.9160 h1        1 HMS      0.017700
     18 H6          0.1940    1.6230    0.3890 ho        1 HMS      0.483000
     19 H7          0.8300   -0.0860   -1.1170 h1        1 HMS      0.167700
     20 H8          0.4390   -2.1430   -0.8500 ho        1 HMS      0.473000
     21 H9          2.6860    1.2870   -1.9190 h1        1 HMS      0.095700
     22 H10         2.6670    1.8940   -0.1920 h1        1 HMS      0.095700
     23 H11         5.0250    0.7820   -0.5860 ho        1 HMS      0.402000
@<TRIPOS>BOND
     1    1    2 1   
     2    2    3 1   
     3    2    4 1   
     4    2    5 1   
     5    5    6 1   
     6    6    7 1   
     7    6   15 1   
     8    6   16 1   
     9    7    8 1   
    10    7    9 1   
    11    7   17 1   
    12    8   18 1   
    13    9   10 1   
    14    9   11 1   
    15    9   19 1   
    16   10   20 1   
    17   11   12 2   
    18   11   13 1   
    19   13   14 1   
    20   13   21 1   
    21   13   22 1   
    22   14   23 1   
@<TRIPOS>SUBSTRUCTURE
     1 HMS         1 TEMP              0 ****  ****    0 ROOT
