@<TRIPOS>MOLECULE
HMT
   78    82     1     0     0
SMALL
bcc


@<TRIPOS>ATOM
      1 C18         2.5560    0.8900   -4.6360 c3        1 HMT      0.110700
      2 O3          1.5370    1.0990   -3.6590 os        1 HMT     -0.302900
      3 C2          1.9950    1.3280   -2.3920 c2        1 HMT      0.059900
      4 C1          3.2510    1.3990   -1.9140 c2        1 HMT     -0.300200
      5 C9          3.2710    1.6930   -0.4220 c3        1 HMT      0.248400
      6 C12         3.8780    3.1130   -0.2200 c3        1 HMT     -0.075400
      7 C11         5.3280    2.8870    0.1890 c3        1 HMT     -0.087400
      8 C10         5.4430    1.3880    0.5110 c3        1 HMT      0.172800
      9 N1          4.1160    0.7940    0.3780 n3        1 HMT     -0.726600
     10 C8          4.1060   -0.5970   -0.0140 c3        1 HMT      0.191800
     11 C7          2.6910   -1.1750   -0.1180 c3        1 HMT     -0.044100
     12 C6          1.8130   -0.6920    0.9830 ca        1 HMT     -0.033300
     13 C16         1.4660   -1.6180    1.9940 ca        1 HMT     -0.118000
     14 C15         0.6710   -1.1560    3.0180 ca        1 HMT      0.055100
     15 O2          0.1920   -1.8370    4.1330 os        1 HMT     -0.333900
     16 C17        -0.5840   -0.8880    4.8990 c3        1 HMT      0.321200
     17 O1         -0.5820    0.3700    4.1840 os        1 HMT     -0.350900
     18 C14         0.2070    0.1820    3.0480 ca        1 HMT      0.039100
     19 C13         0.5280    1.0910    2.0650 ca        1 HMT     -0.101000
     20 C5          1.3680    0.6390    1.0160 ca        1 HMT     -0.040300
     21 C4          1.7510    1.6650   -0.0020 c3        1 HMT     -0.001400
     22 C3          0.9470    1.5910   -1.3340 c3        1 HMT      0.187300
     23 O4         -0.0260    0.5450   -1.2850 os        1 HMT     -0.413900
     24 C19        -1.1920    0.7310   -1.9760 c         1 HMT      0.606100
     25 O5         -1.3830    1.7790   -2.5900 o         1 HMT     -0.523000
     26 C20        -2.1550   -0.4510   -1.8450 c3        1 HMT      0.141800
     27 C21        -2.5500   -0.8620   -3.2720 c3        1 HMT     -0.124400
     28 C22        -3.4210   -2.0780   -3.3090 c         1 HMT      0.649100
     29 O8         -4.4960   -2.2940   -2.7460 o         1 HMT     -0.544000
     30 O7         -2.9280   -3.0440   -4.1440 os        1 HMT     -0.433900
     31 C23        -3.6880   -4.2480   -4.2540 c3        1 HMT      0.125700
     32 O6         -1.5200   -1.5730   -1.2650 oh        1 HMT     -0.577800
     33 C24        -3.3670    0.0240   -1.0350 c3        1 HMT     -0.122400
     34 C25        -3.0240    0.2940    0.4140 c3        1 HMT     -0.086400
     35 C26        -4.0870    1.1460    1.0730 c3        1 HMT     -0.065400
     36 C27        -3.7630    1.4600    2.5380 c3        1 HMT      0.153800
     37 C28        -4.8090    2.4210    3.0970 c3        1 HMT     -0.121100
     38 C29        -3.7280    0.1910    3.3810 c3        1 HMT     -0.121100
     39 O9         -2.4920    2.1150    2.5400 oh        1 HMT     -0.609800
     40 H18         3.1680   -0.0060   -4.3740 h1        1 HMT      0.046700
     41 H18A        1.9820    0.7220   -5.5820 h1        1 HMT      0.046700
     42 H18B        3.2070    1.7940   -4.7180 h1        1 HMT      0.046700
     43 H1          4.1810    1.2900   -2.4700 ha        1 HMT      0.149000
     44 H12         3.8010    3.7060   -1.1620 hc        1 HMT      0.054200
     45 H12A        3.3310    3.6630    0.5860 hc        1 HMT      0.054200
     46 H11         6.0270    3.1610   -0.6380 hc        1 HMT      0.048200
     47 H11A        5.5950    3.5020    1.0820 hc        1 HMT      0.048200
     48 H10         6.2000    0.9030   -0.1670 h1        1 HMT      0.038200
     49 H10A        5.7770    1.2270    1.5710 h1        1 HMT      0.038200
     50 H8          4.6270   -0.7700   -1.0020 h1        1 HMT      0.032200
     51 H8A         4.6790   -1.1590    0.7770 h1        1 HMT      0.032200
     52 H7          2.2320   -0.8770   -1.1020 hc        1 HMT      0.061700
     53 H7A         2.7710   -2.2940   -0.1050 hc        1 HMT      0.061700
     54 H16         1.8240   -2.6550    1.9620 ha        1 HMT      0.154000
     55 H17        -1.6380   -1.2560    4.9610 h2        1 HMT      0.069700
     56 H17A       -0.0900   -0.7380    5.8900 h2        1 HMT      0.069700
     57 H13         0.1320    2.1160    2.0900 ha        1 HMT      0.161000
     58 H4          1.5170    2.6770    0.4390 hc        1 HMT      0.067700
     59 H3          0.4390    2.5750   -1.5410 h1        1 HMT      0.097700
     60 H21        -3.1100   -0.0110   -3.7450 hc        1 HMT      0.100700
     61 H21A       -1.6170   -1.0570   -3.8650 hc        1 HMT      0.100700
     62 H23        -3.0910   -4.8730   -4.9630 h1        1 HMT      0.050700
     63 H23A       -3.7760   -4.7350   -3.2530 h1        1 HMT      0.050700
     64 H23B       -4.7030   -4.0220   -4.6600 h1        1 HMT      0.050700
     65 HO6        -1.1750   -1.2990   -0.4030 ho        1 HMT      0.430000
     66 H24        -3.7650    0.9540   -1.5190 hc        1 HMT      0.080200
     67 H24A       -4.1640   -0.7660   -1.0950 hc        1 HMT      0.080200
     68 H25        -2.9240   -0.6810    0.9610 hc        1 HMT      0.053200
     69 H25A       -2.0340    0.8220    0.4900 hc        1 HMT      0.053200
     70 H26        -4.1800    2.1160    0.5170 hc        1 HMT      0.050700
     71 H26A       -5.0780    0.6250    1.0330 hc        1 HMT      0.050700
     72 H28        -5.8180    1.9500    3.0620 hc        1 HMT      0.042367
     73 H28A       -4.5640    2.6810    4.1540 hc        1 HMT      0.042367
     74 H28B       -4.8210    3.3610    2.4960 hc        1 HMT      0.042367
     75 H29        -2.8180   -0.4090    3.1340 hc        1 HMT      0.042367
     76 H29A       -3.6880    0.4490    4.4670 hc        1 HMT      0.042367
     77 H29B       -4.6380   -0.4240    3.1890 hc        1 HMT      0.042367
     78 HO9        -2.0900    1.9620    3.4050 ho        1 HMT      0.412000
@<TRIPOS>BOND
     1    1    2 1   
     2    1   40 1   
     3    1   41 1   
     4    1   42 1   
     5    2    3 1   
     6    3    4 2   
     7    3   22 1   
     8    4    5 1   
     9    4   43 1   
    10    5    6 1   
    11    5    9 1   
    12    5   21 1   
    13    6    7 1   
    14    6   44 1   
    15    6   45 1   
    16    7    8 1   
    17    7   46 1   
    18    7   47 1   
    19    8    9 1   
    20    8   48 1   
    21    8   49 1   
    22    9   10 1   
    23   10   11 1   
    24   10   50 1   
    25   10   51 1   
    26   11   12 1   
    27   11   52 1   
    28   11   53 1   
    29   12   13 ar  
    30   12   20 ar  
    31   13   14 ar  
    32   13   54 1   
    33   14   15 1   
    34   14   18 ar  
    35   15   16 1   
    36   16   17 1   
    37   16   55 1   
    38   16   56 1   
    39   17   18 1   
    40   18   19 ar  
    41   19   20 ar  
    42   19   57 1   
    43   20   21 1   
    44   21   22 1   
    45   21   58 1   
    46   22   23 1   
    47   22   59 1   
    48   23   24 1   
    49   24   25 2   
    50   24   26 1   
    51   26   27 1   
    52   26   32 1   
    53   26   33 1   
    54   27   28 1   
    55   27   60 1   
    56   27   61 1   
    57   28   29 2   
    58   28   30 1   
    59   30   31 1   
    60   31   62 1   
    61   31   63 1   
    62   31   64 1   
    63   32   65 1   
    64   33   34 1   
    65   33   66 1   
    66   33   67 1   
    67   34   35 1   
    68   34   68 1   
    69   34   69 1   
    70   35   36 1   
    71   35   70 1   
    72   35   71 1   
    73   36   37 1   
    74   36   38 1   
    75   36   39 1   
    76   37   72 1   
    77   37   73 1   
    78   37   74 1   
    79   38   75 1   
    80   38   76 1   
    81   38   77 1   
    82   39   78 1   
@<TRIPOS>SUBSTRUCTURE
     1 HMT         1 TEMP              0 ****  ****    0 ROOT
