@<TRIPOS>MOLECULE
HMT
   78    79     1     0     0
SMALL
bcc


@<TRIPOS>ATOM
      1 C18        -0.1910    3.1050   -3.8020 c3        1 HMT     -0.087000
      2 O3          0.8100    2.1320   -3.5880 os        1 HMT     -0.209000
      3 C2          1.3190    2.1160   -2.2720 c2        1 HMT     -0.006000
      4 C1          1.9780    3.1690   -1.8010 c1        1 HMT     -0.205000
      5 C9          1.9440    3.3010   -0.3930 c2        1 HMT      0.074000
      6 C12         1.2970    4.5840   -0.0020 c3        1 HMT     -0.153000
      7 C11         2.2370    5.3100    0.8670 c3        1 HMT     -0.166000
      8 C10         3.5320    4.5830    0.8350 c3        1 HMT     -0.062000
      9 N1          3.3030    3.2820    0.1640 n3        1 HMT     -0.256000
     10 C8          4.1240    2.3290   -0.5190 c3        1 HMT     -0.044000
     11 C7          3.3100    1.1370   -0.9610 c3        1 HMT     -0.134000
     12 C6          2.7280    0.3980    0.2430 c2        1 HMT     -0.031000
     13 C16         3.2220   -0.7850    0.8150 c2        1 HMT     -0.120000
     14 C15         2.8650   -1.1340    2.1300 c1        1 HMT      0.011000
     15 O2          3.1080   -2.3100    2.9000 o         1 HMT     -0.218000
     16 C17         2.3650   -2.2110    4.0850 c3        1 HMT      0.099000
     17 O1          1.7200   -0.9640    4.0930 os        1 HMT     -0.221000
     18 C14         2.0220   -0.3060    2.8650 c2        1 HMT      0.001000
     19 C13         1.5270    0.8800    2.2920 c1        1 HMT     -0.111000
     20 C5          1.8840    1.2280    0.9790 c1        1 HMT     -0.031000
     21 C4          1.1060    2.0920    0.1000 c3        1 HMT     -0.051000
     22 C3          0.6810    1.2910   -1.2520 c3        1 HMT      0.047000
     23 O4          1.0620   -0.0570   -1.2720 os        1 HMT     -0.267000
     24 C19        -0.0190   -0.9530   -1.4200 c2        1 HMT      0.283000
     25 O5         -1.0220   -0.6020   -2.0100 o         1 HMT     -0.337000
     26 C20         0.0270   -2.3070   -0.7490 c3        1 HMT      0.128000
     27 C21        -0.5930   -3.3420   -1.6600 c3        1 HMT     -0.152000
     28 C22        -1.7790   -2.7310   -2.3880 c2        1 HMT      0.304000
     29 O8         -1.6340   -1.7190   -3.0420 o         1 HMT     -0.335000
     30 O7         -3.0300   -3.3650   -2.3460 os        1 HMT     -0.281000
     31 C23        -3.3990   -3.9800   -3.5580 c3        1 HMT     -0.073000
     32 O6          1.3670   -2.6560   -0.4850 oh        1 HMT     -0.317000
     33 C24        -0.7480   -2.2510    0.5550 c3        1 HMT     -0.190000
     34 C25        -2.2330   -2.3160    0.2640 c3        1 HMT     -0.165000
     35 C26        -2.9850   -2.6460    1.5400 c3        1 HMT     -0.143000
     36 C27        -4.2500   -1.8130    1.6110 c3        1 HMT      0.079000
     37 C28        -5.1530   -2.3580    2.6970 c3        1 HMT     -0.242500
     38 C29        -3.8920   -0.3790    1.9260 c3        1 HMT     -0.242500
     39 O9         -4.9200   -1.8680    0.3710 oh        1 HMT     -0.333000
     40 H18         0.0180    3.9090   -3.2820 h1        1 HMT      0.089333
     41 H18A       -1.0600    2.7490   -3.5160 h1        1 HMT      0.089333
     42 H18B       -0.2280    3.3330   -4.7570 h1        1 HMT      0.089333
     43 H1          2.7200    3.5460   -2.3080 ha        1 HMT      0.156000
     44 H12         1.1050    5.1160   -0.8010 hc        1 HMT      0.093000
     45 H12A        0.4670    4.4030    0.4840 hc        1 HMT      0.093000
     46 H11         2.3590    6.2240    0.5340 hc        1 HMT      0.089000
     47 H11A        1.8910    5.3330    1.7820 hc        1 HMT      0.089000
     48 H10         4.1920    5.1030    0.3340 h1        1 HMT      0.078500
     49 H10A        3.8520    4.4340    1.7490 h1        1 HMT      0.078500
     50 H8          4.5250    2.7540   -1.3040 h1        1 HMT      0.074500
     51 H8A         4.8360    2.0280    0.0830 h1        1 HMT      0.074500
     52 H7          3.8830    0.5260   -1.4680 hc        1 HMT      0.103000
     53 H7A         2.5840    1.4400   -1.5310 hc        1 HMT      0.103000
     54 H16         3.8420   -1.3500    0.3120 ha        1 HMT      0.154000
     55 H17         1.6970   -2.9300    4.1180 h2        1 HMT      0.110000
     56 H17A        2.9640   -2.2800    4.8580 h2        1 HMT      0.110000
     57 H13         0.9490    1.4680    2.8130 ha        1 HMT      0.150000
     58 H4          0.3090    2.4080    0.5640 hc        1 HMT      0.103000
     59 H3         -0.2870    1.2330   -1.3660 h1        1 HMT      0.128000
     60 H21         0.0720   -3.6420   -2.3130 hc        1 HMT      0.141000
     61 H21A       -0.8960   -4.1060   -1.1280 hc        1 HMT      0.141000
     62 H23        -3.9980   -3.3830   -4.0590 h1        1 HMT      0.096667
     63 H23A       -3.8610   -4.8240   -3.3690 h1        1 HMT      0.096667
     64 H23B       -2.5950   -4.1590   -4.0920 h1        1 HMT      0.096667
     65 HO6         1.5040   -3.5040   -0.7180 ho        1 HMT      0.228000
     66 H24        -0.4930   -3.0090    1.1190 hc        1 HMT      0.110500
     67 H24A       -0.5440   -1.4160    1.0200 hc        1 HMT      0.110500
     68 H25        -2.4040   -3.0100   -0.4040 hc        1 HMT      0.099500
     69 H25A       -2.5360   -1.4530   -0.0790 hc        1 HMT      0.099500
     70 H26        -2.4180   -2.4470    2.3140 hc        1 HMT      0.090500
     71 H26A       -3.2190   -3.5950    1.5440 hc        1 HMT      0.090500
     72 H28        -4.7610   -2.1650    3.5760 hc        1 HMT      0.083667
     73 H28A       -5.2470   -3.3280    2.5880 hc        1 HMT      0.083667
     74 H28B       -6.0350   -1.9350    2.6320 hc        1 HMT      0.083667
     75 H29        -3.3200   -0.0210    1.2150 hc        1 HMT      0.083667
     76 H29A       -3.4100   -0.3420    2.7820 hc        1 HMT      0.083667
     77 H29B       -4.7100    0.1560    1.9880 hc        1 HMT      0.083667
     78 HO9        -5.4330   -1.1460    0.2780 ho        1 HMT      0.199000
@<TRIPOS>BOND
     1    1    2 1   
     2    1   40 1   
     3    1   41 1   
     4    1   42 1   
     5    2    3 1   
     6    3    4 1   
     7    3   22 1   
     8    4   43 1   
     9    5    6 1   
    10    5    9 1   
    11    5   21 1   
    12    6    7 1   
    13    6   44 1   
    14    6   45 1   
    15    7    8 1   
    16    7   46 1   
    17    7   47 1   
    18    8    9 1   
    19    8   48 1   
    20    8   49 1   
    21    9   10 1   
    22   10   11 1   
    23   10   50 1   
    24   10   51 1   
    25   11   12 1   
    26   11   52 1   
    27   11   53 1   
    28   12   13 1   
    29   12   20 1   
    30   13   14 1   
    31   13   54 1   
    32   14   18 1   
    33   15   16 1   
    34   16   17 1   
    35   16   55 1   
    36   16   56 1   
    37   17   18 1   
    38   18   19 1   
    39   19   57 1   
    40   20   21 1   
    41   21   22 1   
    42   21   58 1   
    43   22   23 1   
    44   22   59 1   
    45   23   24 1   
    46   24   25 1   
    47   24   26 1   
    48   26   27 1   
    49   26   32 1   
    50   26   33 1   
    51   27   28 1   
    52   27   60 1   
    53   27   61 1   
    54   28   29 1   
    55   28   30 1   
    56   30   31 1   
    57   31   62 1   
    58   31   63 1   
    59   31   64 1   
    60   32   65 1   
    61   33   34 1   
    62   33   66 1   
    63   33   67 1   
    64   34   35 1   
    65   34   68 1   
    66   34   69 1   
    67   35   36 1   
    68   35   70 1   
    69   35   71 1   
    70   36   37 1   
    71   36   38 1   
    72   36   39 1   
    73   37   72 1   
    74   37   73 1   
    75   37   74 1   
    76   38   75 1   
    77   38   76 1   
    78   38   77 1   
    79   39   78 1   
@<TRIPOS>SUBSTRUCTURE
     1 HMT         1 TEMP              0 ****  ****    0 ROOT
