@<TRIPOS>MOLECULE
HMT
   78    82     1     0     0
SMALL
bcc


@<TRIPOS>ATOM
      1 C18        -0.6390   -0.1080    0.1440 c3        1 HMT      0.110700
      2 O3          0.7690   -0.3110    0.0350 os        1 HMT     -0.309900
      3 C2          1.4650   -0.1390    1.2000 c2        1 HMT      0.059900
      4 C1          1.0390    0.1780    2.4360 c2        1 HMT     -0.294200
      5 C9          2.1860    0.2270    3.4340 c3        1 HMT      0.250400
      6 C12         1.9620   -0.9130    4.4720 c3        1 HMT     -0.074400
      7 C11         1.3400   -0.2410    5.6910 c3        1 HMT     -0.087400
      8 C10         1.5070    1.2700    5.4640 c3        1 HMT      0.174800
      9 N1          2.2680    1.4570    4.2330 n3        1 HMT     -0.728600
     10 C8          2.0100    2.6950    3.5330 c3        1 HMT      0.192800
     11 C7          2.8740    2.8650    2.2800 c3        1 HMT     -0.042100
     12 C6          4.2660    2.3770    2.4850 ca        1 HMT     -0.019300
     13 C16         5.2980    3.3410    2.5420 ca        1 HMT     -0.111000
     14 C15         6.5790    2.8720    2.7290 ca        1 HMT      0.056100
     15 O2          7.7700    3.5890    2.8210 os        1 HMT     -0.336900
     16 C17         8.8240    2.6190    3.0110 c3        1 HMT      0.319200
     17 O1          8.2240    1.3040    3.0350 os        1 HMT     -0.340900
     18 C14         6.8530    1.4880    2.8600 ca        1 HMT      0.042100
     19 C13         5.8560    0.5400    2.8090 ca        1 HMT     -0.106000
     20 C5          4.5320    1.0040    2.6140 ca        1 HMT     -0.040300
     21 C4          3.4690   -0.0440    2.5620 c3        1 HMT     -0.003400
     22 C3          2.9590   -0.3670    1.1260 c3        1 HMT      0.177300
     23 O4          3.5310    0.5130    0.1520 os        1 HMT     -0.378900
     24 C19         4.0210   -0.0380   -0.9950 c         1 HMT      0.646100
     25 O5          4.0330   -1.2600   -1.1430 o         1 HMT     -0.536000
     26 C20         4.4880    0.9920   -2.0210 c3        1 HMT      0.134800
     27 C21         3.4020    1.0350   -3.1110 c3        1 HMT     -0.167400
     28 C22         3.6920    2.0570   -4.1620 c         1 HMT      0.639100
     29 O8          4.4720    3.0130   -4.1240 o         1 HMT     -0.558000
     30 O7          2.9520    1.8720   -5.2960 os        1 HMT     -0.432900
     31 C23         3.1390    2.8210   -6.3480 c3        1 HMT      0.125700
     32 O6          4.5760    2.2430   -1.3640 oh        1 HMT     -0.572800
     33 C24         5.8320    0.5510   -2.6110 c3        1 HMT     -0.112400
     34 C25         6.9360    0.5380   -1.5760 c3        1 HMT     -0.082400
     35 C26         8.2770    0.2830   -2.2300 c3        1 HMT     -0.063400
     36 C27         9.3960    0.0420   -1.2110 c3        1 HMT      0.151800
     37 C28        10.7260   -0.1110   -1.9430 c3        1 HMT     -0.126600
     38 C29         9.4900    1.1740   -0.1960 c3        1 HMT     -0.126600
     39 O9          9.0710   -1.1860   -0.5560 oh        1 HMT     -0.596800
     40 H18        -1.0130   -0.2930   -0.8940 h1        1 HMT      0.045700
     41 H18A       -0.8570    0.9380    0.4680 h1        1 HMT      0.045700
     42 H18B       -1.0820   -0.8380    0.8640 h1        1 HMT      0.045700
     43 H1          0.0160    0.3660    2.7590 ha        1 HMT      0.147000
     44 H12         1.2970   -1.7020    4.0480 hc        1 HMT      0.053200
     45 H12A        2.9370   -1.3870    4.7480 hc        1 HMT      0.053200
     46 H11         1.8530   -0.5580    6.6300 hc        1 HMT      0.047200
     47 H11A        0.2580   -0.5030    5.7850 hc        1 HMT      0.047200
     48 H10         2.0940    1.7410    6.2980 h1        1 HMT      0.037200
     49 H10A        0.4980    1.7700    5.4270 h1        1 HMT      0.037200
     50 H8          0.9260    2.7970    3.2270 h1        1 HMT      0.029700
     51 H8A         2.2390    3.5270    4.2570 h1        1 HMT      0.029700
     52 H7          2.8690    3.9500    2.0000 hc        1 HMT      0.062200
     53 H7A         2.4180    2.2900    1.4250 hc        1 HMT      0.062200
     54 H16         5.0840    4.4110    2.4370 ha        1 HMT      0.151000
     55 H17         9.3120    2.8090    3.9980 h2        1 HMT      0.067700
     56 H17A        9.5200    2.6720    2.1360 h2        1 HMT      0.067700
     57 H13         6.0800   -0.5300    2.9130 ha        1 HMT      0.150000
     58 H4          3.9210   -1.0050    2.9450 hc        1 HMT      0.064700
     59 H3          3.1750   -1.4410    0.8670 h1        1 HMT      0.101700
     60 H21         3.3030    0.0210   -3.5840 hc        1 HMT      0.105700
     61 H21A        2.4170    1.3020   -2.6390 hc        1 HMT      0.105700
     62 H23         2.4380    2.4700   -7.1450 h1        1 HMT      0.053700
     63 H23A        4.1990    2.8010   -6.6940 h1        1 HMT      0.053700
     64 H23B        2.8720    3.8440   -5.9880 h1        1 HMT      0.053700
     65 HO6         5.0050    2.8540   -1.9830 ho        1 HMT      0.432000
     66 H24         6.0970    1.2590   -3.4410 hc        1 HMT      0.066200
     67 H24A        5.7090   -0.4750   -3.0480 hc        1 HMT      0.066200
     68 H25         6.7340   -0.2650   -0.8170 hc        1 HMT      0.063200
     69 H25A        6.9530    1.5200   -1.0330 hc        1 HMT      0.063200
     70 H26         8.5660    1.1580   -2.8680 hc        1 HMT      0.048200
     71 H26A        8.2050   -0.6210   -2.8890 hc        1 HMT      0.048200
     72 H28        11.5390   -0.3530   -1.2180 hc        1 HMT      0.043867
     73 H28A       10.9840    0.8370   -2.4710 hc        1 HMT      0.043867
     74 H28B       10.6580   -0.9390   -2.6890 hc        1 HMT      0.043867
     75 H29        10.4380    1.0920    0.3890 hc        1 HMT      0.043867
     76 H29A        8.6310    1.1230    0.5190 hc        1 HMT      0.043867
     77 H29B        9.4730    2.1600   -0.7170 hc        1 HMT      0.043867
     78 HO9         9.7130   -1.3000    0.1540 ho        1 HMT      0.399000
@<TRIPOS>BOND
     1    1    2 1   
     2    1   40 1   
     3    1   41 1   
     4    1   42 1   
     5    2    3 1   
     6    3    4 2   
     7    3   22 1   
     8    4    5 1   
     9    4   43 1   
    10    5    6 1   
    11    5    9 1   
    12    5   21 1   
    13    6    7 1   
    14    6   44 1   
    15    6   45 1   
    16    7    8 1   
    17    7   46 1   
    18    7   47 1   
    19    8    9 1   
    20    8   48 1   
    21    8   49 1   
    22    9   10 1   
    23   10   11 1   
    24   10   50 1   
    25   10   51 1   
    26   11   12 1   
    27   11   52 1   
    28   11   53 1   
    29   12   13 ar  
    30   12   20 ar  
    31   13   14 ar  
    32   13   54 1   
    33   14   15 1   
    34   14   18 ar  
    35   15   16 1   
    36   16   17 1   
    37   16   55 1   
    38   16   56 1   
    39   17   18 1   
    40   18   19 ar  
    41   19   20 ar  
    42   19   57 1   
    43   20   21 1   
    44   21   22 1   
    45   21   58 1   
    46   22   23 1   
    47   22   59 1   
    48   23   24 1   
    49   24   25 2   
    50   24   26 1   
    51   26   27 1   
    52   26   32 1   
    53   26   33 1   
    54   27   28 1   
    55   27   60 1   
    56   27   61 1   
    57   28   29 2   
    58   28   30 1   
    59   30   31 1   
    60   31   62 1   
    61   31   63 1   
    62   31   64 1   
    63   32   65 1   
    64   33   34 1   
    65   33   66 1   
    66   33   67 1   
    67   34   35 1   
    68   34   68 1   
    69   34   69 1   
    70   35   36 1   
    71   35   70 1   
    72   35   71 1   
    73   36   37 1   
    74   36   38 1   
    75   36   39 1   
    76   37   72 1   
    77   37   73 1   
    78   37   74 1   
    79   38   75 1   
    80   38   76 1   
    81   38   77 1   
    82   39   78 1   
@<TRIPOS>SUBSTRUCTURE
     1 HMT         1 TEMP              0 ****  ****    0 ROOT
