@<TRIPOS>MOLECULE
HMT
   78    82     1     0     0
SMALL
bcc


@<TRIPOS>ATOM
      1 C18        -0.6300   -0.1130    0.1730 c3        1 HMT      0.110700
      2 O3          0.7780   -0.3180    0.0610 os        1 HMT     -0.309900
      3 C2          1.4770   -0.1380    1.2220 c2        1 HMT      0.059900
      4 C1          1.0560    0.1880    2.4580 c2        1 HMT     -0.294200
      5 C9          2.2060    0.2430    3.4510 c3        1 HMT      0.250400
      6 C12         1.9850   -0.8900    4.4980 c3        1 HMT     -0.074400
      7 C11         1.3670   -0.2090    5.7140 c3        1 HMT     -0.087400
      8 C10         1.5350    1.3010    5.4760 c3        1 HMT      0.174800
      9 N1          2.2920    1.4790    4.2410 n3        1 HMT     -0.728600
     10 C8          2.0330    2.7120    3.5330 c3        1 HMT      0.192800
     11 C7          2.8930    2.8720    2.2760 c3        1 HMT     -0.042100
     12 C6          4.2850    2.3840    2.4800 ca        1 HMT     -0.019300
     13 C16         5.3190    3.3470    2.5260 ca        1 HMT     -0.111000
     14 C15         6.6000    2.8780    2.7130 ca        1 HMT      0.056100
     15 O2          7.7920    3.5950    2.7960 os        1 HMT     -0.336900
     16 C17         8.8460    2.6250    2.9890 c3        1 HMT      0.319200
     17 O1          8.2440    1.3110    3.0240 os        1 HMT     -0.340900
     18 C14         6.8730    1.4950    2.8530 ca        1 HMT      0.042100
     19 C13         5.8750    0.5480    2.8120 ca        1 HMT     -0.106000
     20 C5          4.5510    1.0120    2.6180 ca        1 HMT     -0.040300
     21 C4          3.4860   -0.0360    2.5770 c3        1 HMT     -0.003400
     22 C3          2.9710   -0.3680    1.1440 c3        1 HMT      0.177300
     23 O4          3.5400    0.5050    0.1630 os        1 HMT     -0.378900
     24 C19         4.0250   -0.0540   -0.9820 c         1 HMT      0.646100
     25 O5          4.0350   -1.2780   -1.1220 o         1 HMT     -0.536000
     26 C20         4.4900    0.9680   -2.0170 c3        1 HMT      0.134800
     27 C21         3.4010    1.0040   -3.1040 c3        1 HMT     -0.167400
     28 C22         3.6880    2.0180   -4.1630 c         1 HMT      0.639100
     29 O8          4.4690    2.9740   -4.1340 o         1 HMT     -0.558000
     30 O7          2.9450    1.8260   -5.2930 os        1 HMT     -0.432900
     31 C23         3.1290    2.7680   -6.3520 c3        1 HMT      0.125700
     32 O6          4.5820    2.2230   -1.3690 oh        1 HMT     -0.572800
     33 C24         5.8320    0.5210   -2.6080 c3        1 HMT     -0.112400
     34 C25         6.9400    0.5140   -1.5770 c3        1 HMT     -0.082400
     35 C26         8.2780    0.2530   -2.2330 c3        1 HMT     -0.063400
     36 C27         9.3990    0.0180   -1.2160 c3        1 HMT      0.151800
     37 C28        10.7270   -0.1420   -1.9520 c3        1 HMT     -0.126600
     38 C29         9.4990    1.1570   -0.2100 c3        1 HMT     -0.126600
     39 O9          9.0750   -1.2040   -0.5510 oh        1 HMT     -0.596800
     40 H18        -1.0080   -0.3040   -0.8620 h1        1 HMT      0.045700
     41 H18A       -1.0720   -0.8360    0.9000 h1        1 HMT      0.045700
     42 H18B       -0.8460    0.9360    0.4910 h1        1 HMT      0.045700
     43 H1          0.0340    0.3790    2.7830 ha        1 HMT      0.147000
     44 H12         1.3170   -1.6810    4.0820 hc        1 HMT      0.053200
     45 H12A        2.9600   -1.3620    4.7740 hc        1 HMT      0.053200
     46 H11         1.8830   -0.5190    6.6540 hc        1 HMT      0.047200
     47 H11A        0.2850   -0.4680    5.8130 hc        1 HMT      0.047200
     48 H10         0.5270    1.8020    5.4390 h1        1 HMT      0.037200
     49 H10A        2.1260    1.7770    6.3040 h1        1 HMT      0.037200
     50 H8          2.2660    3.5490    4.2510 h1        1 HMT      0.029700
     51 H8A         0.9490    2.8130    3.2300 h1        1 HMT      0.029700
     52 H7          2.4330    2.2920    1.4270 hc        1 HMT      0.062200
     53 H7A         2.8880    3.9560    1.9890 hc        1 HMT      0.062200
     54 H16         5.1050    4.4170    2.4150 ha        1 HMT      0.151000
     55 H17         9.3360    2.8210    3.9740 h2        1 HMT      0.067700
     56 H17A        9.5390    2.6710    2.1120 h2        1 HMT      0.067700
     57 H13         6.0980   -0.5210    2.9220 ha        1 HMT      0.150000
     58 H4          3.9380   -0.9940    2.9650 hc        1 HMT      0.064700
     59 H3          3.1850   -1.4440    0.8920 h1        1 HMT      0.101700
     60 H21         3.3000   -0.0130   -3.5690 hc        1 HMT      0.105700
     61 H21A        2.4180    1.2760   -2.6310 hc        1 HMT      0.105700
     62 H23         2.4260    2.4110   -7.1450 h1        1 HMT      0.053700
     63 H23A        2.8640    3.7930   -5.9990 h1        1 HMT      0.053700
     64 H23B        4.1890    2.7440   -6.7020 h1        1 HMT      0.053700
     65 HO6         5.0100    2.8290   -1.9940 ho        1 HMT      0.432000
     66 H24         5.7060   -0.5080   -3.0370 hc        1 HMT      0.066200
     67 H24A        6.0950    1.2230   -3.4440 hc        1 HMT      0.066200
     68 H25         6.9590    1.5000   -1.0410 hc        1 HMT      0.063200
     69 H25A        6.7390   -0.2830   -0.8110 hc        1 HMT      0.063200
     70 H26         8.5660    1.1230   -2.8780 hc        1 HMT      0.048200
     71 H26A        8.2020   -0.6560   -2.8860 hc        1 HMT      0.048200
     72 H28        10.9850    0.8010   -2.4870 hc        1 HMT      0.043867
     73 H28A       11.5430   -0.3810   -1.2270 hc        1 HMT      0.043867
     74 H28B       10.6560   -0.9750   -2.6910 hc        1 HMT      0.043867
     75 H29        10.4480    1.0780    0.3730 hc        1 HMT      0.043867
     76 H29A        9.4820    2.1390   -0.7380 hc        1 HMT      0.043867
     77 H29B        8.6420    1.1120    0.5080 hc        1 HMT      0.043867
     78 HO9         9.7200   -1.3140    0.1580 ho        1 HMT      0.399000
@<TRIPOS>BOND
     1    1    2 1   
     2    1   40 1   
     3    1   41 1   
     4    1   42 1   
     5    2    3 1   
     6    3    4 2   
     7    3   22 1   
     8    4    5 1   
     9    4   43 1   
    10    5    6 1   
    11    5    9 1   
    12    5   21 1   
    13    6    7 1   
    14    6   44 1   
    15    6   45 1   
    16    7    8 1   
    17    7   46 1   
    18    7   47 1   
    19    8    9 1   
    20    8   48 1   
    21    8   49 1   
    22    9   10 1   
    23   10   11 1   
    24   10   50 1   
    25   10   51 1   
    26   11   12 1   
    27   11   52 1   
    28   11   53 1   
    29   12   13 ar  
    30   12   20 ar  
    31   13   14 ar  
    32   13   54 1   
    33   14   15 1   
    34   14   18 ar  
    35   15   16 1   
    36   16   17 1   
    37   16   55 1   
    38   16   56 1   
    39   17   18 1   
    40   18   19 ar  
    41   19   20 ar  
    42   19   57 1   
    43   20   21 1   
    44   21   22 1   
    45   21   58 1   
    46   22   23 1   
    47   22   59 1   
    48   23   24 1   
    49   24   25 2   
    50   24   26 1   
    51   26   27 1   
    52   26   32 1   
    53   26   33 1   
    54   27   28 1   
    55   27   60 1   
    56   27   61 1   
    57   28   29 2   
    58   28   30 1   
    59   30   31 1   
    60   31   62 1   
    61   31   63 1   
    62   31   64 1   
    63   32   65 1   
    64   33   34 1   
    65   33   66 1   
    66   33   67 1   
    67   34   35 1   
    68   34   68 1   
    69   34   69 1   
    70   35   36 1   
    71   35   70 1   
    72   35   71 1   
    73   36   37 1   
    74   36   38 1   
    75   36   39 1   
    76   37   72 1   
    77   37   73 1   
    78   37   74 1   
    79   38   75 1   
    80   38   76 1   
    81   38   77 1   
    82   39   78 1   
@<TRIPOS>SUBSTRUCTURE
     1 HMT         1 TEMP              0 ****  ****    0 ROOT
