@<TRIPOS>MOLECULE
HMT
   78    82     1     0     0
SMALL
bcc


@<TRIPOS>ATOM
      1 C18        -0.6430   -0.0990    0.1480 c3        1 HMT      0.110700
      2 O3          0.7650   -0.3060    0.0410 os        1 HMT     -0.309900
      3 C2          1.4610   -0.1260    1.2040 c2        1 HMT      0.059900
      4 C1          1.0370    0.2010    2.4380 c2        1 HMT     -0.294200
      5 C9          2.1840    0.2550    3.4350 c3        1 HMT      0.250400
      6 C12         1.9580   -0.8760    4.4820 c3        1 HMT     -0.074400
      7 C11         1.3370   -0.1940    5.6950 c3        1 HMT     -0.087400
      8 C10         1.5080    1.3150    5.4570 c3        1 HMT      0.174800
      9 N1          2.2690    1.4920    4.2240 n3        1 HMT     -0.728600
     10 C8          2.0140    2.7240    3.5140 c3        1 HMT      0.192800
     11 C7          2.8780    2.8820    2.2600 c3        1 HMT     -0.042100
     12 C6          4.2690    2.3930    2.4680 ca        1 HMT     -0.019300
     13 C16         5.3040    3.3540    2.5170 ca        1 HMT     -0.111000
     14 C15         6.5830    2.8840    2.7080 ca        1 HMT      0.056100
     15 O2          7.7760    3.5990    2.7950 os        1 HMT     -0.336900
     16 C17         8.8280    2.6280    2.9920 c3        1 HMT      0.319200
     17 O1          8.2250    1.3150    3.0260 os        1 HMT     -0.340900
     18 C14         6.8540    1.5000    2.8500 ca        1 HMT      0.042100
     19 C13         5.8550    0.5550    2.8070 ca        1 HMT     -0.106000
     20 C5          4.5320    1.0210    2.6080 ca        1 HMT     -0.040300
     21 C4          3.4660   -0.0260    2.5650 c3        1 HMT     -0.003400
     22 C3          2.9550   -0.3590    1.1310 c3        1 HMT      0.177300
     23 O4          3.5280    0.5130    0.1500 os        1 HMT     -0.378900
     24 C19         4.0160   -0.0480   -0.9930 c         1 HMT      0.646100
     25 O5          4.0240   -1.2710   -1.1320 o         1 HMT     -0.536000
     26 C20         4.4860    0.9730   -2.0260 c3        1 HMT      0.134800
     27 C21         3.4000    1.0100   -3.1170 c3        1 HMT     -0.167400
     28 C22         3.6920    2.0240   -4.1750 c         1 HMT      0.639100
     29 O8          4.4750    2.9780   -4.1440 o         1 HMT     -0.558000
     30 O7          2.9530    1.8330   -5.3080 os        1 HMT     -0.432900
     31 C23         3.1410    2.7740   -6.3670 c3        1 HMT      0.125700
     32 O6          4.5770    2.2290   -1.3790 oh        1 HMT     -0.571800
     33 C24         5.8290    0.5240   -2.6130 c3        1 HMT     -0.112400
     34 C25         6.9330    0.5160   -1.5780 c3        1 HMT     -0.082400
     35 C26         8.2730    0.2520   -2.2290 c3        1 HMT     -0.063400
     36 C27         9.3900    0.0160   -1.2080 c3        1 HMT      0.151800
     37 C28        10.7210   -0.1480   -1.9400 c3        1 HMT     -0.126600
     38 C29         9.4890    1.1560   -0.2030 c3        1 HMT     -0.126600
     39 O9          9.0620   -1.2050   -0.5430 oh        1 HMT     -0.596800
     40 H18        -1.0870   -0.8220    0.8750 h1        1 HMT      0.045700
     41 H18A       -1.0180   -0.2910   -0.8880 h1        1 HMT      0.045700
     42 H18B       -0.8590    0.9500    0.4650 h1        1 HMT      0.045700
     43 H1          0.0140    0.3930    2.7600 ha        1 HMT      0.147000
     44 H12         1.2910   -1.6670    4.0640 hc        1 HMT      0.053200
     45 H12A        2.9320   -1.3500    4.7610 hc        1 HMT      0.053200
     46 H11         0.2550   -0.4520    5.7920 hc        1 HMT      0.047200
     47 H11A        1.8500   -0.5040    6.6370 hc        1 HMT      0.047200
     48 H10         0.5010    1.8180    5.4170 h1        1 HMT      0.037200
     49 H10A        2.0970    1.7920    6.2870 h1        1 HMT      0.037200
     50 H8          0.9300    2.8260    3.2080 h1        1 HMT      0.029700
     51 H8A         2.2450    3.5620    4.2320 h1        1 HMT      0.029700
     52 H7          2.8760    3.9660    1.9720 hc        1 HMT      0.062200
     53 H7A         2.4200    2.3020    1.4100 hc        1 HMT      0.062200
     54 H16         5.0910    4.4250    2.4050 ha        1 HMT      0.151000
     55 H17         9.5240    2.6730    2.1160 h2        1 HMT      0.067700
     56 H17A        9.3160    2.8240    3.9780 h2        1 HMT      0.067700
     57 H13         6.0760   -0.5150    2.9190 ha        1 HMT      0.150000
     58 H4          3.9160   -0.9850    2.9550 hc        1 HMT      0.064700
     59 H3          3.1690   -1.4350    0.8800 h1        1 HMT      0.101700
     60 H21         3.2990   -0.0060   -3.5820 hc        1 HMT      0.105700
     61 H21A        2.4160    1.2840   -2.6470 hc        1 HMT      0.105700
     62 H23         4.2020    2.7480   -6.7130 h1        1 HMT      0.053700
     63 H23A        2.4400    2.4180   -7.1620 h1        1 HMT      0.053700
     64 H23B        2.8780    3.8000   -6.0150 h1        1 HMT      0.053700
     65 HO6         5.0080    2.8340   -2.0030 ho        1 HMT      0.432000
     66 H24         6.0960    1.2260   -3.4480 hc        1 HMT      0.066200
     67 H24A        5.7030   -0.5050   -3.0420 hc        1 HMT      0.066200
     68 H25         6.7280   -0.2800   -0.8130 hc        1 HMT      0.063200
     69 H25A        6.9520    1.5020   -1.0430 hc        1 HMT      0.063200
     70 H26         8.1980   -0.6580   -2.8810 hc        1 HMT      0.048200
     71 H26A        8.5640    1.1200   -2.8750 hc        1 HMT      0.048200
     72 H28        10.6500   -0.9820   -2.6780 hc        1 HMT      0.043867
     73 H28A       10.9810    0.7940   -2.4750 hc        1 HMT      0.043867
     74 H28B       11.5330   -0.3870   -1.2120 hc        1 HMT      0.043867
     75 H29         8.6290    1.1130    0.5120 hc        1 HMT      0.043867
     76 H29A        9.4750    2.1370   -0.7330 hc        1 HMT      0.043867
     77 H29B       10.4360    1.0760    0.3820 hc        1 HMT      0.043867
     78 HO9         9.7040   -1.3150    0.1680 ho        1 HMT      0.399000
@<TRIPOS>BOND
     1    1    2 1   
     2    1   40 1   
     3    1   41 1   
     4    1   42 1   
     5    2    3 1   
     6    3    4 2   
     7    3   22 1   
     8    4    5 1   
     9    4   43 1   
    10    5    6 1   
    11    5    9 1   
    12    5   21 1   
    13    6    7 1   
    14    6   44 1   
    15    6   45 1   
    16    7    8 1   
    17    7   46 1   
    18    7   47 1   
    19    8    9 1   
    20    8   48 1   
    21    8   49 1   
    22    9   10 1   
    23   10   11 1   
    24   10   50 1   
    25   10   51 1   
    26   11   12 1   
    27   11   52 1   
    28   11   53 1   
    29   12   13 ar  
    30   12   20 ar  
    31   13   14 ar  
    32   13   54 1   
    33   14   15 1   
    34   14   18 ar  
    35   15   16 1   
    36   16   17 1   
    37   16   55 1   
    38   16   56 1   
    39   17   18 1   
    40   18   19 ar  
    41   19   20 ar  
    42   19   57 1   
    43   20   21 1   
    44   21   22 1   
    45   21   58 1   
    46   22   23 1   
    47   22   59 1   
    48   23   24 1   
    49   24   25 2   
    50   24   26 1   
    51   26   27 1   
    52   26   32 1   
    53   26   33 1   
    54   27   28 1   
    55   27   60 1   
    56   27   61 1   
    57   28   29 2   
    58   28   30 1   
    59   30   31 1   
    60   31   62 1   
    61   31   63 1   
    62   31   64 1   
    63   32   65 1   
    64   33   34 1   
    65   33   66 1   
    66   33   67 1   
    67   34   35 1   
    68   34   68 1   
    69   34   69 1   
    70   35   36 1   
    71   35   70 1   
    72   35   71 1   
    73   36   37 1   
    74   36   38 1   
    75   36   39 1   
    76   37   72 1   
    77   37   73 1   
    78   37   74 1   
    79   38   75 1   
    80   38   76 1   
    81   38   77 1   
    82   39   78 1   
@<TRIPOS>SUBSTRUCTURE
     1 HMT         1 TEMP              0 ****  ****    0 ROOT
