@<TRIPOS>MOLECULE
HMU
   16    16     1     0     0
SMALL
bcc


@<TRIPOS>ATOM
      1 N1          1.4520   -0.0010   -1.0210 n         1 HMU     -0.470100
      2 C2          0.3470   -0.0000   -1.9030 c         1 HMU      0.801500
      3 O2          0.5310   -0.0010   -3.1390 o         1 HMU     -0.636500
      4 N3         -0.9410    0.0010   -1.3490 n         1 HMU     -0.582500
      5 C4         -1.1740    0.0010    0.0390 c         1 HMU      0.720700
      6 O3          1.0290   -0.0000    3.0400 oh        1 HMU     -0.616800
      7 O4         -2.3470    0.0020    0.4480 o         1 HMU     -0.614500
      8 C5          0.0210    0.0010    0.8990 cc        1 HMU     -0.284400
      9 CM5        -0.2240    0.0010    2.3660 c3        1 HMU      0.201600
     10 C6          1.2670   -0.0000    0.3440 cd        1 HMU      0.074600
     11 H1          2.3610   -0.0010   -1.4250 hn        1 HMU      0.356500
     12 H2         -1.7120    0.0010   -1.9820 hn        1 HMU      0.354500
     13 H3          0.8270   -0.0010    3.9820 ho        1 HMU      0.413000
     14 HM51       -0.8150   -0.9130    2.6510 h1        1 HMU      0.047700
     15 HM52       -0.8120    0.9170    2.6510 h1        1 HMU      0.047700
     16 H6          2.1840   -0.0010    0.9680 h4        1 HMU      0.186000
@<TRIPOS>BOND
     1    1    2 1   
     2    1   10 1   
     3    1   11 1   
     4    2    3 2   
     5    2    4 1   
     6    4    5 1   
     7    4   12 1   
     8    5    7 2   
     9    5    8 1   
    10    6    9 1   
    11    6   13 1   
    12    8    9 1   
    13    8   10 2   
    14    9   14 1   
    15    9   15 1   
    16   10   16 1   
@<TRIPOS>SUBSTRUCTURE
     1 HMU         1 TEMP              0 ****  ****    0 ROOT
