@<TRIPOS>MOLECULE
HMU
   16    16     1     0     0
SMALL
bcc


@<TRIPOS>ATOM
      1 N1         -0.0340   -0.0010   -0.0390 ns        1 HMU     -0.470100
      2 C2          1.3790   -0.0000   -0.0560 c         1 HMU      0.801500
      3 O2          1.9930   -0.0010   -1.1440 o         1 HMU     -0.636500
      4 N3          2.0550    0.0020    1.1730 ns        1 HMU     -0.582500
      5 C4          1.3850    0.0030    2.4110 c         1 HMU      0.720700
      6 O3         -2.1960    0.0020    3.4240 oh        1 HMU     -0.616800
      7 O4          2.0600    0.0040    3.4540 o         1 HMU     -0.614500
      8 C5         -0.0860    0.0010    2.3550 cc        1 HMU     -0.284400
      9 CM5        -0.7940    0.0020    3.6630 c3        1 HMU      0.201600
     10 C6         -0.7280   -0.0010    1.1520 cd        1 HMU      0.074600
     11 H1         -0.5030   -0.0030   -0.9160 hn        1 HMU      0.356500
     12 H2          3.0520    0.0020    1.1470 hn        1 HMU      0.354500
     13 H3         -2.6160    0.0040    4.2920 ho        1 HMU      0.413000
     14 HM51       -0.5040   -0.9120    4.2510 h1        1 HMU      0.047700
     15 HM52       -0.5040    0.9180    4.2490 h1        1 HMU      0.047700
     16 H6         -1.8340   -0.0010    1.0800 h4        1 HMU      0.186000
@<TRIPOS>BOND
     1    1    2 1   
     2    1   10 1   
     3    1   11 1   
     4    2    3 2   
     5    2    4 1   
     6    4    5 1   
     7    4   12 1   
     8    5    7 2   
     9    5    8 1   
    10    6    9 1   
    11    6   13 1   
    12    8    9 1   
    13    8   10 2   
    14    9   14 1   
    15    9   15 1   
    16   10   16 1   
@<TRIPOS>SUBSTRUCTURE
     1 HMU         1 TEMP              0 ****  ****    0 ROOT
