@<TRIPOS>MOLECULE
HMU
   16    16     1     0     0
SMALL
bcc


@<TRIPOS>ATOM
      1 N1         -0.0330    0.0000   -0.0390 n         1 HMU     -0.470100
      2 C2          1.3810    0.0010   -0.0550 c         1 HMU      0.801500
      3 O2          1.9950    0.0010   -1.1420 o         1 HMU     -0.636500
      4 N3          2.0550    0.0020    1.1740 n         1 HMU     -0.582500
      5 C4          1.3850    0.0020    2.4120 c         1 HMU      0.720700
      6 O3         -2.1980    0.0050    3.4220 oh        1 HMU     -0.616800
      7 O4          2.0580    0.0030    3.4560 o         1 HMU     -0.614500
      8 C5         -0.0870    0.0010    2.3550 cc        1 HMU     -0.284400
      9 CM5        -0.7950    0.0000    3.6620 c3        1 HMU      0.201600
     10 C6         -0.7270   -0.0000    1.1510 cd        1 HMU      0.074600
     11 H1         -0.5010   -0.0000   -0.9160 hn        1 HMU      0.356500
     12 H2          3.0520    0.0030    1.1500 hn        1 HMU      0.354500
     13 H3         -2.6180    0.0060    4.2900 ho        1 HMU      0.413000
     14 HM51       -0.5020    0.9130    4.2510 h1        1 HMU      0.047700
     15 HM52       -0.5090   -0.9170    4.2480 h1        1 HMU      0.047700
     16 H6         -1.8330   -0.0010    1.0780 h4        1 HMU      0.186000
@<TRIPOS>BOND
     1    1    2 1   
     2    1   10 1   
     3    1   11 1   
     4    2    3 2   
     5    2    4 1   
     6    4    5 1   
     7    4   12 1   
     8    5    7 2   
     9    5    8 1   
    10    6    9 1   
    11    6   13 1   
    12    8    9 1   
    13    8   10 2   
    14    9   14 1   
    15    9   15 1   
    16   10   16 1   
@<TRIPOS>SUBSTRUCTURE
     1 HMU         1 TEMP              0 ****  ****    0 ROOT
