@<TRIPOS>MOLECULE
HMY
   49    51     1     0     0
SMALL
bcc


@<TRIPOS>ATOM
      1 O23         0.4760    1.1430    0.7630 o         1 HMY     -0.536000
      2 C7          1.3130    0.3220    0.3860 c         1 HMY      0.672700
      3 O8          1.7980   -0.6150    1.2500 os        1 HMY     -0.426900
      4 C9          1.4810   -0.5820    2.6510 c3        1 HMY      0.166100
      5 C25         1.6980    0.7740    3.2840 c3        1 HMY     -0.129100
      6 C10         0.1190   -1.2000    2.9460 c3        1 HMY     -0.088200
      7 C11        -1.0530   -0.4150    2.4940 c2        1 HMY     -0.110200
      8 C12        -2.1460   -0.9460    1.9410 ce        1 HMY     -0.250200
      9 C2          1.8960    0.2020   -0.9670 ca        1 HMY     -0.167600
     10 C1          3.2190    0.6250   -1.1890 ca        1 HMY      0.203100
     11 O20         3.9160    1.0860   -0.1000 oh        1 HMY     -0.485100
     12 C6          3.7920    0.5940   -2.4700 ca        1 HMY     -0.293000
     13 C5          3.0140    0.1340   -3.5350 ca        1 HMY      0.186100
     14 O21         3.4510    0.0590   -4.8390 os        1 HMY     -0.316900
     15 C22         4.7760    0.5150   -5.0920 c3        1 HMY      0.110700
     16 C4          1.6900   -0.3000   -3.3320 ca        1 HMY     -0.180000
     17 C3          1.1410   -0.2780   -2.0520 ca        1 HMY      0.022700
     18 C18        -0.2350   -0.7740   -1.8330 cx        1 HMY      0.097400
     19 O31        -1.1500   -0.6480   -2.9380 os        1 HMY     -0.400600
     20 C17        -0.7340   -1.9760   -2.5750 cx        1 HMY      0.077100
     21 C16        -1.7990   -2.9360   -2.1460 c3        1 HMY     -0.110400
     22 C15        -2.5620   -2.6630   -0.8590 c3        1 HMY      0.129100
     23 O29        -3.2160   -1.4110   -0.8150 oh        1 HMY     -0.599800
     24 C14        -1.6530   -2.8690    0.3730 c3        1 HMY      0.009100
     25 O28        -1.3210   -4.2420    0.4810 oh        1 HMY     -0.590800
     26 C13        -2.3320   -2.3730    1.6430 c         1 HMY      0.564300
     27 O24        -2.9980   -3.1520    2.3310 o         1 HMY     -0.527100
     28 H9          2.2680   -1.2990    3.0480 h1        1 HMY      0.073700
     29 H25         1.6940    0.6670    4.3950 hc        1 HMY      0.056033
     30 H25A        2.6840    1.1860    2.9600 hc        1 HMY      0.056033
     31 H25B        0.9030    1.5010    2.9890 hc        1 HMY      0.056033
     32 H10         0.0970   -2.2280    2.4900 hc        1 HMY      0.066700
     33 H10A        0.0460   -1.3250    4.0630 hc        1 HMY      0.066700
     34 H11        -0.9870    0.6780    2.6420 ha        1 HMY      0.152000
     35 H12        -3.0060   -0.3230    1.6340 ha        1 HMY      0.167000
     36 HO20        4.8040    1.3400   -0.3930 ho        1 HMY      0.428000
     37 H6          4.8270    0.9300   -2.6150 ha        1 HMY      0.147000
     38 H22         5.5190   -0.1050   -4.5350 h1        1 HMY      0.049367
     39 H22A        4.8800    1.5940   -4.8200 h1        1 HMY      0.049367
     40 H22B        4.8890    0.3730   -6.1970 h1        1 HMY      0.049367
     41 H4          1.0930   -0.6370   -4.1930 ha        1 HMY      0.168000
     42 H18        -0.6810   -0.4800   -0.8560 h1        1 HMY      0.115700
     43 H17        -0.0420   -2.4320   -3.3210 h1        1 HMY      0.096700
     44 H16        -1.3200   -3.9480   -2.0310 hc        1 HMY      0.080700
     45 H16A       -2.5470   -2.9930   -2.9850 hc        1 HMY      0.080700
     46 H15        -3.4040   -3.4170   -0.7820 h1        1 HMY      0.075700
     47 HO29       -2.7340   -0.7850   -1.3710 ho        1 HMY      0.422000
     48 H14        -0.6640   -2.3480    0.2350 h1        1 HMY      0.094700
     49 HO28       -2.0800   -4.6950    0.8780 ho        1 HMY      0.420000
@<TRIPOS>BOND
     1    1    2 2   
     2    2    3 1   
     3    2    9 1   
     4    3    4 1   
     5    4    5 1   
     6    4    6 1   
     7    4   28 1   
     8    5   29 1   
     9    5   30 1   
    10    5   31 1   
    11    6    7 1   
    12    6   32 1   
    13    6   33 1   
    14    7    8 2   
    15    7   34 1   
    16    8   26 1   
    17    8   35 1   
    18    9   10 ar  
    19    9   17 ar  
    20   10   11 1   
    21   10   12 ar  
    22   11   36 1   
    23   12   13 ar  
    24   12   37 1   
    25   13   14 1   
    26   13   16 ar  
    27   14   15 1   
    28   15   38 1   
    29   15   39 1   
    30   15   40 1   
    31   16   17 ar  
    32   16   41 1   
    33   17   18 1   
    34   18   19 1   
    35   18   20 1   
    36   18   42 1   
    37   19   20 1   
    38   20   21 1   
    39   20   43 1   
    40   21   22 1   
    41   21   44 1   
    42   21   45 1   
    43   22   23 1   
    44   22   24 1   
    45   22   46 1   
    46   23   47 1   
    47   24   25 1   
    48   24   26 1   
    49   24   48 1   
    50   25   49 1   
    51   26   27 2   
@<TRIPOS>SUBSTRUCTURE
     1 HMY         1 TEMP              0 ****  ****    0 ROOT
