@<TRIPOS>MOLECULE
HMY
   49    51     1     0     0
SMALL
bcc


@<TRIPOS>ATOM
      1 O23         0.5710    1.1710    0.8140 o         1 HMY     -0.529000
      2 C7          1.3200    0.2960    0.3800 c         1 HMY      0.673700
      3 O8          1.7160   -0.7340    1.1850 os        1 HMY     -0.430900
      4 C9          1.4770   -0.7130    2.6010 c3        1 HMY      0.167100
      5 C25         1.8230    0.6090    3.2480 c3        1 HMY     -0.128100
      6 C10         0.0900   -1.2350    2.9600 c3        1 HMY     -0.086200
      7 C11        -1.0410   -0.3920    2.5080 c2        1 HMY     -0.114200
      8 C12        -2.1660   -0.8620    1.9640 ce        1 HMY     -0.237200
      9 C2          1.8920    0.2030   -0.9800 ca        1 HMY     -0.165600
     10 C1          3.2090    0.6460   -1.1970 ca        1 HMY      0.200100
     11 O20         3.9040    1.0910   -0.0990 oh        1 HMY     -0.488100
     12 C6          3.7800    0.6450   -2.4790 ca        1 HMY     -0.292000
     13 C5          3.0070    0.1900   -3.5500 ca        1 HMY      0.184100
     14 O21         3.4430    0.1410   -4.8550 os        1 HMY     -0.317900
     15 C22         4.7600    0.6230   -5.1030 c3        1 HMY      0.110700
     16 C4          1.6910   -0.2670   -3.3510 ca        1 HMY     -0.181000
     17 C3          1.1420   -0.2700   -2.0700 ca        1 HMY      0.021700
     18 C18        -0.2270   -0.7870   -1.8580 cx        1 HMY      0.104400
     19 O31        -1.1080   -0.7570   -2.9990 os        1 HMY     -0.407600
     20 C17        -0.6640   -2.0460   -2.5420 cx        1 HMY      0.076100
     21 C16        -1.7200   -2.9920   -2.0630 c3        1 HMY     -0.113400
     22 C15        -2.5260   -2.5850   -0.8370 c3        1 HMY      0.127100
     23 O29        -2.9320   -1.2260   -0.8310 oh        1 HMY     -0.608800
     24 C14        -1.7200   -2.8470    0.4550 c3        1 HMY      0.031100
     25 O28        -1.5070   -4.2380    0.5990 oh        1 HMY     -0.591800
     26 C13        -2.4400   -2.2750    1.6700 c         1 HMY      0.564300
     27 O24        -3.2130   -2.9880    2.3180 o         1 HMY     -0.532100
     28 H9          2.2290   -1.4940    2.9410 h1        1 HMY      0.072700
     29 H25         1.0280    1.3740    3.0730 hc        1 HMY      0.056033
     30 H25A        2.7800    0.9970    2.8220 hc        1 HMY      0.056033
     31 H25B        1.9450    0.4610    4.3480 hc        1 HMY      0.056033
     32 H10         0.0440   -1.3140    4.0820 hc        1 HMY      0.064700
     33 H10A       -0.0090   -2.2760    2.5450 hc        1 HMY      0.064700
     34 H11        -0.9120    0.6960    2.6470 ha        1 HMY      0.152000
     35 H12        -2.9840   -0.1870    1.6530 ha        1 HMY      0.167000
     36 HO20        4.7820    1.3780   -0.3910 ho        1 HMY      0.427000
     37 H6          4.8100    0.9990   -2.6200 ha        1 HMY      0.146000
     38 H22         4.8750    0.5000   -6.2100 h1        1 HMY      0.049033
     39 H22A        4.8470    1.6990   -4.8140 h1        1 HMY      0.049033
     40 H22B        5.5140    0.0060   -4.5570 h1        1 HMY      0.049033
     41 H4          1.0960   -0.6040   -4.2140 ha        1 HMY      0.169000
     42 H18        -0.7170   -0.4570   -0.9140 h1        1 HMY      0.130700
     43 H17         0.0570   -2.5310   -3.2390 h1        1 HMY      0.095700
     44 H16        -2.4340   -3.1530   -2.9170 hc        1 HMY      0.078200
     45 H16A       -1.2300   -3.9780   -1.8300 hc        1 HMY      0.078200
     46 H15        -3.4590   -3.2220   -0.8000 h1        1 HMY      0.051700
     47 HO29       -2.9800   -0.9280   -1.7500 ho        1 HMY      0.429000
     48 H14        -0.6900   -2.3990    0.3660 h1        1 HMY      0.102700
     49 HO28       -2.3220   -4.6240    0.9520 ho        1 HMY      0.420000
@<TRIPOS>BOND
     1    1    2 2   
     2    2    3 1   
     3    2    9 1   
     4    3    4 1   
     5    4    5 1   
     6    4    6 1   
     7    4   28 1   
     8    5   29 1   
     9    5   30 1   
    10    5   31 1   
    11    6    7 1   
    12    6   32 1   
    13    6   33 1   
    14    7    8 2   
    15    7   34 1   
    16    8   26 1   
    17    8   35 1   
    18    9   10 ar  
    19    9   17 ar  
    20   10   11 1   
    21   10   12 ar  
    22   11   36 1   
    23   12   13 ar  
    24   12   37 1   
    25   13   14 1   
    26   13   16 ar  
    27   14   15 1   
    28   15   38 1   
    29   15   39 1   
    30   15   40 1   
    31   16   17 ar  
    32   16   41 1   
    33   17   18 1   
    34   18   19 1   
    35   18   20 1   
    36   18   42 1   
    37   19   20 1   
    38   20   21 1   
    39   20   43 1   
    40   21   22 1   
    41   21   44 1   
    42   21   45 1   
    43   22   23 1   
    44   22   24 1   
    45   22   46 1   
    46   23   47 1   
    47   24   25 1   
    48   24   26 1   
    49   24   48 1   
    50   25   49 1   
    51   26   27 2   
@<TRIPOS>SUBSTRUCTURE
     1 HMY         1 TEMP              0 ****  ****    0 ROOT
