@<TRIPOS>MOLECULE
HMY
   49    47     1     0     0
SMALL
bcc


@<TRIPOS>ATOM
      1 O23        -2.2710   -1.6690    0.1350 o         1 HMY     -0.329000
      2 C7         -1.0520   -1.6510    0.1510 c1        1 HMY      0.384000
      3 O8         -0.3490   -1.7010    1.4070 o         1 HMY     -0.273000
      4 C9         -1.1910   -1.7770    2.5280 c3        1 HMY      0.033000
      5 C25        -0.9610   -3.0950    3.2450 c3        1 HMY     -0.222000
      6 C10        -0.8840   -0.6250    3.4740 c3        1 HMY     -0.169000
      7 C11         0.6290   -0.2900    3.4100 c2        1 HMY     -0.050000
      8 C12         1.1000    1.0790    2.8440 c1        1 HMY     -0.252000
      9 C2         -0.2620   -1.6560   -1.1770 c2        1 HMY     -0.132000
     10 C1          0.2860   -2.8310   -1.6490 c1        1 HMY      0.154000
     11 O20         0.0910   -4.0380   -0.9380 o         1 HMY     -0.237000
     12 C6          1.0200   -2.8330   -2.8470 c2        1 HMY     -0.294000
     13 C5          1.1990   -1.6280   -3.5710 c1        1 HMY      0.137000
     14 O21         2.0240   -1.6130   -4.7250 o         1 HMY     -0.203000
     15 C22         1.4010   -2.1460   -5.8840 c3        1 HMY     -0.078000
     16 C4          0.6420   -0.4310   -3.0920 c2        1 HMY     -0.191000
     17 C3         -0.0800   -0.4270   -1.9150 c2        1 HMY      0.032000
     18 C18        -0.8530    0.9520   -1.4250 cx        1 HMY     -0.018000
     19 O31        -1.2910    0.8440   -0.0230 os        1 HMY     -0.242000
     20 C17        -0.4160    1.9500   -0.4460 cx        1 HMY     -0.040000
     21 C16        -1.0950    3.4170   -0.0870 c3        1 HMY     -0.149000
     22 C15        -0.2150    4.1580    0.9460 c3        1 HMY      0.005000
     23 O29         0.4520    5.2110    0.3170 oh        1 HMY     -0.334000
     24 C14         0.7930    3.2040    1.5310 c3        1 HMY     -0.046000
     25 O28         1.5720    2.6570    0.5010 oh        1 HMY     -0.319000
     26 C13         0.0630    2.0780    2.2730 c1        1 HMY      0.271000
     27 O24        -0.9570    2.3200    2.8960 o         1 HMY     -0.303000
     28 H9         -2.1280   -1.7210    2.2380 h1        1 HMY      0.127000
     29 H25        -1.3370   -3.8300    2.7090 hc        1 HMY      0.085000
     30 H25A        0.0040   -3.2390    3.3660 hc        1 HMY      0.085000
     31 H25B       -1.4020   -3.0720    4.1240 hc        1 HMY      0.085000
     32 H10        -1.1250   -0.8820    4.3920 hc        1 HMY      0.119000
     33 H10A       -1.4040    0.1630    3.2080 hc        1 HMY      0.119000
     34 H11         1.2870   -0.9230    3.7720 ha        1 HMY      0.133000
     35 H12         2.0580    1.2900    2.8040 ha        1 HMY      0.158000
     36 HO20       -0.1630   -4.6780   -1.5030 ho        1 HMY      0.225000
     37 H6          1.4090   -3.6690   -3.1820 ha        1 HMY      0.146000
     38 H22         0.4600   -1.8680   -5.9080 h1        1 HMY      0.088000
     39 H22A        1.8620   -1.8120   -6.6870 h1        1 HMY      0.088000
     40 H22B        1.4530   -3.1270   -5.8620 h1        1 HMY      0.088000
     41 H4          0.7660    0.4030   -3.5940 ha        1 HMY      0.159000
     42 H18        -1.5930    1.2440   -2.0020 h1        1 HMY      0.145000
     43 H17         0.4930    1.8210   -0.1140 h1        1 HMY      0.158000
     44 H16        -1.9940    3.2780    0.2870 hc        1 HMY      0.108000
     45 H16A       -1.1620    3.9560   -0.9070 hc        1 HMY      0.108000
     46 H15        -0.7850    4.5140    1.6640 h1        1 HMY      0.116000
     47 HO29        0.1430    5.9890    0.6310 ho        1 HMY      0.210000
     48 H14         1.3740    3.6880    2.1610 h1        1 HMY      0.102000
     49 HO28        2.3900    3.0160    0.5240 ho        1 HMY      0.215000
@<TRIPOS>BOND
     1    1    2 1   
     2    2    9 1   
     3    3    4 1   
     4    4    5 1   
     5    4    6 1   
     6    4   28 1   
     7    5   29 1   
     8    5   30 1   
     9    5   31 1   
    10    6    7 1   
    11    6   32 1   
    12    6   33 1   
    13    7    8 1   
    14    7   34 1   
    15    8   35 1   
    16    9   10 1   
    17    9   17 1   
    18   10   12 1   
    19   11   36 1   
    20   12   13 1   
    21   12   37 1   
    22   13   16 1   
    23   14   15 1   
    24   15   38 1   
    25   15   39 1   
    26   15   40 1   
    27   16   17 1   
    28   16   41 1   
    29   17   18 1   
    30   18   19 1   
    31   18   20 1   
    32   18   42 1   
    33   19   20 1   
    34   20   21 1   
    35   20   43 1   
    36   21   22 1   
    37   21   44 1   
    38   21   45 1   
    39   22   23 1   
    40   22   24 1   
    41   22   46 1   
    42   23   47 1   
    43   24   25 1   
    44   24   26 1   
    45   24   48 1   
    46   25   49 1   
    47   26   27 1   
@<TRIPOS>SUBSTRUCTURE
     1 HMY         1 TEMP              0 ****  ****    0 ROOT
