@<TRIPOS>MOLECULE
HMY
   49    51     1     0     0
SMALL
bcc


@<TRIPOS>ATOM
      1 O23         0.7300    0.7460    1.2600 o         1 HMY     -0.568000
      2 C7         -0.1630    1.2320    0.5590 c         1 HMY      0.676700
      3 O8          0.1050    2.3830   -0.1340 os        1 HMY     -0.471900
      4 C9          1.3430    3.1050    0.0070 c3        1 HMY      0.175100
      5 C25         1.6560    3.4380    1.4480 c3        1 HMY     -0.131100
      6 C10         2.4640    2.4290   -0.7770 c3        1 HMY     -0.081200
      7 C11         3.5180    1.7930    0.0440 c2        1 HMY     -0.117200
      8 C12         4.0420    0.5860   -0.1750 ce        1 HMY     -0.225200
      9 C2         -1.5210    0.7260    0.3300 ca        1 HMY     -0.251600
     10 C1         -2.5910    1.5720   -0.0270 ca        1 HMY      0.237100
     11 O20        -2.5270    2.9330   -0.1340 oh        1 HMY     -0.496100
     12 C6         -3.8770    1.0570   -0.2940 ca        1 HMY     -0.262000
     13 C5         -4.0830   -0.3150   -0.1960 ca        1 HMY      0.194100
     14 O21        -5.2840   -0.9390   -0.4420 os        1 HMY     -0.314900
     15 C22        -6.3650   -0.0980   -0.8380 c3        1 HMY      0.109700
     16 C4         -3.0350   -1.1780    0.1880 ca        1 HMY     -0.184000
     17 C3         -1.7740   -0.6630    0.4550 ca        1 HMY      0.034700
     18 C18        -0.7220   -1.5990    0.9140 cx        1 HMY      0.090400
     19 O31        -1.0500   -2.9950    0.7910 os        1 HMY     -0.401600
     20 C17         0.0210   -2.4940   -0.0280 cx        1 HMY      0.085100
     21 C16         1.3580   -3.0920    0.2930 c3        1 HMY     -0.103400
     22 C15         2.5520   -2.1580    0.1350 c3        1 HMY      0.132100
     23 O29         2.8580   -1.5100    1.3550 oh        1 HMY     -0.599800
     24 C14         2.3570   -1.1320   -0.9990 c3        1 HMY      0.009100
     25 O28         1.9150   -1.7640   -2.1830 oh        1 HMY     -0.587800
     26 C13         3.6440   -0.3530   -1.2340 c         1 HMY      0.550300
     27 O24         4.3150   -0.5650   -2.2500 o         1 HMY     -0.525100
     28 H9          1.0650    4.0620   -0.5390 h1        1 HMY      0.071700
     29 H25         1.9420    2.5250    2.0250 hc        1 HMY      0.058033
     30 H25A        2.4980    4.1710    1.4840 hc        1 HMY      0.058033
     31 H25B        0.7600    3.8950    1.9330 hc        1 HMY      0.058033
     32 H10         2.0010    1.6800   -1.4790 hc        1 HMY      0.068700
     33 H10A        2.9570    3.2140   -1.4160 hc        1 HMY      0.068700
     34 H11         3.9050    2.4050    0.8780 ha        1 HMY      0.133000
     35 H12         4.8370    0.1820    0.4790 ha        1 HMY      0.164000
     36 HO20       -1.6520    3.2570    0.1270 ho        1 HMY      0.446000
     37 H6         -4.6760    1.7570   -0.5740 ha        1 HMY      0.163000
     38 H22        -7.2080   -0.8200   -0.9870 h1        1 HMY      0.051367
     39 H22A       -6.6080    0.6340   -0.0300 h1        1 HMY      0.051367
     40 H22B       -6.1230    0.4310   -1.7910 h1        1 HMY      0.051367
     41 H4         -3.2280   -2.2600    0.2760 ha        1 HMY      0.180000
     42 H18        -0.2630   -1.3190    1.8870 h1        1 HMY      0.120700
     43 H17        -0.2080   -2.4420   -1.1140 h1        1 HMY      0.113700
     44 H16         1.3550   -3.4810    1.3480 hc        1 HMY      0.073200
     45 H16A        1.5030   -3.9690   -0.3940 hc        1 HMY      0.073200
     46 H15         3.4700   -2.7800   -0.0780 h1        1 HMY      0.076700
     47 HO29        2.1150   -0.9300    1.5770 ho        1 HMY      0.426000
     48 H14         1.5300   -0.4160   -0.7190 h1        1 HMY      0.099700
     49 HO28        2.6930   -2.1210   -2.6360 ho        1 HMY      0.421000
@<TRIPOS>BOND
     1    1    2 2   
     2    2    3 1   
     3    2    9 1   
     4    3    4 1   
     5    4    5 1   
     6    4    6 1   
     7    4   28 1   
     8    5   29 1   
     9    5   30 1   
    10    5   31 1   
    11    6    7 1   
    12    6   32 1   
    13    6   33 1   
    14    7    8 2   
    15    7   34 1   
    16    8   26 1   
    17    8   35 1   
    18    9   10 ar  
    19    9   17 ar  
    20   10   11 1   
    21   10   12 ar  
    22   11   36 1   
    23   12   13 ar  
    24   12   37 1   
    25   13   14 1   
    26   13   16 ar  
    27   14   15 1   
    28   15   38 1   
    29   15   39 1   
    30   15   40 1   
    31   16   17 ar  
    32   16   41 1   
    33   17   18 1   
    34   18   19 1   
    35   18   20 1   
    36   18   42 1   
    37   19   20 1   
    38   20   21 1   
    39   20   43 1   
    40   21   22 1   
    41   21   44 1   
    42   21   45 1   
    43   22   23 1   
    44   22   24 1   
    45   22   46 1   
    46   23   47 1   
    47   24   25 1   
    48   24   26 1   
    49   24   48 1   
    50   25   49 1   
    51   26   27 2   
@<TRIPOS>SUBSTRUCTURE
     1 HMY         1 TEMP              0 ****  ****    0 ROOT
