@<TRIPOS>MOLECULE
HMZ
   27    27     1     0     0
SMALL
bcc


@<TRIPOS>ATOM
      1 CAA         4.8880    2.1230   -0.1310 c3        1 HMZ      0.115700
      2 OAB        -3.9380    1.8810    0.4860 o         1 HMZ     -0.849300
      3 OAC        -1.1220   -2.0750    0.5820 o         1 HMZ     -0.593100
      4 OAD        -5.4120    0.6110   -0.6120 o         1 HMZ     -0.849300
      5 OAE         1.5030   -2.7620    0.1050 oh        1 HMZ     -0.517100
      6 CAF         2.2100    1.3400    0.0900 ca        1 HMZ     -0.260000
      7 CAG         0.8990    0.8900    0.1860 ca        1 HMZ     -0.019000
      8 CAH         2.9810   -0.9690   -0.0040 ca        1 HMZ     -0.224000
      9 CAI        -3.2820   -0.3710   -0.0890 c3        1 HMZ     -0.193400
     10 CAJ        -1.8710    0.1490    0.0280 c3        1 HMZ     -0.160400
     11 OAK         4.5880    0.7330   -0.1150 os        1 HMZ     -0.331900
     12 CAL        -4.2860    0.7990   -0.0720 c         1 HMZ      0.908600
     13 CAM        -0.8380   -0.9000    0.2900 c         1 HMZ      0.593700
     14 CAN         3.2490    0.4030   -0.0100 ca        1 HMZ      0.165100
     15 CAO         1.6450   -1.4020    0.1040 ca        1 HMZ      0.217100
     16 CAP         0.5810   -0.4760    0.1910 ca        1 HMZ     -0.281600
     17 HAA         4.4050    2.6220   -1.0060 h1        1 HMZ      0.041033
     18 HAAA        4.5640    2.6080    0.8220 h1        1 HMZ      0.041033
     19 HAAB        6.0030    2.1490   -0.2270 h1        1 HMZ      0.041033
     20 HOAE        0.5670   -3.0000    0.2140 ho        1 HMZ      0.464000
     21 HAF         2.4160    2.4180    0.0920 ha        1 HMZ      0.136000
     22 HAG         0.0900    1.6370    0.2650 ha        1 HMZ      0.160000
     23 HAH         3.7930   -1.7040   -0.0790 ha        1 HMZ      0.157000
     24 HAI        -3.4100   -0.9580   -1.0320 hc        1 HMZ      0.036700
     25 HAIA       -3.5170   -1.0490    0.7690 hc        1 HMZ      0.036700
     26 HAJ        -1.6010    0.7000   -0.9120 hc        1 HMZ      0.081200
     27 HAJA       -1.8530    0.8990    0.8710 hc        1 HMZ      0.081200
@<TRIPOS>BOND
     1    1   11 1   
     2    1   17 1   
     3    1   18 1   
     4    1   19 1   
     5    2   12 1   
     6    3   13 2   
     7    4   12 1   
     8    5   15 1   
     9    5   20 1   
    10    6    7 ar  
    11    6   14 ar  
    12    6   21 1   
    13    7   16 ar  
    14    7   22 1   
    15    8   14 ar  
    16    8   15 ar  
    17    8   23 1   
    18    9   10 1   
    19    9   12 1   
    20    9   24 1   
    21    9   25 1   
    22   10   13 1   
    23   10   26 1   
    24   10   27 1   
    25   11   14 1   
    26   13   16 1   
    27   15   16 ar  
@<TRIPOS>SUBSTRUCTURE
     1 HMZ         1 TEMP              0 ****  ****    0 ROOT
