@<TRIPOS>MOLECULE
HMZ
   27    27     1     0     0
SMALL
bcc


@<TRIPOS>ATOM
      1 CAA        -0.2100    0.3440    0.6720 c3        1 HMZ      0.116700
      2 OAB         1.2150   -0.1950    6.9150 o         1 HMZ     -0.845800
      3 OAC         5.8400   -0.0990    4.8270 o         1 HMZ     -0.560100
      4 OAD         1.9970    0.4640    8.8990 o         1 HMZ     -0.845800
      5 OAE         5.5250   -0.5340    2.2780 oh        1 HMZ     -0.469100
      6 CAF         1.4580    0.1040    2.9040 ca        1 HMZ     -0.251000
      7 CAG         2.3330   -0.0230    3.9830 ca        1 HMZ     -0.025000
      8 CAH         3.3220   -0.1840    1.3620 ca        1 HMZ     -0.286000
      9 CAI         3.5250    0.4880    7.0380 c3        1 HMZ     -0.194400
     10 CAJ         4.0220   -0.7170    6.2630 c3        1 HMZ     -0.160400
     11 OAK         1.1810    0.1390    0.4580 os        1 HMZ     -0.340900
     12 CAL         2.1450    0.2260    7.6700 c         1 HMZ      0.907600
     13 CAM         4.6260   -0.3220    4.9420 c         1 HMZ      0.589700
     14 CAN         1.9560    0.0250    1.6000 ca        1 HMZ      0.164100
     15 CAO         4.1830   -0.3040    2.4610 ca        1 HMZ      0.188100
     16 CAP         3.7060   -0.2180    3.7880 ca        1 HMZ     -0.226600
     17 HAA        -0.3880    1.2980    1.2250 h1        1 HMZ      0.041033
     18 HAAA       -0.6300    0.4030   -0.3630 h1        1 HMZ      0.041033
     19 HAAB       -0.6550   -0.5160    1.2300 h1        1 HMZ      0.041033
     20 HOAE        5.6980   -0.5310    1.3250 ho        1 HMZ      0.403000
     21 HAF         0.3890    0.2600    3.1020 ha        1 HMZ      0.144000
     22 HAG         1.9180    0.0290    5.0210 ha        1 HMZ      0.236000
     23 HAH         3.6980   -0.2500    0.3330 ha        1 HMZ      0.136000
     24 HAI         4.2550    0.7540    7.8420 hc        1 HMZ      0.034200
     25 HAIA        3.4200    1.3750    6.3640 hc        1 HMZ      0.034200
     26 HAJ         3.1700   -1.4280    6.0900 hc        1 HMZ      0.063700
     27 HAJA        4.8020   -1.2560    6.8630 hc        1 HMZ      0.063700
@<TRIPOS>BOND
     1    1   11 1   
     2    1   17 1   
     3    1   18 1   
     4    1   19 1   
     5    2   12 1   
     6    3   13 2   
     7    4   12 1   
     8    5   15 1   
     9    5   20 1   
    10    6    7 ar  
    11    6   14 ar  
    12    6   21 1   
    13    7   16 ar  
    14    7   22 1   
    15    8   14 ar  
    16    8   15 ar  
    17    8   23 1   
    18    9   10 1   
    19    9   12 1   
    20    9   24 1   
    21    9   25 1   
    22   10   13 1   
    23   10   26 1   
    24   10   27 1   
    25   11   14 1   
    26   13   16 1   
    27   15   16 ar  
@<TRIPOS>SUBSTRUCTURE
     1 HMZ         1 TEMP              0 ****  ****    0 ROOT
