@<TRIPOS>MOLECULE
HMZ
   27    24     1     0     0
SMALL
bcc


@<TRIPOS>ATOM
      1 CAA         0.4610   -1.8350   -4.5270 c3        1 HMZ      0.114700
      2 OAB        -2.6140    1.1990    4.4630 o         1 HMZ     -0.848300
      3 OAC         0.8150    2.0210    1.3720 o         1 HMZ     -0.595100
      4 OAD        -1.1000    0.1320    5.6140 o         1 HMZ     -0.848300
      5 OAE         1.0890    2.2610   -0.8680 oh        1 HMZ     -0.503600
      6 CAF        -0.3410   -1.6250   -1.4350 c1        1 HMZ     -0.061500
      7 CAG        -0.0210   -1.1840   -0.1610 c1        1 HMZ     -0.061500
      8 CAH         0.2810    0.5120   -2.3320 c1        1 HMZ     -0.212500
      9 CAI        -0.3560    1.2920    3.6440 c3        1 HMZ     -0.193400
     10 CAJ        -0.1910    0.2420    2.5660 c3        1 HMZ     -0.160400
     11 OAK        -0.5720   -1.2040   -3.8040 os        1 HMZ     -0.313400
     12 CAL        -1.4170    0.8450    4.6250 c         1 HMZ      0.908600
     13 CAM         0.4060    0.8780    1.3300 c         1 HMZ      0.543300
     14 CAN        -0.1900   -0.7770   -2.5210 c1        1 HMZ      0.149600
     15 CAO         0.6020    0.9540   -1.0580 c1        1 HMZ      0.205600
     16 CAP         0.4500    0.1060    0.0280 cg        1 HMZ     -0.231200
     17 HAA         0.0750   -2.3430   -5.2730 h1        1 HMZ      0.041033
     18 HAAA        1.0760   -1.1560   -4.8770 h1        1 HMZ      0.041033
     19 HAAB        0.9500   -2.4450   -3.9340 h1        1 HMZ      0.041033
     20 HOAE        1.8070    2.3870   -1.3770 ho        1 HMZ      0.465000
     21 HAF        -0.6740   -2.5340   -1.5680 ha        1 HMZ      0.097000
     22 HAG        -0.1280   -1.7810    0.6040 ha        1 HMZ      0.097000
     23 HAH         0.3880    1.1100   -3.0970 ha        1 HMZ      0.089500
     24 HAI         0.4930    1.4120    4.1150 hc        1 HMZ      0.036700
     25 HAIA       -0.6260    2.1390    3.2360 hc        1 HMZ      0.036700
     26 HAJ        -1.0650   -0.1400    2.3470 hc        1 HMZ      0.081700
     27 HAJA        0.4030   -0.4660    2.8880 hc        1 HMZ      0.081700
@<TRIPOS>BOND
     1    1   11 1   
     2    1   17 1   
     3    1   18 1   
     4    1   19 1   
     5    2   12 1   
     6    3   13 2   
     7    4   12 1   
     8    5   15 1   
     9    5   20 1   
    10    6    7 3   
    11    6   21 1   
    12    7   22 1   
    13    8   14 3   
    14    8   23 1   
    15    9   10 1   
    16    9   12 1   
    17    9   24 1   
    18    9   25 1   
    19   10   13 1   
    20   10   26 1   
    21   10   27 1   
    22   11   14 1   
    23   13   16 1   
    24   15   16 3   
@<TRIPOS>SUBSTRUCTURE
     1 HMZ         1 TEMP              0 ****  ****    0 ROOT
