@<TRIPOS>MOLECULE
HMZ
   27    27     1     0     0
SMALL
bcc


@<TRIPOS>ATOM
      1 CAA        -0.2030    0.4700    0.6830 c3        1 HMZ      0.116700
      2 OAB         1.2190   -0.1450    6.9190 o         1 HMZ     -0.845800
      3 OAC         5.8380   -0.2280    4.8170 o         1 HMZ     -0.560100
      4 OAD         2.0330    0.4740    8.9030 o         1 HMZ     -0.845800
      5 OAE         5.4970   -0.6420    2.2670 oh        1 HMZ     -0.469100
      6 CAF         1.4610    0.1560    2.9090 ca        1 HMZ     -0.251000
      7 CAG         2.3330   -0.0090    3.9840 ca        1 HMZ     -0.025000
      8 CAH         3.3070   -0.2020    1.3590 ca        1 HMZ     -0.286000
      9 CAI         3.5550    0.4440    7.0370 c3        1 HMZ     -0.194400
     10 CAJ         4.0010   -0.7770    6.2570 c3        1 HMZ     -0.160400
     11 OAK         1.1780    0.2100    0.4640 os        1 HMZ     -0.340900
     12 CAL         2.1680    0.2350    7.6730 c         1 HMZ      0.907600
     13 CAM         4.6160   -0.4030    4.9350 c         1 HMZ      0.589700
     14 CAN         1.9510    0.0620    1.6020 ca        1 HMZ      0.164100
     15 CAO         4.1660   -0.3590    2.4550 ca        1 HMZ      0.188100
     16 CAP         3.6970   -0.2590    3.7840 ca        1 HMZ     -0.226600
     17 HAA        -0.3410    1.4290    1.2390 h1        1 HMZ      0.041033
     18 HAAA       -0.6240    0.5490   -0.3510 h1        1 HMZ      0.041033
     19 HAAB       -0.6800   -0.3740    1.2390 h1        1 HMZ      0.041033
     20 HOAE        5.6670   -0.6440    1.3130 ho        1 HMZ      0.403000
     21 HAF         0.4000    0.3540    3.1110 ha        1 HMZ      0.144000
     22 HAG         1.9240    0.0570    5.0240 ha        1 HMZ      0.236000
     23 HAH         3.6770   -0.2790    0.3290 ha        1 HMZ      0.136000
     24 HAI         4.2970    0.6780    7.8390 hc        1 HMZ      0.034200
     25 HAIA        3.4830    1.3370    6.3650 hc        1 HMZ      0.034200
     26 HAJ         3.1200   -1.4540    6.0840 hc        1 HMZ      0.063700
     27 HAJA        4.7600   -1.3490    6.8530 hc        1 HMZ      0.063700
@<TRIPOS>BOND
     1    1   11 1   
     2    1   17 1   
     3    1   18 1   
     4    1   19 1   
     5    2   12 1   
     6    3   13 2   
     7    4   12 1   
     8    5   15 1   
     9    5   20 1   
    10    6    7 ar  
    11    6   14 ar  
    12    6   21 1   
    13    7   16 ar  
    14    7   22 1   
    15    8   14 ar  
    16    8   15 ar  
    17    8   23 1   
    18    9   10 1   
    19    9   12 1   
    20    9   24 1   
    21    9   25 1   
    22   10   13 1   
    23   10   26 1   
    24   10   27 1   
    25   11   14 1   
    26   13   16 1   
    27   15   16 ar  
@<TRIPOS>SUBSTRUCTURE
     1 HMZ         1 TEMP              0 ****  ****    0 ROOT
