@<TRIPOS>MOLECULE
HN0
   62    65     1     0     0
SMALL
bcc


@<TRIPOS>ATOM
      1 OP3        -7.1980    1.1000    1.9380 o         1 HN0     -0.929833
      2 C           2.9920   -1.5440   -1.5570 c3        1 HN0     -0.130400
      3 P          -7.3190   -0.3180    1.4620 p5        1 HN0      1.331900
      4 C1          4.2530   -2.0840   -2.2360 c3        1 HN0      0.322900
      5 N1          2.2740    2.7080   -0.1040 n         1 HN0     -0.504400
      6 O1          4.2080   -3.4920   -2.2570 oh        1 HN0     -0.618800
      7 C2          2.2020    1.3070   -0.2700 cc        1 HN0      0.611800
      8 N2          3.4810    0.6470   -0.3670 nh        1 HN0     -0.784200
      9 C3          3.4970   -0.8000   -0.2970 c3        1 HN0      0.178500
     10 N3          1.0610    0.6040   -0.3070 nd        1 HN0     -0.621100
     11 C4         -0.0930    1.3490   -0.1110 cd        1 HN0      0.047800
     12 O4          5.3840   -1.7620   -1.4330 os        1 HN0     -0.468600
     13 C5         -0.1230    2.7830    0.0820 cc        1 HN0      0.196800
     14 C6          1.1230    3.5150    0.0960 c         1 HN0      0.647000
     15 O6          1.3150    4.7350    0.2470 o         1 HN0     -0.640500
     16 C7          4.9440   -1.3620   -0.1210 c3        1 HN0      0.137100
     17 N7         -1.4370    3.2180    0.2400 nc        1 HN0     -0.630000
     18 C8         -2.1870    2.0950    0.1490 cd        1 HN0      0.453400
     19 C9          5.9780   -0.4160    0.4600 c3        1 HN0     -0.069400
     20 N9         -1.4220    0.9300   -0.0590 na        1 HN0     -0.180900
     21 C1'        -1.9070   -0.4410   -0.2560 c3        1 HN0      0.251800
     22 C10         7.2320   -1.1630    0.8620 c3        1 HN0     -0.080400
     23 C11         8.2820   -0.2160    1.4010 c3        1 HN0     -0.078400
     24 C12         9.5330   -0.9600    1.8180 c3        1 HN0     -0.080400
     25 C13        10.5840   -0.0220    2.3510 c3        1 HN0     -0.091100
     26 C2'        -2.1510   -1.2120    1.0570 c3        1 HN0     -0.129400
     27 C3'        -3.6790   -1.2950    1.1950 c3        1 HN0      0.158100
     28 O3'        -4.0310   -2.6320    1.4710 oh        1 HN0     -0.673800
     29 C4'        -4.2390   -0.8410   -0.1670 c3        1 HN0      0.053100
     30 O4'        -3.1180   -0.4080   -0.9860 os        1 HN0     -0.433600
     31 C5'        -5.2870    0.2950   -0.0660 c3        1 HN0      0.228400
     32 O5'        -6.5530   -0.2150   -0.1080 os        1 HN0     -0.553200
     33 OP1        -6.3310   -1.2700    2.1070 o         1 HN0     -0.929833
     34 OP2        -8.6800   -0.8570    1.1540 o         1 HN0     -0.929833
     35 H1          4.4470   -1.6720   -3.2620 h2        1 HN0      0.058700
     36 HN1         3.1610    3.1520   -0.0310 hn        1 HN0      0.321500
     37 HO1         5.1140   -3.8070   -2.3690 ho        1 HN0      0.412000
     38 HN2         3.9950    0.9820   -1.1620 hn        1 HN0      0.386800
     39 H3          2.8820   -1.1080    0.5960 h1        1 HN0      0.103700
     40 H7          4.8700   -2.2940    0.5070 h1        1 HN0      0.055700
     41 H8         -3.2910    2.0350    0.2200 h5        1 HN0      0.119100
     42 H9          6.2400    0.3710   -0.2940 hc        1 HN0      0.057200
     43 H9A         5.5340    0.0940    1.3550 hc        1 HN0      0.057200
     44 H1'        -1.1440   -0.9510   -0.9150 h2        1 HN0      0.064700
     45 H10         6.9830   -1.9310    1.6410 hc        1 HN0      0.043200
     46 H10A        7.6350   -1.7130   -0.0290 hc        1 HN0      0.043200
     47 H11         8.5420    0.5440    0.6170 hc        1 HN0      0.040200
     48 H11A        7.8680    0.3440    2.2800 hc        1 HN0      0.040200
     49 H12         9.2720   -1.7190    2.6020 hc        1 HN0      0.037200
     50 H12A        9.9430   -1.5240    0.9380 hc        1 HN0      0.037200
     51 H13        10.8750    0.7260    1.5750 hc        1 HN0      0.029700
     52 H13A       10.2010    0.5320    3.2430 hc        1 HN0      0.029700
     53 H13B       11.4970   -0.5900    2.6540 hc        1 HN0      0.029700
     54 H2'        -1.7140   -2.2370    0.9600 hc        1 HN0      0.054200
     55 H2'A       -1.6950   -0.7170    1.9450 hc        1 HN0      0.054200
     56 H3'        -4.0560   -0.6310    2.0220 h1        1 HN0      0.106700
     57 HO3'       -4.9730   -2.5940    1.7620 ho        1 HN0      0.502000
     58 H4'        -4.6840   -1.7100   -0.7210 h1        1 HN0      0.083700
     59 H5'        -5.1190    0.8870    0.8800 h1        1 HN0     -0.003800
     60 H5'A       -5.1180    0.9740   -0.9560 h1        1 HN0     -0.003800
     61 H           2.4220   -0.8820   -2.2510 hc        1 HN0      0.089700
     62 HA          2.3210   -2.3880   -1.2580 hc        1 HN0      0.089700
@<TRIPOS>BOND
     1    1    3 1   
     2    2    4 1   
     3    2    9 1   
     4    2   61 1   
     5    2   62 1   
     6    3   32 1   
     7    3   33 1   
     8    3   34 1   
     9    4    6 1   
    10    4   12 1   
    11    4   35 1   
    12    5    7 1   
    13    5   14 1   
    14    5   36 1   
    15    6   37 1   
    16    7    8 1   
    17    7   10 2   
    18    8    9 1   
    19    8   38 1   
    20    9   16 1   
    21    9   39 1   
    22   10   11 1   
    23   11   13 2   
    24   11   20 1   
    25   12   16 1   
    26   13   14 1   
    27   13   17 1   
    28   14   15 2   
    29   16   19 1   
    30   16   40 1   
    31   17   18 2   
    32   18   20 1   
    33   18   41 1   
    34   19   22 1   
    35   19   42 1   
    36   19   43 1   
    37   20   21 1   
    38   21   26 1   
    39   21   30 1   
    40   21   44 1   
    41   22   23 1   
    42   22   45 1   
    43   22   46 1   
    44   23   24 1   
    45   23   47 1   
    46   23   48 1   
    47   24   25 1   
    48   24   49 1   
    49   24   50 1   
    50   25   51 1   
    51   25   52 1   
    52   25   53 1   
    53   26   27 1   
    54   26   54 1   
    55   26   55 1   
    56   27   28 1   
    57   27   29 1   
    58   27   56 1   
    59   28   57 1   
    60   29   30 1   
    61   29   31 1   
    62   29   58 1   
    63   31   32 1   
    64   31   59 1   
    65   31   60 1   
@<TRIPOS>SUBSTRUCTURE
     1 HN0         1 TEMP              0 ****  ****    0 ROOT
