@<TRIPOS>MOLECULE
HN1
   62    60     1     0     0
SMALL
bcc


@<TRIPOS>ATOM
      1 C          -2.3710    2.5950   -1.5900 c3        1 HN1     -0.189000
      2 P           7.1430    0.3140    6.6660 p3        1 HN1      2.536000
      3 C1         -1.1010    2.5870   -1.6060 c3        1 HN1      0.177000
      4 N1         -0.4650    2.6040   -0.3350 n3        1 HN1     -0.361000
      5 C2         -0.8210    1.7680    0.5010 c2        1 HN1      0.271000
      6 N2         -2.4120    1.4130    0.5470 n1        1 HN1     -0.345000
      7 C3         -3.1290    1.3340   -0.7470 c2        1 HN1     -0.035000
      8 N3          0.1730    0.8370    1.1040 n3        1 HN1     -0.214000
      9 C4          1.5770    1.0610    0.8940 c2        1 HN1      0.028000
     10 C5          1.9680    2.0790    0.1550 c1        1 HN1     -0.234000
     11 C6          0.9660    2.9180   -0.4980 c1        1 HN1      0.423000
     12 O6          1.3180    3.7940   -1.2970 o         1 HN1     -0.380000
     13 C7         -3.0640    0.0710   -1.3830 c3        1 HN1      0.023000
     14 N7          3.3250    2.1460    0.2160 n2        1 HN1     -0.105000
     15 C8          3.7520    1.1640    0.9950 c1        1 HN1     -0.028000
     16 C9         -4.4650   -0.2290   -2.1280 c3        1 HN1     -0.186000
     17 N9          2.6810    0.4810    1.4240 n2        1 HN1     -0.177000
     18 C1'         2.6860   -0.3120    2.4860 c2        1 HN1      0.164000
     19 C10        -4.2930   -1.4170   -3.0950 c3        1 HN1     -0.158000
     20 O10        -2.8210   -0.9390   -0.4080 oh        1 HN1     -0.321000
     21 C11        -5.5630   -1.5280   -4.0140 c3        1 HN1     -0.156000
     22 O11        -0.6290    3.8150   -2.3900 oh        1 HN1     -0.352000
     23 C12        -5.3240   -2.5890   -5.0710 c3        1 HN1     -0.160000
     24 C13        -6.4710   -2.6360   -5.9970 c3        1 HN1     -0.209000
     25 OP1         8.3180    0.4270    5.8200 o         1 HN1     -1.257500
     26 C2'         3.3940   -1.6450    2.1590 c3        1 HN1     -0.196000
     27 OP3         6.6760    1.7040    7.0710 os        1 HN1     -1.215000
     28 C3'         4.5430   -1.5780    2.7820 c3        1 HN1     -0.004000
     29 O3'         4.9360   -2.8960    3.2420 oh        1 HN1     -0.386000
     30 C4'         4.3150   -0.5910    4.0490 c3        1 HN1     -0.047000
     31 O4'         3.5220    0.3420    3.6440 os        1 HN1     -0.292000
     32 C5'         5.6530    0.0030    4.4800 c3        1 HN1      0.074000
     33 O5'         5.9630   -0.4350    5.8610 os        1 HN1     -0.728000
     34 OP2         7.4940   -0.5060    7.9340 o         1 HN1     -1.257500
     35 H          -2.6810    2.5750   -2.5000 hc        1 HN1      0.101500
     36 HA         -2.6660    3.4560   -1.1820 hc        1 HN1      0.101500
     37 H31        -0.8100    1.7870   -2.0830 h2        1 HN1      0.086000
     38 H3         -4.1440    1.4750   -0.6480 ha        1 HN1      0.093000
     39 HN3        -0.1100    0.1620    1.6760 hn        1 HN1      0.248000
     40 H7         -2.3470    0.0730   -2.0310 h1        1 HN1      0.110000
     41 H8          4.7520    0.9600    1.2410 DU        1 HN1      0.351000
     42 H9         -4.7640    0.6160   -2.6650 hc        1 HN1      0.078000
     43 H9A        -5.1990   -0.4650   -1.4100 hc        1 HN1      0.078000
     44 H1'         1.7470   -0.4860    2.7910 h4        1 HN1      0.075000
     45 H10        -3.5230   -1.2820   -3.6330 hc        1 HN1      0.089000
     46 H10A       -4.1880   -2.2440   -2.5810 hc        1 HN1      0.089000
     47 HO10       -3.5740   -1.2300   -0.1030 ho        1 HN1      0.208000
     48 H11        -5.7330   -0.6580   -4.4520 hc        1 HN1      0.074000
     49 H11A       -6.3600   -1.7830   -3.4540 hc        1 HN1      0.074000
     50 H16        -0.8440    3.7170   -3.2520 ho        1 HN1      0.241000
     51 H12        -4.4790   -2.3670   -5.5900 hc        1 HN1      0.079000
     52 H12A       -5.2220   -3.4500   -4.6410 hc        1 HN1      0.079000
     53 H13        -7.2370   -3.0350   -5.5460 hc        1 HN1      0.067000
     54 H13A       -6.6960   -1.7260   -6.2870 hc        1 HN1      0.067000
     55 H13B       -6.2230   -3.2060   -6.8170 hc        1 HN1      0.067000
     56 H2'         3.5380   -1.7260    1.1960 hc        1 HN1      0.093000
     57 H2'A        2.8480   -2.4320    2.5030 hc        1 HN1      0.093000
     58 H3'         5.2060   -1.2200    2.2080 h1        1 HN1      0.201000
     59 HO3'        5.4070   -3.2870    2.6300 ho        1 HN1      0.284000
     60 H4'         3.8990   -1.0940    4.8120 h1        1 HN1      0.091000
     61 H5'         6.3250   -0.2980    3.8990 h1        1 HN1      0.039000
     62 H5'A        5.6040    1.0100    4.4450 h1        1 HN1      0.039000
@<TRIPOS>BOND
     1    1    3 1   
     2    1    7 1   
     3    1   35 1   
     4    1   36 1   
     5    2   25 1   
     6    2   33 1   
     7    2   34 1   
     8    3    4 1   
     9    3   22 1   
    10    3   37 1   
    11    4    5 1   
    12    4   11 1   
    13    5    6 1   
    14    5    8 1   
    15    7   13 1   
    16    7   38 1   
    17    8    9 1   
    18    8   39 1   
    19    9   10 1   
    20    9   17 1   
    21   10   14 1   
    22   11   12 1   
    23   13   16 1   
    24   13   20 1   
    25   13   40 1   
    26   14   15 1   
    27   15   17 1   
    28   16   19 1   
    29   16   42 1   
    30   16   43 1   
    31   18   26 1   
    32   18   31 1   
    33   18   44 1   
    34   19   21 1   
    35   19   45 1   
    36   19   46 1   
    37   20   47 1   
    38   21   23 1   
    39   21   48 1   
    40   21   49 1   
    41   22   50 1   
    42   23   24 1   
    43   23   51 1   
    44   23   52 1   
    45   24   53 1   
    46   24   54 1   
    47   24   55 1   
    48   26   28 1   
    49   26   56 1   
    50   26   57 1   
    51   28   29 1   
    52   28   30 1   
    53   28   58 1   
    54   29   59 1   
    55   30   31 1   
    56   30   32 1   
    57   30   60 1   
    58   32   33 1   
    59   32   61 1   
    60   32   62 1   
@<TRIPOS>SUBSTRUCTURE
     1 HN1         1 TEMP              0 ****  ****    0 ROOT
