@<TRIPOS>MOLECULE
HN1
   62    65     1     0     0
SMALL
bcc


@<TRIPOS>ATOM
      1 C          -4.8030   -1.7980    0.8510 c3        1 HN1     -0.105400
      2 P           7.2450    0.2850    1.2490 p5        1 HN1      1.332900
      3 C1         -3.7560   -2.8310    0.4130 c3        1 HN1      0.311500
      4 N1         -2.4480   -2.2570    0.0960 n         1 HN1     -0.470300
      5 C2         -2.3550   -0.8590   -0.1720 cc        1 HN1      0.709800
      6 N2         -3.3750   -0.0140   -0.1670 n2        1 HN1     -0.744900
      7 C3         -4.7110   -0.5230    0.0080 c3        1 HN1      0.123500
      8 N3         -1.0820   -0.3110   -0.5090 na        1 HN1     -0.667600
      9 C4          0.0290   -1.1320   -0.3680 cc        1 HN1      0.044000
     10 C5         -0.0600   -2.5490   -0.1600 cd        1 HN1      0.177800
     11 C6         -1.3560   -3.1680   -0.0040 c         1 HN1      0.672000
     12 O6         -1.6150   -4.3840    0.0550 o         1 HN1     -0.644500
     13 C7         -5.6550    0.5420    0.6260 c3        1 HN1      0.159100
     14 N7          1.2240   -3.1040   -0.1350 nd        1 HN1     -0.616000
     15 C8          2.0610   -2.0630   -0.3150 cc        1 HN1      0.447400
     16 C9         -5.7530    1.7760   -0.2640 c3        1 HN1     -0.104400
     17 N9          1.3840   -0.8280   -0.4640 na        1 HN1     -0.209900
     18 C1'         1.9550    0.4880   -0.7730 c3        1 HN1      0.248800
     19 C10        -6.8940    2.6700    0.1700 c3        1 HN1     -0.079400
     20 O10        -5.2820    0.8820    1.9490 oh        1 HN1     -0.608800
     21 C11        -6.9310    3.9470   -0.6410 c3        1 HN1     -0.079400
     22 O11        -4.3180   -3.5240   -0.6980 oh        1 HN1     -0.622800
     23 C12        -8.0810    4.8360   -0.2180 c3        1 HN1     -0.079400
     24 C13        -8.1180    6.1120   -1.0180 c3        1 HN1     -0.091100
     25 OP1         7.0290   -1.0670    1.8630 o         1 HN1     -0.929167
     26 C2'         2.1740    1.3820    0.4640 c3        1 HN1     -0.137400
     27 OP3         8.6440    0.7330    0.9700 o         1 HN1     -0.929167
     28 C3'         3.6970    1.4070    0.6730 c3        1 HN1      0.162100
     29 O3'         4.1020    2.7490    0.8200 oh        1 HN1     -0.673800
     30 C4'         4.2960    0.7800   -0.6000 c3        1 HN1      0.054100
     31 O4'         3.1930    0.3190   -1.4310 os        1 HN1     -0.426600
     32 C5'         5.2700   -0.3930   -0.3240 c3        1 HN1      0.231400
     33 O5'         6.5620    0.0460   -0.3450 os        1 HN1     -0.551200
     34 OP2         6.2660    1.3410    1.7260 o         1 HN1     -0.929167
     35 H          -5.8170   -2.2560    0.7350 hc        1 HN1      0.068200
     36 HA         -4.6430   -1.5500    1.9320 hc        1 HN1      0.068200
     37 H31        -3.5840   -3.5770    1.2520 h2        1 HN1      0.066700
     38 H3         -5.1250   -0.7640   -1.0210 h1        1 HN1      0.059700
     39 HN3        -0.9710    0.6770   -0.4290 hn        1 HN1      0.462800
     40 H7         -6.6720    0.0690    0.7480 h1        1 HN1      0.058700
     41 H8          3.1660   -2.0920   -0.3410 h5        1 HN1      0.119100
     42 H9         -4.7880    2.3460   -0.2200 hc        1 HN1      0.056200
     43 H9A        -5.9020    1.4500   -1.3260 hc        1 HN1      0.056200
     44 H1'         1.2530    0.9620   -1.5230 h2        1 HN1      0.047700
     45 H10        -7.8670    2.1230    0.0550 hc        1 HN1      0.040700
     46 H10A       -6.7770    2.9110    1.2600 hc        1 HN1      0.040700
     47 HO10       -4.4040    1.2830    1.9100 ho        1 HN1      0.414000
     48 H11        -5.9630    4.5000   -0.5140 hc        1 HN1      0.040700
     49 H11A       -7.0280    3.6990   -1.7300 hc        1 HN1      0.040700
     50 H16        -3.7300   -4.2640   -0.9090 ho        1 HN1      0.429000
     51 H12        -9.0480    4.2820   -0.3470 hc        1 HN1      0.035700
     52 H12A       -7.9830    5.0780    0.8740 hc        1 HN1      0.035700
     53 H13        -8.9720    6.7530   -0.6910 hc        1 HN1      0.029367
     54 H13A       -7.1710    6.6900   -0.8820 hc        1 HN1      0.029367
     55 H13B       -8.2380    5.8920   -2.1060 hc        1 HN1      0.029367
     56 H2'         1.7970    2.4110    0.2400 hc        1 HN1      0.052700
     57 H2'A        1.6550    1.0030    1.3740 hc        1 HN1      0.052700
     58 H3'         3.9990    0.8220    1.5860 h1        1 HN1      0.113700
     59 HO3'        5.0230    2.7010    1.1700 ho        1 HN1      0.504000
     60 H4'         4.8160    1.5600   -1.2200 h1        1 HN1      0.085700
     61 H5'         5.0180   -0.8740    0.6640 h1        1 HN1     -0.003800
     62 H5'A        5.1090   -1.1500   -1.1510 h1        1 HN1     -0.003800
@<TRIPOS>BOND
     1    1    3 1   
     2    1    7 1   
     3    1   35 1   
     4    1   36 1   
     5    2   25 1   
     6    2   27 1   
     7    2   33 1   
     8    2   34 1   
     9    3    4 1   
    10    3   22 1   
    11    3   37 1   
    12    4    5 1   
    13    4   11 1   
    14    5    6 2   
    15    5    8 1   
    16    6    7 1   
    17    7   13 1   
    18    7   38 1   
    19    8    9 1   
    20    8   39 1   
    21    9   10 2   
    22    9   17 1   
    23   10   11 1   
    24   10   14 1   
    25   11   12 2   
    26   13   16 1   
    27   13   20 1   
    28   13   40 1   
    29   14   15 2   
    30   15   17 1   
    31   15   41 1   
    32   16   19 1   
    33   16   42 1   
    34   16   43 1   
    35   17   18 1   
    36   18   26 1   
    37   18   31 1   
    38   18   44 1   
    39   19   21 1   
    40   19   45 1   
    41   19   46 1   
    42   20   47 1   
    43   21   23 1   
    44   21   48 1   
    45   21   49 1   
    46   22   50 1   
    47   23   24 1   
    48   23   51 1   
    49   23   52 1   
    50   24   53 1   
    51   24   54 1   
    52   24   55 1   
    53   26   28 1   
    54   26   56 1   
    55   26   57 1   
    56   28   29 1   
    57   28   30 1   
    58   28   58 1   
    59   29   59 1   
    60   30   31 1   
    61   30   32 1   
    62   30   60 1   
    63   32   33 1   
    64   32   61 1   
    65   32   62 1   
@<TRIPOS>SUBSTRUCTURE
     1 HN1         1 TEMP              0 ****  ****    0 ROOT
