@<TRIPOS>MOLECULE
HN2
   42    44     1     0     0
SMALL
bcc


@<TRIPOS>ATOM
      1 O10         0.0790   -0.6810    0.0280 o         1 HN2     -0.536100
      2 C10         1.2610   -0.3170    0.0970 c         1 HN2      0.583700
      3 C11         1.9490   -0.1880    1.4010 ca        1 HN2     -0.177600
      4 C16         1.1750   -0.1680    2.5710 ca        1 HN2     -0.083000
      5 C15         1.7860   -0.0430    3.8160 ca        1 HN2     -0.143500
      6 C14         3.1750    0.0560    3.9060 ca        1 HN2     -0.101000
      7 C13         3.9500    0.0290    2.7460 ca        1 HN2     -0.143500
      8 C12         3.3420   -0.0910    1.4980 ca        1 HN2     -0.083000
      9 C9          2.0720    0.0100   -1.1250 c3        1 HN2     -0.217400
     10 C5          1.2020    0.1700   -2.3860 c3        1 HN2      0.211500
     11 C6          0.4830    1.5380   -2.3510 c3        1 HN2     -0.072400
     12 C7          1.3580    2.7080   -2.7540 c3        1 HN2     -0.079400
     13 C8          2.0980    2.4410   -4.0650 c3        1 HN2      0.165100
     14 O8          3.0220    3.4980   -4.2580 oh        1 HN2     -0.604800
     15 C8A         2.8510    1.1030   -3.9270 c3        1 HN2      0.148500
     16 C1          3.6640    0.6380   -5.1610 c3        1 HN2      0.102100
     17 O1          3.1930    1.3170   -6.3080 oh        1 HN2     -0.603800
     18 N4          1.8900    0.0310   -3.6510 n3        1 HN2     -0.757600
     19 C3          2.4810   -1.2300   -4.0510 c3        1 HN2      0.150800
     20 C2          3.4140   -0.8960   -5.2470 c3        1 HN2      0.105100
     21 O2          2.8330   -1.2350   -6.4850 oh        1 HN2     -0.596800
     22 H16         0.0790   -0.2560    2.4900 ha        1 HN2      0.144000
     23 H15         1.1720   -0.0250    4.7290 ha        1 HN2      0.137500
     24 H14         3.6580    0.1530    4.8890 ha        1 HN2      0.136000
     25 H13         5.0460    0.1020    2.8160 ha        1 HN2      0.137500
     26 H12         3.9680   -0.1150    0.5930 ha        1 HN2      0.144000
     27 H9          2.8130   -0.8210   -1.2680 hc        1 HN2      0.071200
     28 H9A         2.6460    0.9570   -0.9420 hc        1 HN2      0.071200
     29 H5          0.4110   -0.6400   -2.3570 h1        1 HN2      0.083700
     30 H6          0.0970    1.6960   -1.3110 hc        1 HN2      0.055200
     31 H6A        -0.4010    1.4860   -3.0400 hc        1 HN2      0.055200
     32 H7          0.7270    3.6260   -2.8740 hc        1 HN2      0.053200
     33 H7A         2.1120    2.9260   -1.9530 hc        1 HN2      0.053200
     34 H8          1.3810    2.3960   -4.9310 h1        1 HN2      0.062700
     35 HO8         3.4010    3.3640   -5.1380 ho        1 HN2      0.415000
     36 H8A         3.5940    1.2230   -3.0800 h1        1 HN2      0.036700
     37 H1          4.7550    0.8620   -5.0230 h1        1 HN2      0.050700
     38 HO1         3.5330    0.8390   -7.0780 ho        1 HN2      0.421000
     39 H3          3.0760   -1.7290   -3.2370 h1        1 HN2      0.048700
     40 H3A         1.6620   -1.9300   -4.3690 h1        1 HN2      0.048700
     41 H2          4.3680   -1.4820   -5.2020 h1        1 HN2      0.085700
     42 HO2         1.9690   -0.8010   -6.5270 ho        1 HN2      0.422000
@<TRIPOS>BOND
     1    1    2 2   
     2    2    3 1   
     3    2    9 1   
     4    3    4 ar  
     5    3    8 ar  
     6    4    5 ar  
     7    4   22 1   
     8    5    6 ar  
     9    5   23 1   
    10    6    7 ar  
    11    6   24 1   
    12    7    8 ar  
    13    7   25 1   
    14    8   26 1   
    15    9   10 1   
    16    9   27 1   
    17    9   28 1   
    18   10   11 1   
    19   10   18 1   
    20   10   29 1   
    21   11   12 1   
    22   11   30 1   
    23   11   31 1   
    24   12   13 1   
    25   12   32 1   
    26   12   33 1   
    27   13   14 1   
    28   13   15 1   
    29   13   34 1   
    30   14   35 1   
    31   15   16 1   
    32   15   18 1   
    33   15   36 1   
    34   16   17 1   
    35   16   20 1   
    36   16   37 1   
    37   17   38 1   
    38   18   19 1   
    39   19   20 1   
    40   19   39 1   
    41   19   40 1   
    42   20   21 1   
    43   20   41 1   
    44   21   42 1   
@<TRIPOS>SUBSTRUCTURE
     1 HN2         1 TEMP              0 ****  ****    0 ROOT
