@<TRIPOS>MOLECULE
HN2
   42    44     1     0     0
SMALL
bcc


@<TRIPOS>ATOM
      1 O10         0.0430   -0.5830    0.0010 o         1 HN2     -0.536100
      2 C10         1.2410   -0.2780    0.0650 c         1 HN2      0.583700
      3 C11         1.9440   -0.2030    1.3650 ca        1 HN2     -0.178600
      4 C16         1.1820   -0.1990    2.5430 ca        1 HN2     -0.082500
      5 C15         1.8070   -0.1260    3.7860 ca        1 HN2     -0.143500
      6 C14         3.1980   -0.0620    3.8650 ca        1 HN2     -0.100000
      7 C13         3.9630   -0.0730    2.6980 ca        1 HN2     -0.143500
      8 C12         3.3400   -0.1410    1.4520 ca        1 HN2     -0.082500
      9 C9          2.0570    0.0330   -1.1590 c3        1 HN2     -0.216400
     10 C5          1.1870    0.2120   -2.4170 c3        1 HN2      0.205500
     11 C6          0.4830    1.5860   -2.3670 c3        1 HN2     -0.074400
     12 C7          1.3770    2.7500   -2.7430 c3        1 HN2     -0.077400
     13 C8          2.1110    2.4950   -4.0590 c3        1 HN2      0.159100
     14 O8          3.0520    3.5410   -4.2360 oh        1 HN2     -0.597800
     15 C8A         2.8400    1.1420   -3.9550 c3        1 HN2      0.099500
     16 C1          3.6110    0.6810   -5.2160 c3        1 HN2      0.106100
     17 O1          3.0140    1.1180   -6.4170 oh        1 HN2     -0.592800
     18 N4          1.8700    0.0730   -3.6880 n3        1 HN2     -0.752600
     19 C3          2.4790   -1.1930   -4.0620 c3        1 HN2      0.136800
     20 C2          3.6030   -0.8700   -5.0890 c3        1 HN2      0.105100
     21 O2          3.4090   -1.5410   -6.3070 oh        1 HN2     -0.576800
     22 H16         0.0830   -0.2590    2.4700 ha        1 HN2      0.144500
     23 H15         1.2020   -0.1210    4.7040 ha        1 HN2      0.138000
     24 H14         3.6930   -0.0050    4.8460 ha        1 HN2      0.136000
     25 H13         5.0600   -0.0270    2.7590 ha        1 HN2      0.138000
     26 H12         3.9580   -0.1520    0.5410 ha        1 HN2      0.144500
     27 H9          2.7810   -0.8140   -1.3020 hc        1 HN2      0.071700
     28 H9A         2.6510    0.9660   -0.9750 hc        1 HN2      0.071700
     29 H5          0.3880   -0.5900   -2.3930 h1        1 HN2      0.085700
     30 H6          0.0900    1.7320   -1.3270 hc        1 HN2      0.057200
     31 H6A        -0.3960    1.5570   -3.0620 hc        1 HN2      0.057200
     32 H7          2.1350    2.9390   -1.9380 hc        1 HN2      0.055200
     33 H7A         0.7620    3.6820   -2.8440 hc        1 HN2      0.055200
     34 H8          1.3850    2.4880   -4.9190 h1        1 HN2      0.046700
     35 HO8         3.4580    3.3940   -5.1010 ho        1 HN2      0.411000
     36 H8A         3.6000    1.2390   -3.1200 h1        1 HN2      0.045700
     37 H1          4.6520    1.0940   -5.2480 h1        1 HN2      0.093700
     38 HO1         2.0650    0.9430   -6.3560 ho        1 HN2      0.412000
     39 H3          2.9130   -1.7560   -3.1920 h1        1 HN2      0.051200
     40 H3A         1.6890   -1.8370   -4.5350 h1        1 HN2      0.051200
     41 H2          4.5950   -1.2400   -4.7160 h1        1 HN2      0.084700
     42 HO2         2.7200   -1.0790   -6.8020 ho        1 HN2      0.409000
@<TRIPOS>BOND
     1    1    2 2   
     2    2    3 1   
     3    2    9 1   
     4    3    4 ar  
     5    3    8 ar  
     6    4    5 ar  
     7    4   22 1   
     8    5    6 ar  
     9    5   23 1   
    10    6    7 ar  
    11    6   24 1   
    12    7    8 ar  
    13    7   25 1   
    14    8   26 1   
    15    9   10 1   
    16    9   27 1   
    17    9   28 1   
    18   10   11 1   
    19   10   18 1   
    20   10   29 1   
    21   11   12 1   
    22   11   30 1   
    23   11   31 1   
    24   12   13 1   
    25   12   32 1   
    26   12   33 1   
    27   13   14 1   
    28   13   15 1   
    29   13   34 1   
    30   14   35 1   
    31   15   16 1   
    32   15   18 1   
    33   15   36 1   
    34   16   17 1   
    35   16   20 1   
    36   16   37 1   
    37   17   38 1   
    38   18   19 1   
    39   19   20 1   
    40   19   39 1   
    41   19   40 1   
    42   20   21 1   
    43   20   41 1   
    44   21   42 1   
@<TRIPOS>SUBSTRUCTURE
     1 HN2         1 TEMP              0 ****  ****    0 ROOT
