@<TRIPOS>MOLECULE
HN2
   42    41     1     0     0
SMALL
bcc


@<TRIPOS>ATOM
      1 O10        -2.1370   -0.6760    2.1440 o         1 HN2     -0.294000
      2 C10        -0.9210   -0.3520    2.0820 c1        1 HN2      0.275000
      3 C11        -0.0140   -0.5720    3.2800 c1        1 HN2     -0.156000
      4 C16        -0.5510   -1.0240    4.4980 c2        1 HN2     -0.075000
      5 C15         0.3000   -1.3020    5.5800 c1        1 HN2     -0.141000
      6 C14         1.6820   -1.1290    5.4460 c1        1 HN2     -0.122000
      7 C13         2.2220   -0.6750    4.2240 c1        1 HN2     -0.122000
      8 C12         1.3750   -0.3980    3.1460 c1        1 HN2     -0.094000
      9 C9         -0.3140    0.1540    0.7270 c3        1 HN2     -0.237000
     10 C5         -1.3570    0.2710   -0.2510 c3        1 HN2      0.009000
     11 C6         -1.6910    1.7040   -0.4180 c3        1 HN2     -0.167000
     12 C7         -1.1650    2.2040   -1.5220 c3        1 HN2     -0.146000
     13 C8          0.0200    1.9090   -1.9880 c3        1 HN2      0.044000
     14 O8          1.0810    2.7310   -1.2280 oh        1 HN2     -0.326000
     15 C8A         0.3280    0.3900   -1.8150 c3        1 HN2     -0.094000
     16 C1          0.9840   -0.1470   -3.0630 c3        1 HN2     -0.006000
     17 O1          0.8300    0.7170   -4.0720 oh        1 HN2     -0.318000
     18 N4         -0.8690   -0.4400   -1.6290 n3        1 HN2     -0.276000
     19 C3         -0.5430   -1.8290   -2.3010 c3        1 HN2     -0.101000
     20 C2          0.2180   -1.5540   -3.4020 c3        1 HN2     -0.007000
     21 O2         -0.6130   -1.4070   -4.5660 oh        1 HN2     -0.306000
     22 H16        -1.5440   -1.1500    4.5930 ha        1 HN2      0.154000
     23 H15        -0.0770   -1.6180    6.4320 ha        1 HN2      0.139000
     24 H14         2.2670   -1.3200    6.1900 ha        1 HN2      0.136500
     25 H13         3.2040   -0.5520    4.1290 ha        1 HN2      0.136500
     26 H12         1.7460   -0.0860    2.3030 ha        1 HN2      0.133000
     27 H9          0.0990    1.0250    0.8640 hc        1 HN2      0.110000
     28 H9A         0.3740   -0.4940    0.4080 hc        1 HN2      0.110000
     29 H5         -2.1430   -0.1940    0.0750 h1        1 HN2      0.118000
     30 H6         -1.3470    2.2080    0.3600 hc        1 HN2      0.097000
     31 H6A        -2.6730    1.8020   -0.4570 hc        1 HN2      0.097000
     32 H7         -1.1740    3.1730   -1.4070 hc        1 HN2      0.100500
     33 H7A        -1.8070    1.9960   -2.2490 hc        1 HN2      0.100500
     34 H8          0.0560    2.1380   -2.9290 h1        1 HN2      0.086000
     35 HO8         1.5550    3.2510   -1.8280 ho        1 HN2      0.202000
     36 H8A         0.9090    0.2720   -1.0810 h1        1 HN2      0.089000
     37 H1          1.9380   -0.3100   -2.9000 h1        1 HN2      0.130000
     38 HO1         1.2190    0.4090   -4.7770 ho        1 HN2      0.212000
     39 H3         -1.3600   -2.2650   -2.5640 h1        1 HN2      0.089000
     40 H3A        -0.0480   -2.3940   -1.6800 h1        1 HN2      0.089000
     41 H2          0.8700   -2.2640   -3.5420 h1        1 HN2      0.123000
     42 HO2        -0.9290   -2.2060   -4.8090 ho        1 HN2      0.209000
@<TRIPOS>BOND
     1    1    2 1   
     2    2    9 1   
     3    3    4 1   
     4    3    8 1   
     5    4    5 1   
     6    4   22 1   
     7    5   23 1   
     8    6    7 1   
     9    6   24 1   
    10    7   25 1   
    11    8   26 1   
    12    9   10 1   
    13    9   27 1   
    14    9   28 1   
    15   10   11 1   
    16   10   18 1   
    17   10   29 1   
    18   11   12 1   
    19   11   30 1   
    20   11   31 1   
    21   12   13 1   
    22   12   32 1   
    23   12   33 1   
    24   13   14 1   
    25   13   15 1   
    26   13   34 1   
    27   14   35 1   
    28   15   16 1   
    29   15   18 1   
    30   15   36 1   
    31   16   17 1   
    32   16   20 1   
    33   16   37 1   
    34   17   38 1   
    35   18   19 1   
    36   19   20 1   
    37   19   39 1   
    38   19   40 1   
    39   20   21 1   
    40   20   41 1   
    41   21   42 1   
@<TRIPOS>SUBSTRUCTURE
     1 HN2         1 TEMP              0 ****  ****    0 ROOT
