@<TRIPOS>MOLECULE
HN2
   42    44     1     0     0
SMALL
bcc


@<TRIPOS>ATOM
      1 O10         0.0370   -0.5630    0.0040 o         1 HN2     -0.536100
      2 C10         1.2360   -0.2640    0.0680 c         1 HN2      0.583700
      3 C11         1.9400   -0.1900    1.3680 ca        1 HN2     -0.178600
      4 C16         1.1780   -0.1830    2.5450 ca        1 HN2     -0.082500
      5 C15         1.8030   -0.1110    3.7880 ca        1 HN2     -0.143500
      6 C14         3.1940   -0.0520    3.8670 ca        1 HN2     -0.100000
      7 C13         3.9590   -0.0650    2.7000 ca        1 HN2     -0.143500
      8 C12         3.3360   -0.1330    1.4550 ca        1 HN2     -0.082500
      9 C9          2.0540    0.0390   -1.1570 c3        1 HN2     -0.216400
     10 C5          1.1860    0.2170   -2.4160 c3        1 HN2      0.205500
     11 C6          0.4870    1.5940   -2.3720 c3        1 HN2     -0.074400
     12 C7          1.3860    2.7530   -2.7530 c3        1 HN2     -0.077400
     13 C8          2.1200    2.4890   -4.0670 c3        1 HN2      0.159100
     14 O8          3.0650    3.5300   -4.2480 oh        1 HN2     -0.597800
     15 C8A         2.8430    1.1330   -3.9570 c3        1 HN2      0.099500
     16 C1          3.6130    0.6640   -5.2160 c3        1 HN2      0.106100
     17 O1          3.0190    1.0990   -6.4190 oh        1 HN2     -0.592800
     18 N4          1.8690    0.0690   -3.6860 n3        1 HN2     -0.752600
     19 C3          2.4730   -1.2000   -4.0550 c3        1 HN2      0.136800
     20 C2          3.5990   -0.8850   -5.0830 c3        1 HN2      0.105100
     21 O2          3.4030   -1.5620   -6.2980 oh        1 HN2     -0.576800
     22 H16         0.0790   -0.2400    2.4730 ha        1 HN2      0.144500
     23 H15         1.1980   -0.1040    4.7070 ha        1 HN2      0.138000
     24 H14         3.6890    0.0040    4.8480 ha        1 HN2      0.136000
     25 H13         5.0560   -0.0220    2.7610 ha        1 HN2      0.138000
     26 H12         3.9540   -0.1450    0.5440 ha        1 HN2      0.144500
     27 H9          2.6520    0.9710   -0.9760 hc        1 HN2      0.071700
     28 H9A         2.7750   -0.8100   -1.2960 hc        1 HN2      0.071700
     29 H5          0.3840   -0.5830   -2.3900 h1        1 HN2      0.085700
     30 H6         -0.3920    1.5650   -3.0680 hc        1 HN2      0.057200
     31 H6A         0.0940    1.7460   -1.3340 hc        1 HN2      0.057200
     32 H7          2.1450    2.9420   -1.9480 hc        1 HN2      0.055200
     33 H7A         0.7750    3.6860   -2.8580 hc        1 HN2      0.055200
     34 H8          1.3950    2.4820   -4.9280 h1        1 HN2      0.046700
     35 HO8         3.4710    3.3790   -5.1120 ho        1 HN2      0.411000
     36 H8A         3.6030    1.2310   -3.1230 h1        1 HN2      0.045700
     37 H1          4.6560    1.0730   -5.2490 h1        1 HN2      0.093700
     38 HO1         2.0690    0.9270   -6.3570 ho        1 HN2      0.412000
     39 H3          2.9040   -1.7620   -3.1820 h1        1 HN2      0.051200
     40 H3A         1.6810   -1.8430   -4.5260 h1        1 HN2      0.051200
     41 H2          4.5900   -1.2580   -4.7070 h1        1 HN2      0.084700
     42 HO2         2.7160   -1.0980   -6.7950 ho        1 HN2      0.409000
@<TRIPOS>BOND
     1    1    2 2   
     2    2    3 1   
     3    2    9 1   
     4    3    4 ar  
     5    3    8 ar  
     6    4    5 ar  
     7    4   22 1   
     8    5    6 ar  
     9    5   23 1   
    10    6    7 ar  
    11    6   24 1   
    12    7    8 ar  
    13    7   25 1   
    14    8   26 1   
    15    9   10 1   
    16    9   27 1   
    17    9   28 1   
    18   10   11 1   
    19   10   18 1   
    20   10   29 1   
    21   11   12 1   
    22   11   30 1   
    23   11   31 1   
    24   12   13 1   
    25   12   32 1   
    26   12   33 1   
    27   13   14 1   
    28   13   15 1   
    29   13   34 1   
    30   14   35 1   
    31   15   16 1   
    32   15   18 1   
    33   15   36 1   
    34   16   17 1   
    35   16   20 1   
    36   16   37 1   
    37   17   38 1   
    38   18   19 1   
    39   19   20 1   
    40   19   39 1   
    41   19   40 1   
    42   20   21 1   
    43   20   41 1   
    44   21   42 1   
@<TRIPOS>SUBSTRUCTURE
     1 HN2         1 TEMP              0 ****  ****    0 ROOT
