@<TRIPOS>MOLECULE
HN2
   42    44     1     0     0
SMALL
bcc


@<TRIPOS>ATOM
      1 O10         2.1630    0.3800   -2.2270 o         1 HN2     -0.536100
      2 C10         2.1130    0.3750   -0.9900 c         1 HN2      0.583700
      3 C11         3.3460    0.3910   -0.1730 ca        1 HN2     -0.177600
      4 C16         4.5690    0.0930   -0.7930 ca        1 HN2     -0.083000
      5 C15         5.7510    0.0940   -0.0550 ca        1 HN2     -0.143500
      6 C14         5.7240    0.4010    1.3050 ca        1 HN2     -0.101000
      7 C13         4.5130    0.7070    1.9260 ca        1 HN2     -0.143500
      8 C12         3.3280    0.7010    1.1930 ca        1 HN2     -0.083000
      9 C9          0.8110    0.3560   -0.2400 c3        1 HN2     -0.217400
     10 C5         -0.3870    0.0090   -1.1450 c3        1 HN2      0.211500
     11 C6         -0.3960   -1.5090   -1.4350 c3        1 HN2     -0.072400
     12 C7         -0.9500   -2.3530   -0.3050 c3        1 HN2     -0.079400
     13 C8         -2.2920   -1.8190    0.1990 c3        1 HN2      0.165100
     14 O8         -2.6340   -2.5510    1.3640 oh        1 HN2     -0.604800
     15 C8A        -2.1150   -0.3280    0.5470 c3        1 HN2      0.148500
     16 C1         -3.3720    0.4110    1.0710 c3        1 HN2      0.102100
     17 O1         -4.5250   -0.3200    0.7060 oh        1 HN2     -0.603800
     18 N4         -1.6880    0.4030   -0.6500 n3        1 HN2     -0.757600
     19 C3         -2.0400    1.7990   -0.4850 c3        1 HN2      0.150800
     20 C2         -3.3250    1.8080    0.3860 c3        1 HN2      0.105100
     21 O2         -4.4870    2.0220   -0.3830 oh        1 HN2     -0.596800
     22 H16         4.5800   -0.1390   -1.8710 ha        1 HN2      0.144000
     23 H15         6.7050   -0.1450   -0.5480 ha        1 HN2      0.137500
     24 H14         6.6570    0.4030    1.8890 ha        1 HN2      0.136000
     25 H13         4.4910    0.9520    2.9980 ha        1 HN2      0.137500
     26 H12         2.3800    0.9480    1.6960 ha        1 HN2      0.144000
     27 H9          0.8790   -0.3890    0.5960 hc        1 HN2      0.071200
     28 H9A         0.6720    1.3730    0.2160 hc        1 HN2      0.071200
     29 H5         -0.2370    0.5520   -2.1270 h1        1 HN2      0.083700
     30 H6         -1.0080   -1.6840   -2.3590 hc        1 HN2      0.055200
     31 H6A         0.6570   -1.8210   -1.6590 hc        1 HN2      0.055200
     32 H7         -1.0870   -3.4080   -0.6550 hc        1 HN2      0.053200
     33 H7A        -0.2280   -2.3790    0.5530 hc        1 HN2      0.053200
     34 H8         -3.0930   -1.9440   -0.5800 h1        1 HN2      0.062700
     35 HO8        -3.5270   -2.2710    1.6030 ho        1 HN2      0.415000
     36 H8A        -1.3400   -0.2670    1.3710 h1        1 HN2      0.036700
     37 H1         -3.3360    0.5080    2.1890 h1        1 HN2      0.050700
     38 HO1        -5.2820    0.2710    0.8200 ho        1 HN2      0.421000
     39 H3         -1.2400    2.4100    0.0180 h1        1 HN2      0.048700
     40 H3A        -2.2410    2.2440   -1.4960 h1        1 HN2      0.048700
     41 H2         -3.3130    2.6440    1.1320 h1        1 HN2      0.085700
     42 HO2        -4.4930    1.3570   -1.0870 ho        1 HN2      0.422000
@<TRIPOS>BOND
     1    1    2 2   
     2    2    3 1   
     3    2    9 1   
     4    3    4 ar  
     5    3    8 ar  
     6    4    5 ar  
     7    4   22 1   
     8    5    6 ar  
     9    5   23 1   
    10    6    7 ar  
    11    6   24 1   
    12    7    8 ar  
    13    7   25 1   
    14    8   26 1   
    15    9   10 1   
    16    9   27 1   
    17    9   28 1   
    18   10   11 1   
    19   10   18 1   
    20   10   29 1   
    21   11   12 1   
    22   11   30 1   
    23   11   31 1   
    24   12   13 1   
    25   12   32 1   
    26   12   33 1   
    27   13   14 1   
    28   13   15 1   
    29   13   34 1   
    30   14   35 1   
    31   15   16 1   
    32   15   18 1   
    33   15   36 1   
    34   16   17 1   
    35   16   20 1   
    36   16   37 1   
    37   17   38 1   
    38   18   19 1   
    39   19   20 1   
    40   19   39 1   
    41   19   40 1   
    42   20   21 1   
    43   20   41 1   
    44   21   42 1   
@<TRIPOS>SUBSTRUCTURE
     1 HN2         1 TEMP              0 ****  ****    0 ROOT
