@<TRIPOS>MOLECULE
HN3
   45    47     1     0     0
SMALL
bcc


@<TRIPOS>ATOM
      1 O10         0.0930   -0.6380    0.0300 o         1 HN3     -0.538100
      2 C10         1.2840   -0.3040    0.0870 c         1 HN3      0.584700
      3 C11         1.9930   -0.2130    1.3820 ca        1 HN3     -0.184600
      4 C16         1.2420   -0.2450    2.5660 ca        1 HN3     -0.078000
      5 C15         1.8710   -0.1590    3.8040 ca        1 HN3     -0.146500
      6 C14         3.2640   -0.0440    3.8840 ca        1 HN3     -0.044300
      7 C17         3.9350    0.0630    5.1990 c3        1 HN3     -0.060800
      8 C13         4.0150   -0.0200    2.7020 ca        1 HN3     -0.146500
      9 C12         3.3860   -0.1020    1.4620 ca        1 HN3     -0.078000
     10 C9          2.0830    0.0250   -1.1420 c3        1 HN3     -0.217400
     11 C5          1.2020    0.1860   -2.3950 c3        1 HN3      0.211500
     12 C6          0.4860    1.5550   -2.3540 c3        1 HN3     -0.072400
     13 C7          1.3590    2.7240   -2.7650 c3        1 HN3     -0.079400
     14 C8          2.0870    2.4550   -4.0820 c3        1 HN3      0.165100
     15 O8          3.0110    3.5110   -4.2840 oh        1 HN3     -0.604800
     16 C8A         2.8400    1.1160   -3.9500 c3        1 HN3      0.148500
     17 C1          3.6420    0.6500   -5.1910 c3        1 HN3      0.102100
     18 O1          3.1620    1.3290   -6.3330 oh        1 HN3     -0.603800
     19 N4          1.8790    0.0450   -3.6660 n3        1 HN3     -0.757600
     20 C3          2.4650   -1.2160   -4.0700 c3        1 HN3      0.150800
     21 C2          3.3890   -0.8840   -5.2740 c3        1 HN3      0.105100
     22 O2          2.7970   -1.2220   -6.5070 oh        1 HN3     -0.596800
     23 H16         0.1450   -0.3440    2.5020 ha        1 HN3      0.143500
     24 H15         1.2710   -0.1840    4.7260 ha        1 HN3      0.137000
     25 H17         4.0190    1.1390    5.4950 hc        1 HN3      0.049367
     26 H17A        3.3530   -0.4720    5.9900 hc        1 HN3      0.049367
     27 H17B        4.9640   -0.3710    5.1620 hc        1 HN3      0.049367
     28 H13         5.1110    0.0640    2.7540 ha        1 HN3      0.137000
     29 H12         3.9990   -0.0840    0.5480 ha        1 HN3      0.143500
     30 H9          2.6580    0.9720   -0.9620 hc        1 HN3      0.070700
     31 H9A         2.8250   -0.8050   -1.2920 hc        1 HN3      0.070700
     32 H5          0.4110   -0.6230   -2.3580 h1        1 HN3      0.082700
     33 H6         -0.4040    1.5050   -3.0350 hc        1 HN3      0.055700
     34 H6A         0.1080    1.7140   -1.3110 hc        1 HN3      0.055700
     35 H7          2.1200    2.9410   -1.9700 hc        1 HN3      0.052700
     36 H7A         0.7280    3.6430   -2.8800 hc        1 HN3      0.052700
     37 H8          1.3630    2.4110   -4.9420 h1        1 HN3      0.062700
     38 HO8         3.3830    3.3760   -5.1660 ho        1 HN3      0.415000
     39 H8A         3.5900    1.2360   -3.1090 h1        1 HN3      0.036700
     40 H1          4.7340    0.8730   -5.0610 h1        1 HN3      0.050700
     41 HO1         3.4940    0.8500   -7.1060 ho        1 HN3      0.421000
     42 H3          1.6430   -1.9150   -4.3810 h1        1 HN3      0.049200
     43 H3A         3.0670   -1.7150   -3.2610 h1        1 HN3      0.049200
     44 H2          4.3420   -1.4710   -5.2380 h1        1 HN3      0.085700
     45 HO2         1.9330   -0.7870   -6.5420 ho        1 HN3      0.422000
@<TRIPOS>BOND
     1    1    2 2   
     2    2    3 1   
     3    2   10 1   
     4    3    4 ar  
     5    3    9 ar  
     6    4    5 ar  
     7    4   23 1   
     8    5    6 ar  
     9    5   24 1   
    10    6    7 1   
    11    6    8 ar  
    12    7   25 1   
    13    7   26 1   
    14    7   27 1   
    15    8    9 ar  
    16    8   28 1   
    17    9   29 1   
    18   10   11 1   
    19   10   30 1   
    20   10   31 1   
    21   11   12 1   
    22   11   19 1   
    23   11   32 1   
    24   12   13 1   
    25   12   33 1   
    26   12   34 1   
    27   13   14 1   
    28   13   35 1   
    29   13   36 1   
    30   14   15 1   
    31   14   16 1   
    32   14   37 1   
    33   15   38 1   
    34   16   17 1   
    35   16   19 1   
    36   16   39 1   
    37   17   18 1   
    38   17   21 1   
    39   17   40 1   
    40   18   41 1   
    41   19   20 1   
    42   20   21 1   
    43   20   42 1   
    44   20   43 1   
    45   21   22 1   
    46   21   44 1   
    47   22   45 1   
@<TRIPOS>SUBSTRUCTURE
     1 HN3         1 TEMP              0 ****  ****    0 ROOT
