@<TRIPOS>MOLECULE
HN3
   45    47     1     0     0
SMALL
bcc


@<TRIPOS>ATOM
      1 O10         0.0520   -0.5100    0.0090 o         1 HN3     -0.538100
      2 C10         1.2580   -0.2340    0.0620 c         1 HN3      0.584700
      3 C11         1.9780   -0.1860    1.3530 ca        1 HN3     -0.184600
      4 C16         1.2340   -0.2230    2.5420 ca        1 HN3     -0.078000
      5 C15         1.8730   -0.1770    3.7770 ca        1 HN3     -0.146500
      6 C14         3.2680   -0.0980    3.8500 ca        1 HN3     -0.043300
      7 C17         3.9490   -0.0340    5.1630 c3        1 HN3     -0.061800
      8 C13         4.0120   -0.0690    2.6640 ca        1 HN3     -0.146500
      9 C12         3.3750   -0.1110    1.4270 ca        1 HN3     -0.078000
     10 C9          2.0660    0.0640   -1.1700 c3        1 HN3     -0.216400
     11 C5          1.1890    0.2340   -2.4240 c3        1 HN3      0.205500
     12 C6          0.4910    1.6110   -2.3840 c3        1 HN3     -0.074400
     13 C7          1.3870    2.7680   -2.7780 c3        1 HN3     -0.077400
     14 C8          2.1120    2.4960   -4.0960 c3        1 HN3      0.159100
     15 O8          3.0560    3.5350   -4.2900 oh        1 HN3     -0.597800
     16 C8A         2.8360    1.1400   -3.9820 c3        1 HN3      0.099500
     17 C1          3.5970    0.6630   -5.2430 c3        1 HN3      0.106100
     18 O1          2.9950    1.0900   -6.4450 oh        1 HN3     -0.592800
     19 N4          1.8630    0.0780   -3.6980 n3        1 HN3     -0.752600
     20 C3          2.4640   -1.1940   -4.0630 c3        1 HN3      0.136800
     21 C2          3.5830   -0.8860   -5.1010 c3        1 HN3      0.105100
     22 O2          3.3780   -1.5690   -6.3100 oh        1 HN3     -0.577800
     23 H16         0.1350   -0.2930    2.4830 ha        1 HN3      0.143500
     24 H15         1.2770   -0.2060    4.7020 ha        1 HN3      0.137500
     25 H17         3.3560   -0.5630    5.9490 hc        1 HN3      0.049700
     26 H17A        4.0700    1.0340    5.4760 hc        1 HN3      0.049700
     27 H17B        4.9640   -0.5000    5.1120 hc        1 HN3      0.049700
     28 H13         5.1100   -0.0130    2.7110 ha        1 HN3      0.137500
     29 H12         3.9820   -0.0900    0.5100 ha        1 HN3      0.143500
     30 H9          2.6620    0.9990   -0.9970 hc        1 HN3      0.071200
     31 H9A         2.7890   -0.7840   -1.3110 hc        1 HN3      0.071200
     32 H5          0.3870   -0.5650   -2.3870 h1        1 HN3      0.084700
     33 H6         -0.3930    1.5780   -3.0740 hc        1 HN3      0.057200
     34 H6A         0.1050    1.7700   -1.3430 hc        1 HN3      0.057200
     35 H7          0.7760    3.7010   -2.8850 hc        1 HN3      0.055200
     36 H7A         2.1520    2.9620   -1.9800 hc        1 HN3      0.055200
     37 H8          1.3810    2.4830   -4.9510 h1        1 HN3      0.045700
     38 HO8         3.4560    3.3780   -5.1550 ho        1 HN3      0.411000
     39 H8A         3.6010    1.2430   -3.1540 h1        1 HN3      0.045700
     40 H1          4.6400    1.0720   -5.2860 h1        1 HN3      0.092700
     41 HO1         2.0450    0.9200   -6.3760 ho        1 HN3      0.412000
     42 H3          2.9010   -1.7500   -3.1900 h1        1 HN3      0.051700
     43 H3A         1.6690   -1.8390   -4.5250 h1        1 HN3      0.051700
     44 H2          4.5760   -1.2570   -4.7290 h1        1 HN3      0.084700
     45 HO2         2.6870   -1.1090   -6.8050 ho        1 HN3      0.409000
@<TRIPOS>BOND
     1    1    2 2   
     2    2    3 1   
     3    2   10 1   
     4    3    4 ar  
     5    3    9 ar  
     6    4    5 ar  
     7    4   23 1   
     8    5    6 ar  
     9    5   24 1   
    10    6    7 1   
    11    6    8 ar  
    12    7   25 1   
    13    7   26 1   
    14    7   27 1   
    15    8    9 ar  
    16    8   28 1   
    17    9   29 1   
    18   10   11 1   
    19   10   30 1   
    20   10   31 1   
    21   11   12 1   
    22   11   19 1   
    23   11   32 1   
    24   12   13 1   
    25   12   33 1   
    26   12   34 1   
    27   13   14 1   
    28   13   35 1   
    29   13   36 1   
    30   14   15 1   
    31   14   16 1   
    32   14   37 1   
    33   15   38 1   
    34   16   17 1   
    35   16   19 1   
    36   16   39 1   
    37   17   18 1   
    38   17   21 1   
    39   17   40 1   
    40   18   41 1   
    41   19   20 1   
    42   20   21 1   
    43   20   42 1   
    44   20   43 1   
    45   21   22 1   
    46   21   44 1   
    47   22   45 1   
@<TRIPOS>SUBSTRUCTURE
     1 HN3         1 TEMP              0 ****  ****    0 ROOT
