@<TRIPOS>MOLECULE
HN3
   45    47     1     0     0
SMALL
bcc


@<TRIPOS>ATOM
      1 O10         1.6940   -0.5550   -2.3810 o         1 HN3     -0.538100
      2 C10         1.7190   -0.1220   -1.2210 c         1 HN3      0.584700
      3 C11         3.0000    0.1460   -0.5310 ca        1 HN3     -0.184600
      4 C16         4.1860   -0.3460   -1.0960 ca        1 HN3     -0.078000
      5 C15         5.4110   -0.1180   -0.4750 ca        1 HN3     -0.146500
      6 C14         5.4750    0.6130    0.7170 ca        1 HN3     -0.044300
      7 C17         6.7790    0.8700    1.3700 c3        1 HN3     -0.060800
      8 C13         4.2920    1.1090    1.2780 ca        1 HN3     -0.146500
      9 C12         3.0650    0.8780    0.6610 ca        1 HN3     -0.078000
     10 C9          0.4650    0.1610   -0.4440 c3        1 HN3     -0.217400
     11 C5         -0.7930   -0.4140   -1.1210 c3        1 HN3      0.211500
     12 C6         -0.8570   -1.9400   -0.8880 c3        1 HN3     -0.072400
     13 C7         -1.3620   -2.3370    0.4840 c3        1 HN3     -0.079400
     14 C8         -2.6580   -1.6100    0.8470 c3        1 HN3      0.165100
     15 O8         -2.9460   -1.8990    2.2040 oh        1 HN3     -0.604800
     16 C8A        -2.4240   -0.0960    0.6690 c3        1 HN3      0.148500
     17 C1         -3.6280    0.8290    0.9790 c3        1 HN3      0.102100
     18 O1         -4.8180    0.0680    0.9360 oh        1 HN3     -0.603800
     19 N4         -2.0520    0.1780   -0.7230 n3        1 HN3     -0.757600
     20 C3         -2.3590    1.5630   -1.0150 c3        1 HN3      0.150800
     21 C2         -3.5890    1.9170   -0.1340 c3        1 HN3      0.105100
     22 O2         -4.7890    1.9130   -0.8730 oh        1 HN3     -0.596800
     23 H16         4.1340   -0.9140   -2.0390 ha        1 HN3      0.143500
     24 H15         6.3340   -0.5120   -0.9250 ha        1 HN3      0.137000
     25 H17         7.2140    1.8260    0.9830 hc        1 HN3      0.049367
     26 H17A        6.6610    0.9630    2.4780 hc        1 HN3      0.049367
     27 H17B        7.5030    0.0450    1.1580 hc        1 HN3      0.049367
     28 H13         4.3320    1.6850    2.2140 ha        1 HN3      0.137000
     29 H12         2.1500    1.2810    1.1190 ha        1 HN3      0.143500
     30 H9          0.5670   -0.2700    0.5870 hc        1 HN3      0.070700
     31 H9A         0.3770    1.2770   -0.3430 hc        1 HN3      0.070700
     32 H5         -0.6900   -0.2340   -2.2350 h1        1 HN3      0.082700
     33 H6         -1.5290   -2.3850   -1.6690 hc        1 HN3      0.055700
     34 H6A         0.1720   -2.3540   -1.0470 hc        1 HN3      0.055700
     35 H7         -1.5460   -3.4420    0.5120 hc        1 HN3      0.052700
     36 H7A        -0.5910   -2.1090    1.2650 hc        1 HN3      0.052700
     37 H8         -3.5080   -1.9500    0.1940 h1        1 HN3      0.062700
     38 HO8        -3.8160   -1.5160    2.3800 ho        1 HN3      0.415000
     39 H8A        -1.5980    0.2010    1.3860 h1        1 HN3      0.036700
     40 H1         -3.5210    1.2890    1.9960 h1        1 HN3      0.050700
     41 HO1        -5.5520    0.6970    0.8820 ho        1 HN3      0.421000
     42 H3         -1.5160    2.2720   -0.7840 h1        1 HN3      0.049200
     43 H3A        -2.6100    1.6570   -2.1060 h1        1 HN3      0.049200
     44 H2         -3.5100    2.9500    0.2890 h1        1 HN3      0.085700
     45 HO2        -4.8540    1.0540   -1.3140 ho        1 HN3      0.422000
@<TRIPOS>BOND
     1    1    2 2   
     2    2    3 1   
     3    2   10 1   
     4    3    4 ar  
     5    3    9 ar  
     6    4    5 ar  
     7    4   23 1   
     8    5    6 ar  
     9    5   24 1   
    10    6    7 1   
    11    6    8 ar  
    12    7   25 1   
    13    7   26 1   
    14    7   27 1   
    15    8    9 ar  
    16    8   28 1   
    17    9   29 1   
    18   10   11 1   
    19   10   30 1   
    20   10   31 1   
    21   11   12 1   
    22   11   19 1   
    23   11   32 1   
    24   12   13 1   
    25   12   33 1   
    26   12   34 1   
    27   13   14 1   
    28   13   35 1   
    29   13   36 1   
    30   14   15 1   
    31   14   16 1   
    32   14   37 1   
    33   15   38 1   
    34   16   17 1   
    35   16   19 1   
    36   16   39 1   
    37   17   18 1   
    38   17   21 1   
    39   17   40 1   
    40   18   41 1   
    41   19   20 1   
    42   20   21 1   
    43   20   42 1   
    44   20   43 1   
    45   21   22 1   
    46   21   44 1   
    47   22   45 1   
@<TRIPOS>SUBSTRUCTURE
     1 HN3         1 TEMP              0 ****  ****    0 ROOT
