@<TRIPOS>MOLECULE
HN3
   45    47     1     0     0
SMALL
bcc


@<TRIPOS>ATOM
      1 O10         0.0490   -0.4870    0.0180 o         1 HN3     -0.538100
      2 C10         1.2560   -0.2170    0.0680 c         1 HN3      0.584700
      3 C11         1.9770   -0.1640    1.3580 ca        1 HN3     -0.184600
      4 C16         1.2340   -0.1950    2.5470 ca        1 HN3     -0.078000
      5 C15         1.8730   -0.1450    3.7820 ca        1 HN3     -0.146500
      6 C14         3.2690   -0.0690    3.8540 ca        1 HN3     -0.043300
      7 C17         3.9510   -0.0000    5.1660 c3        1 HN3     -0.061800
      8 C13         4.0120   -0.0450    2.6670 ca        1 HN3     -0.146500
      9 C12         3.3740   -0.0910    1.4310 ca        1 HN3     -0.078000
     10 C9          2.0640    0.0700   -1.1670 c3        1 HN3     -0.216400
     11 C5          1.1880    0.2330   -2.4220 c3        1 HN3      0.205500
     12 C6          0.4940    1.6130   -2.3930 c3        1 HN3     -0.074400
     13 C7          1.3940    2.7640   -2.7960 c3        1 HN3     -0.077400
     14 C8          2.1170    2.4790   -4.1120 c3        1 HN3      0.159100
     15 O8          3.0640    3.5140   -4.3140 oh        1 HN3     -0.597800
     16 C8A         2.8370    1.1220   -3.9870 c3        1 HN3      0.099500
     17 C1          3.5960    0.6330   -5.2450 c3        1 HN3      0.106100
     18 O1          2.9950    1.0520   -6.4490 oh        1 HN3     -0.592800
     19 N4          1.8610    0.0650   -3.6950 n3        1 HN3     -0.752600
     20 C3          2.4580   -1.2110   -4.0500 c3        1 HN3      0.136800
     21 C2          3.5780   -0.9150   -5.0900 c3        1 HN3      0.105100
     22 O2          3.3710   -1.6080   -6.2940 oh        1 HN3     -0.577800
     23 H16         0.1340   -0.2630    2.4890 ha        1 HN3      0.144000
     24 H15         1.2790   -0.1690    4.7080 ha        1 HN3      0.137500
     25 H17         4.0700    1.0690    5.4760 hc        1 HN3      0.049700
     26 H17A        4.9670   -0.4640    5.1150 hc        1 HN3      0.049700
     27 H17B        3.3590   -0.5290    5.9540 hc        1 HN3      0.049700
     28 H13         5.1100    0.0090    2.7130 ha        1 HN3      0.137500
     29 H12         3.9810   -0.0750    0.5130 ha        1 HN3      0.144000
     30 H9          2.6630    1.0050   -1.0010 hc        1 HN3      0.071200
     31 H9A         2.7850   -0.7800   -1.3010 hc        1 HN3      0.071200
     32 H5          0.3830   -0.5630   -2.3780 h1        1 HN3      0.084700
     33 H6         -0.3900    1.5770   -3.0820 hc        1 HN3      0.057200
     34 H6A         0.1080    1.7810   -1.3530 hc        1 HN3      0.057200
     35 H7          0.7850    3.6970   -2.9100 hc        1 HN3      0.055200
     36 H7A         2.1590    2.9610   -2.0000 hc        1 HN3      0.055200
     37 H8          1.3850    2.4610   -4.9670 h1        1 HN3      0.045700
     38 HO8         3.4630    3.3480   -5.1790 ho        1 HN3      0.411000
     39 H8A         3.6020    1.2290   -3.1600 h1        1 HN3      0.045700
     40 H1          4.6400    1.0370   -5.2910 h1        1 HN3      0.092700
     41 HO1         2.0450    0.8850   -6.3790 ho        1 HN3      0.412000
     42 H3          1.6610   -1.8580   -4.5060 h1        1 HN3      0.051700
     43 H3A         2.8930   -1.7620   -3.1720 h1        1 HN3      0.051700
     44 H2          4.5700   -1.2860   -4.7150 h1        1 HN3      0.084700
     45 HO2         2.6810   -1.1490   -6.7920 ho        1 HN3      0.409000
@<TRIPOS>BOND
     1    1    2 2   
     2    2    3 1   
     3    2   10 1   
     4    3    4 ar  
     5    3    9 ar  
     6    4    5 ar  
     7    4   23 1   
     8    5    6 ar  
     9    5   24 1   
    10    6    7 1   
    11    6    8 ar  
    12    7   25 1   
    13    7   26 1   
    14    7   27 1   
    15    8    9 ar  
    16    8   28 1   
    17    9   29 1   
    18   10   11 1   
    19   10   30 1   
    20   10   31 1   
    21   11   12 1   
    22   11   19 1   
    23   11   32 1   
    24   12   13 1   
    25   12   33 1   
    26   12   34 1   
    27   13   14 1   
    28   13   35 1   
    29   13   36 1   
    30   14   15 1   
    31   14   16 1   
    32   14   37 1   
    33   15   38 1   
    34   16   17 1   
    35   16   19 1   
    36   16   39 1   
    37   17   18 1   
    38   17   21 1   
    39   17   40 1   
    40   18   41 1   
    41   19   20 1   
    42   20   21 1   
    43   20   42 1   
    44   20   43 1   
    45   21   22 1   
    46   21   44 1   
    47   22   45 1   
@<TRIPOS>SUBSTRUCTURE
     1 HN3         1 TEMP              0 ****  ****    0 ROOT
