@<TRIPOS>MOLECULE
HN4
   54    56     1     0     0
SMALL
bcc


@<TRIPOS>ATOM
      1 O10         0.1500   -0.6350   -0.0020 o         1 HN4     -0.539100
      2 C10         1.3470   -0.3190    0.0410 c         1 HN4      0.584700
      3 C11         2.0710   -0.2280    1.3270 ca        1 HN4     -0.183600
      4 C12         1.3360   -0.2680    2.5220 ca        1 HN4     -0.081000
      5 C13         1.9810   -0.1820    3.7500 ca        1 HN4     -0.144000
      6 C14         3.3770   -0.0590    3.8240 ca        1 HN4     -0.031300
      7 C17         4.0370    0.0310    5.1750 c3        1 HN4     -0.015700
      8 C18         3.7180   -1.2280    5.9780 c3        1 HN4     -0.087100
      9 C19         5.5520    0.1610    5.0750 c3        1 HN4     -0.087100
     10 C20         3.5020    1.2520    5.9170 c3        1 HN4     -0.087100
     11 C15         4.1060   -0.0270    2.6300 ca        1 HN4     -0.144000
     12 C16         3.4620   -0.1090    1.3960 ca        1 HN4     -0.081000
     13 C9          2.1390   -0.0130   -1.1990 c3        1 HN4     -0.216400
     14 C5          1.2500    0.1230   -2.4490 c3        1 HN4      0.208500
     15 N4          1.9180   -0.0430   -3.7230 n3        1 HN4     -0.758600
     16 C3          2.5280   -1.3060   -4.0920 c3        1 HN4      0.141800
     17 C2          3.3860   -0.9910   -5.3490 c3        1 HN4      0.108100
     18 O2          2.7240   -1.3490   -6.5410 oh        1 HN4     -0.583800
     19 C1          3.6640    0.5400   -5.2810 c3        1 HN4      0.109100
     20 O1          3.3160    1.2420   -6.4490 oh        1 HN4     -0.585800
     21 C8A         2.8760    1.0240   -4.0340 c3        1 HN4      0.100500
     22 C8          2.1280    2.3630   -4.1790 c3        1 HN4      0.165100
     23 O8          3.0500    3.4160   -4.3990 oh        1 HN4     -0.602800
     24 C7          1.4020    2.6530   -2.8650 c3        1 HN4     -0.078400
     25 C6          0.5320    1.4910   -2.4310 c3        1 HN4     -0.073400
     26 H12         0.2390   -0.3710    2.4720 ha        1 HN4      0.143500
     27 H13         1.3840   -0.2120    4.6750 ha        1 HN4      0.139000
     28 H18         4.2050   -1.1710    6.9800 hc        1 HN4      0.039033
     29 H18A        2.6170   -1.3340    6.1240 hc        1 HN4      0.039033
     30 H18B        4.0970   -2.1330    5.4460 hc        1 HN4      0.039033
     31 H19         5.9910    0.2250    6.1000 hc        1 HN4      0.039033
     32 H19A        5.8320    1.0840    4.5140 hc        1 HN4      0.039033
     33 H19B        5.9910   -0.7280    4.5610 hc        1 HN4      0.039033
     34 H20         3.9870    1.3290    6.9200 hc        1 HN4      0.039033
     35 H20A        3.7210    2.1830    5.3410 hc        1 HN4      0.039033
     36 H20B        2.3980    1.1730    6.0630 hc        1 HN4      0.039033
     37 H15         5.2030    0.0650    2.6430 ha        1 HN4      0.139000
     38 H16         4.0670   -0.0830    0.4770 ha        1 HN4      0.143500
     39 H9          2.8810   -0.8450   -1.3370 hc        1 HN4      0.071700
     40 H9A         2.7130    0.9380   -1.0410 hc        1 HN4      0.071700
     41 H5          0.4600   -0.6870   -2.3920 h1        1 HN4      0.082700
     42 H3          1.7180   -2.0460   -4.3320 h1        1 HN4      0.049700
     43 H3A         3.1820   -1.7450   -3.2900 h1        1 HN4      0.049700
     44 H2          4.3400   -1.5790   -5.3620 h1        1 HN4      0.090700
     45 HO2         1.8010   -1.0740   -6.4610 ho        1 HN4      0.408000
     46 H1          4.7610    0.7440   -5.1530 h1        1 HN4      0.086700
     47 HO1         2.4510    0.9280   -6.7440 ho        1 HN4      0.410000
     48 H8A         3.6300    1.1570   -3.2000 h1        1 HN4      0.041700
     49 H8          1.3990    2.3130   -5.0340 h1        1 HN4      0.044700
     50 HO8         3.4670    3.2350   -5.2540 ho        1 HN4      0.418000
     51 H7          2.1660    2.8840   -2.0760 hc        1 HN4      0.054200
     52 H7A         0.7700    3.5700   -2.9930 hc        1 HN4      0.054200
     53 H6          0.1580    1.6670   -1.3890 hc        1 HN4      0.056200
     54 H6A        -0.3610    1.4270   -3.1070 hc        1 HN4      0.056200
@<TRIPOS>BOND
     1    1    2 2   
     2    2    3 1   
     3    2   13 1   
     4    3    4 ar  
     5    3   12 ar  
     6    4    5 ar  
     7    4   26 1   
     8    5    6 ar  
     9    5   27 1   
    10    6    7 1   
    11    6   11 ar  
    12    7    8 1   
    13    7    9 1   
    14    7   10 1   
    15    8   28 1   
    16    8   29 1   
    17    8   30 1   
    18    9   31 1   
    19    9   32 1   
    20    9   33 1   
    21   10   34 1   
    22   10   35 1   
    23   10   36 1   
    24   11   12 ar  
    25   11   37 1   
    26   12   38 1   
    27   13   14 1   
    28   13   39 1   
    29   13   40 1   
    30   14   15 1   
    31   14   25 1   
    32   14   41 1   
    33   15   16 1   
    34   15   21 1   
    35   16   17 1   
    36   16   42 1   
    37   16   43 1   
    38   17   18 1   
    39   17   19 1   
    40   17   44 1   
    41   18   45 1   
    42   19   20 1   
    43   19   21 1   
    44   19   46 1   
    45   20   47 1   
    46   21   22 1   
    47   21   48 1   
    48   22   23 1   
    49   22   24 1   
    50   22   49 1   
    51   23   50 1   
    52   24   25 1   
    53   24   51 1   
    54   24   52 1   
    55   25   53 1   
    56   25   54 1   
@<TRIPOS>SUBSTRUCTURE
     1 HN4         1 TEMP              0 ****  ****    0 ROOT
