@<TRIPOS>MOLECULE
HN4
   54    56     1     0     0
SMALL
bcc


@<TRIPOS>ATOM
      1 O10         0.5580   -1.6850   -2.1300 o         1 HN4     -0.538100
      2 C10         0.6910   -0.8340   -1.2400 c         1 HN4      0.584700
      3 C11         2.0300   -0.4040   -0.7830 ca        1 HN4     -0.183600
      4 C12         3.1510   -1.1500   -1.1770 ca        1 HN4     -0.081500
      5 C13         4.4260   -0.7790   -0.7640 ca        1 HN4     -0.144000
      6 C14         4.6200    0.3490    0.0470 ca        1 HN4     -0.032300
      7 C17         6.0180    0.7170    0.4720 c3        1 HN4     -0.014700
      8 C18         6.8690    0.9820   -0.7670 c3        1 HN4     -0.087100
      9 C19         6.0500    1.9640    1.3480 c3        1 HN4     -0.087100
     10 C20         6.6250   -0.4380    1.2640 c3        1 HN4     -0.087100
     11 C15         3.4990    1.0950    0.4310 ca        1 HN4     -0.144000
     12 C16         2.2200    0.7230    0.0220 ca        1 HN4     -0.081500
     13 C9         -0.4880   -0.1810   -0.5740 c3        1 HN4     -0.217400
     14 C5         -1.8180   -0.8820   -0.9060 c3        1 HN4      0.211500
     15 N4         -3.0150   -0.0930   -0.7090 n3        1 HN4     -0.757600
     16 C3         -3.2780    1.0880   -1.5060 c3        1 HN4      0.150800
     17 C2         -4.4200    1.8440   -0.7730 c3        1 HN4      0.105100
     18 O2         -5.6710    1.6400   -1.3880 oh        1 HN4     -0.596800
     19 C1         -4.4260    1.2800    0.6780 c3        1 HN4      0.102100
     20 O1         -5.6500    0.6510    0.9980 oh        1 HN4     -0.603800
     21 C8A        -3.2930    0.2240    0.6960 c3        1 HN4      0.148500
     22 C8         -3.5830   -1.0810    1.4650 c3        1 HN4      0.165100
     23 O8         -3.7820   -0.7980    2.8400 oh        1 HN4     -0.604800
     24 C7         -2.3540   -1.9830    1.3520 c3        1 HN4     -0.079400
     25 C6         -1.9360   -2.1890   -0.0900 c3        1 HN4     -0.072400
     26 H12         3.0070   -2.0340   -1.8210 ha        1 HN4      0.143500
     27 H13         5.2910   -1.3810   -1.0830 ha        1 HN4      0.139000
     28 H18         6.4360    1.8210   -1.3620 hc        1 HN4      0.038811
     29 H18A        7.9070    1.2580   -0.4620 hc        1 HN4      0.038811
     30 H18B        6.9190    0.0740   -1.4130 hc        1 HN4      0.038811
     31 H19         5.4580    1.8050    2.2810 hc        1 HN4      0.038811
     32 H19A        7.1060    2.1910    1.6360 hc        1 HN4      0.038811
     33 H19B        5.6390    2.8430    0.7980 hc        1 HN4      0.038811
     34 H20         6.6720   -1.3620    0.6400 hc        1 HN4      0.038811
     35 H20A        7.6610   -0.1740    1.5860 hc        1 HN4      0.038811
     36 H20B        6.0110   -0.6500    2.1710 hc        1 HN4      0.038811
     37 H15         3.6080    1.9880    1.0640 ha        1 HN4      0.139000
     38 H16         1.3600    1.3330    0.3400 ha        1 HN4      0.143500
     39 H9         -0.3280   -0.1850    0.5370 hc        1 HN4      0.070700
     40 H9A        -0.5160    0.8890   -0.9140 hc        1 HN4      0.070700
     41 H5         -1.7910   -1.1580   -2.0040 h1        1 HN4      0.082700
     42 H3         -2.3880    1.7680   -1.6140 h1        1 HN4      0.049200
     43 H3A        -3.6060    0.7680   -2.5310 h1        1 HN4      0.049200
     44 H2         -4.2620    2.9530   -0.7940 h1        1 HN4      0.085700
     45 HO2        -5.8090    0.6840   -1.4530 ho        1 HN4      0.422000
     46 H1         -4.2210    2.0910    1.4270 h1        1 HN4      0.050700
     47 HO1        -6.3570    1.2610    0.7390 ho        1 HN4      0.421000
     48 H8A        -2.4030    0.7150    1.1950 h1        1 HN4      0.036700
     49 H8         -4.4950   -1.5860    1.0430 h1        1 HN4      0.062700
     50 HO8        -4.6180   -0.3150    2.8960 ho        1 HN4      0.415000
     51 H7         -1.5160   -1.5260    1.9410 hc        1 HN4      0.052700
     52 H7A        -2.5870   -2.9740    1.8210 hc        1 HN4      0.052700
     53 H6         -2.6830   -2.8530   -0.5980 hc        1 HN4      0.055700
     54 H6A        -0.9410   -2.7050   -0.1250 hc        1 HN4      0.055700
@<TRIPOS>BOND
     1    1    2 2   
     2    2    3 1   
     3    2   13 1   
     4    3    4 ar  
     5    3   12 ar  
     6    4    5 ar  
     7    4   26 1   
     8    5    6 ar  
     9    5   27 1   
    10    6    7 1   
    11    6   11 ar  
    12    7    8 1   
    13    7    9 1   
    14    7   10 1   
    15    8   28 1   
    16    8   29 1   
    17    8   30 1   
    18    9   31 1   
    19    9   32 1   
    20    9   33 1   
    21   10   34 1   
    22   10   35 1   
    23   10   36 1   
    24   11   12 ar  
    25   11   37 1   
    26   12   38 1   
    27   13   14 1   
    28   13   39 1   
    29   13   40 1   
    30   14   15 1   
    31   14   25 1   
    32   14   41 1   
    33   15   16 1   
    34   15   21 1   
    35   16   17 1   
    36   16   42 1   
    37   16   43 1   
    38   17   18 1   
    39   17   19 1   
    40   17   44 1   
    41   18   45 1   
    42   19   20 1   
    43   19   21 1   
    44   19   46 1   
    45   20   47 1   
    46   21   22 1   
    47   21   48 1   
    48   22   23 1   
    49   22   24 1   
    50   22   49 1   
    51   23   50 1   
    52   24   25 1   
    53   24   51 1   
    54   24   52 1   
    55   25   53 1   
    56   25   54 1   
@<TRIPOS>SUBSTRUCTURE
     1 HN4         1 TEMP              0 ****  ****    0 ROOT
