@<TRIPOS>MOLECULE
HN4
   54    53     1     0     0
SMALL
bcc


@<TRIPOS>ATOM
      1 O10        -1.8860   -0.1290    0.0230 o         1 HN4     -0.300000
      2 C10        -0.6700   -0.0510    0.0330 c1        1 HN4      0.269000
      3 C11         0.0800    0.1190    1.3700 c1        1 HN4     -0.163000
      4 C12        -0.6360    0.2530    2.5580 c2        1 HN4     -0.073000
      5 C13         0.0420    0.3800    3.7690 c1        1 HN4     -0.145000
      6 C14         1.4350    0.3730    3.7920 c1        1 HN4     -0.025000
      7 C17         2.1860    0.5240    5.1340 c3        1 HN4     -0.022000
      8 C18         1.6140   -0.4720    6.1560 c3        1 HN4     -0.205000
      9 C19         3.6780    0.2370    4.9200 c3        1 HN4     -0.205000
     10 C20         2.0100    1.9540    5.6600 c3        1 HN4     -0.205000
     11 C15         2.1500    0.2390    2.6040 c1        1 HN4     -0.144000
     12 C16         1.4730    0.1120    1.3930 c1        1 HN4     -0.090000
     13 C9          0.1210   -0.1990   -1.2800 c3        1 HN4     -0.207000
     14 C5         -0.8090   -0.0750   -2.4390 c3        1 HN4     -0.015000
     15 N4         -0.0390   -0.4960   -3.7560 n3        1 HN4     -0.235000
     16 C3         -0.1340   -1.9260   -3.1950 c3        1 HN4     -0.114000
     17 C2         -1.6110   -2.4780   -3.6270 c3        1 HN4     -0.017000
     18 O2         -2.2730   -3.0230   -2.5120 oh        1 HN4     -0.323000
     19 C1         -2.2850   -1.3810   -4.0890 c3        1 HN4     -0.020000
     20 O1         -3.0150   -0.7700   -3.0250 oh        1 HN4     -0.321000
     21 C8A        -1.1730   -0.3710   -4.6450 c3        1 HN4     -0.051000
     22 C8         -1.7490    1.0480   -4.7130 c3        1 HN4      0.030000
     23 O8         -1.2320    1.7380   -5.9900 oh        1 HN4     -0.314000
     24 C7         -1.3970    1.7420   -3.6900 c3        1 HN4     -0.183000
     25 C6         -1.3280    1.2950   -2.4820 c3        1 HN4     -0.152000
     26 H12        -1.6170    0.2580    2.5420 ha        1 HN4      0.155000
     27 H13        -0.4620    0.4750    4.6050 ha        1 HN4      0.138000
     28 H18         1.5240   -1.3560    5.7370 hc        1 HN4      0.078000
     29 H18A        0.7310   -0.1610    6.4570 hc        1 HN4      0.078000
     30 H18B        2.2210   -0.5350    6.9280 hc        1 HN4      0.078000
     31 H19         4.0740    0.9500    4.3710 hc        1 HN4      0.078000
     32 H19A        3.7840   -0.6260    4.4620 hc        1 HN4      0.078000
     33 H19B        4.1340    0.2030    5.7910 hc        1 HN4      0.078000
     34 H20         2.2400    2.5950    4.9510 hc        1 HN4      0.078000
     35 H20A        1.0770    2.0900    5.9350 hc        1 HN4      0.078000
     36 H20B        2.6040    2.0940    6.4330 hc        1 HN4      0.078000
     37 H15         3.1320    0.2340    2.6200 ha        1 HN4      0.139000
     38 H16         1.9770    0.0170    0.5570 ha        1 HN4      0.134000
     39 H9          0.8050    0.5070   -1.3310 hc        1 HN4      0.113500
     40 H9A         0.5560   -1.0790   -1.3020 hc        1 HN4      0.113500
     41 H5         -1.5600   -0.6890   -2.3060 h1        1 HN4      0.092000
     42 H3          0.5690   -2.4940   -3.5880 h1        1 HN4      0.095000
     43 H3A        -0.0510   -1.9130   -2.2200 h1        1 HN4      0.095000
     44 H2         -1.5280   -3.1520   -4.3390 h1        1 HN4      0.127000
     45 HO2        -2.3390   -3.9080   -2.6090 ho        1 HN4      0.214000
     46 H1         -2.8980   -1.6420   -4.8150 h1        1 HN4      0.098000
     47 HO1        -3.8930   -0.8900   -3.1580 ho        1 HN4      0.212000
     48 H8A        -0.9050   -0.6530   -5.5500 h1        1 HN4      0.100000
     49 H8         -2.7320    0.9980   -4.7480 h1        1 HN4      0.148000
     50 HO8        -0.5190    2.2340   -5.7920 ho        1 HN4      0.191000
     51 H7         -2.0110    2.5140   -3.6610 hc        1 HN4      0.087000
     52 H7A        -0.5020    2.0980   -3.8990 hc        1 HN4      0.087000
     53 H6         -2.2290    1.3100   -2.0830 hc        1 HN4      0.093000
     54 H6A        -0.7340    1.8800   -1.9570 hc        1 HN4      0.093000
@<TRIPOS>BOND
     1    1    2 1   
     2    2   13 1   
     3    3    4 1   
     4    3   12 1   
     5    4    5 1   
     6    4   26 1   
     7    5   27 1   
     8    6    7 1   
     9    6   11 1   
    10    7    8 1   
    11    7    9 1   
    12    7   10 1   
    13    8   28 1   
    14    8   29 1   
    15    8   30 1   
    16    9   31 1   
    17    9   32 1   
    18    9   33 1   
    19   10   34 1   
    20   10   35 1   
    21   10   36 1   
    22   11   37 1   
    23   12   38 1   
    24   13   14 1   
    25   13   39 1   
    26   13   40 1   
    27   14   15 1   
    28   14   25 1   
    29   14   41 1   
    30   15   16 1   
    31   15   21 1   
    32   16   17 1   
    33   16   42 1   
    34   16   43 1   
    35   17   18 1   
    36   17   19 1   
    37   17   44 1   
    38   18   45 1   
    39   19   20 1   
    40   19   21 1   
    41   19   46 1   
    42   20   47 1   
    43   21   22 1   
    44   21   48 1   
    45   22   23 1   
    46   22   24 1   
    47   22   49 1   
    48   23   50 1   
    49   24   25 1   
    50   24   51 1   
    51   24   52 1   
    52   25   53 1   
    53   25   54 1   
@<TRIPOS>SUBSTRUCTURE
     1 HN4         1 TEMP              0 ****  ****    0 ROOT
