@<TRIPOS>MOLECULE
HN4
   54    56     1     0     0
SMALL
bcc


@<TRIPOS>ATOM
      1 O10         0.1240   -0.6220    0.0250 o         1 HN4     -0.538100
      2 C10         1.3230   -0.3130    0.0590 c         1 HN4      0.584700
      3 C11         2.0580   -0.2340    1.3400 ca        1 HN4     -0.183600
      4 C12         1.3330   -0.2600    2.5390 ca        1 HN4     -0.081500
      5 C13         1.9890   -0.1850    3.7630 ca        1 HN4     -0.144000
      6 C14         3.3880   -0.0870    3.8250 ca        1 HN4     -0.032300
      7 C17         4.0600   -0.0080    5.1710 c3        1 HN4     -0.014700
      8 C18         3.7250   -1.2600    5.9770 c3        1 HN4     -0.087100
      9 C19         5.5760    0.0950    5.0590 c3        1 HN4     -0.087100
     10 C20         3.5520    1.2240    5.9170 c3        1 HN4     -0.087100
     11 C15         4.1080   -0.0690    2.6250 ca        1 HN4     -0.144000
     12 C16         3.4520   -0.1400    1.3970 ca        1 HN4     -0.081500
     13 C9          2.1070   -0.0060   -1.1860 c3        1 HN4     -0.217400
     14 C5          1.2080    0.1570   -2.4260 c3        1 HN4      0.211500
     15 N4          1.8610   -0.0070   -3.7070 n3        1 HN4     -0.757600
     16 C3          2.4220   -1.2810   -4.1080 c3        1 HN4      0.150800
     17 C2          3.3310   -0.9740   -5.3290 c3        1 HN4      0.105100
     18 O2          2.7140   -1.3150   -6.5500 oh        1 HN4     -0.596800
     19 C1          3.6090    0.5560   -5.2650 c3        1 HN4      0.102100
     20 O1          3.1210    1.2320   -6.4060 oh        1 HN4     -0.603800
     21 C8A         2.8340    1.0460   -4.0160 c3        1 HN4      0.148500
     22 C8          2.1000    2.3960   -4.1490 c3        1 HN4      0.165100
     23 O8          3.0370    3.4350   -4.3760 oh        1 HN4     -0.604800
     24 C7          1.3980    2.6880   -2.8220 c3        1 HN4     -0.079400
     25 C6          0.5130    1.5370   -2.3870 c3        1 HN4     -0.072400
     26 H12         0.2340   -0.3440    2.4990 ha        1 HN4      0.143500
     27 H13         1.3990   -0.2040    4.6920 ha        1 HN4      0.139000
     28 H18         2.6230   -1.3460    6.1320 hc        1 HN4      0.038811
     29 H18A        4.2210   -1.2110    6.9760 hc        1 HN4      0.038811
     30 H18B        4.0830   -2.1720    5.4430 hc        1 HN4      0.038811
     31 H19         5.9950   -0.8010    4.5420 hc        1 HN4      0.038811
     32 H19A        6.0240    0.1530    6.0800 hc        1 HN4      0.038811
     33 H19B        5.8680    1.0130    4.4950 hc        1 HN4      0.038811
     34 H20         4.0470    1.2930    6.9150 hc        1 HN4      0.038811
     35 H20A        2.4490    1.1640    6.0710 hc        1 HN4      0.038811
     36 H20B        3.7830    2.1490    5.3380 hc        1 HN4      0.038811
     37 H15         5.2060    0.0040    2.6300 ha        1 HN4      0.139000
     38 H16         4.0500   -0.1260    0.4730 ha        1 HN4      0.143500
     39 H9          2.6980    0.9340   -1.0240 hc        1 HN4      0.070700
     40 H9A         2.8340   -0.8480   -1.3410 hc        1 HN4      0.070700
     41 H5          0.4050   -0.6400   -2.3690 h1        1 HN4      0.082700
     42 H3          1.5840   -1.9700   -4.3990 h1        1 HN4      0.049200
     43 H3A         3.0290   -1.7820   -3.3040 h1        1 HN4      0.049200
     44 H2          4.2750   -1.5760   -5.3030 h1        1 HN4      0.084700
     45 HO2         1.8560   -0.8670   -6.5750 ho        1 HN4      0.422000
     46 H1          4.7060    0.7630   -5.1550 h1        1 HN4      0.050700
     47 HO1         3.4330    0.7410   -7.1800 ho        1 HN4      0.421000
     48 H8A         3.5990    1.1620   -3.1880 h1        1 HN4      0.036700
     49 H8          1.3620    2.3540   -4.9960 h1        1 HN4      0.062700
     50 HO8         3.3920    3.2860   -5.2620 ho        1 HN4      0.415000
     51 H7          0.7790    3.6150   -2.9360 hc        1 HN4      0.052700
     52 H7A         2.1750    2.9000   -2.0420 hc        1 HN4      0.052700
     53 H6          0.1550    1.7100   -1.3390 hc        1 HN4      0.056200
     54 H6A        -0.3880    1.4940   -3.0530 hc        1 HN4      0.056200
@<TRIPOS>BOND
     1    1    2 2   
     2    2    3 1   
     3    2   13 1   
     4    3    4 ar  
     5    3   12 ar  
     6    4    5 ar  
     7    4   26 1   
     8    5    6 ar  
     9    5   27 1   
    10    6    7 1   
    11    6   11 ar  
    12    7    8 1   
    13    7    9 1   
    14    7   10 1   
    15    8   28 1   
    16    8   29 1   
    17    8   30 1   
    18    9   31 1   
    19    9   32 1   
    20    9   33 1   
    21   10   34 1   
    22   10   35 1   
    23   10   36 1   
    24   11   12 ar  
    25   11   37 1   
    26   12   38 1   
    27   13   14 1   
    28   13   39 1   
    29   13   40 1   
    30   14   15 1   
    31   14   25 1   
    32   14   41 1   
    33   15   16 1   
    34   15   21 1   
    35   16   17 1   
    36   16   42 1   
    37   16   43 1   
    38   17   18 1   
    39   17   19 1   
    40   17   44 1   
    41   18   45 1   
    42   19   20 1   
    43   19   21 1   
    44   19   46 1   
    45   20   47 1   
    46   21   22 1   
    47   21   48 1   
    48   22   23 1   
    49   22   24 1   
    50   22   49 1   
    51   23   50 1   
    52   24   25 1   
    53   24   51 1   
    54   24   52 1   
    55   25   53 1   
    56   25   54 1   
@<TRIPOS>SUBSTRUCTURE
     1 HN4         1 TEMP              0 ****  ****    0 ROOT
