@<TRIPOS>MOLECULE
HN4
   54    56     1     0     0
SMALL
bcc


@<TRIPOS>ATOM
      1 O10         0.1290   -0.6380    0.0240 o         1 HN4     -0.538100
      2 C10         1.3260   -0.3220    0.0590 c         1 HN4      0.584700
      3 C11         2.0590   -0.2350    1.3400 ca        1 HN4     -0.183600
      4 C12         1.3310   -0.2600    2.5390 ca        1 HN4     -0.081500
      5 C13         1.9850   -0.1760    3.7630 ca        1 HN4     -0.144000
      6 C14         3.3830   -0.0710    3.8280 ca        1 HN4     -0.032300
      7 C17         4.0530    0.0170    5.1740 c3        1 HN4     -0.014700
      8 C18         3.7230   -1.2340    5.9840 c3        1 HN4     -0.087100
      9 C19         5.5690    0.1280    5.0640 c3        1 HN4     -0.087100
     10 C20         3.5370    1.2490    5.9140 c3        1 HN4     -0.087100
     11 C15         4.1050   -0.0530    2.6280 ca        1 HN4     -0.144000
     12 C16         3.4520   -0.1330    1.4000 ca        1 HN4     -0.081500
     13 C9          2.1100   -0.0150   -1.1860 c3        1 HN4     -0.217400
     14 C5          1.2120    0.1410   -2.4280 c3        1 HN4      0.211500
     15 N4          1.8690   -0.0230   -3.7070 n3        1 HN4     -0.757600
     16 C3          2.4360   -1.2960   -4.1040 c3        1 HN4      0.150800
     17 C2          3.3450   -0.9880   -5.3250 c3        1 HN4      0.105100
     18 O2          2.7320   -1.3350   -6.5450 oh        1 HN4     -0.596800
     19 C1          3.6150    0.5440   -5.2650 c3        1 HN4      0.102100
     20 O1          3.1260    1.2140   -6.4080 oh        1 HN4     -0.603800
     21 C8A         2.8360    1.0330   -4.0180 c3        1 HN4      0.148500
     22 C8          2.0960    2.3790   -4.1560 c3        1 HN4      0.165100
     23 O8          3.0280    3.4230   -4.3840 oh        1 HN4     -0.604800
     24 C7          1.3900    2.6720   -2.8310 c3        1 HN4     -0.079400
     25 C6          0.5110    1.5170   -2.3930 c3        1 HN4     -0.072400
     26 H12         0.2330   -0.3500    2.4970 ha        1 HN4      0.143500
     27 H13         1.3940   -0.1950    4.6910 ha        1 HN4      0.139000
     28 H18         2.6220   -1.3260    6.1380 hc        1 HN4      0.038811
     29 H18A        4.2180   -1.1790    6.9840 hc        1 HN4      0.038811
     30 H18B        4.0880   -2.1460    5.4540 hc        1 HN4      0.038811
     31 H19         5.9930   -0.7680    4.5510 hc        1 HN4      0.038811
     32 H19A        5.8570    1.0450    4.4970 hc        1 HN4      0.038811
     33 H19B        6.0150    0.1920    6.0860 hc        1 HN4      0.038811
     34 H20         2.4340    1.1840    6.0670 hc        1 HN4      0.038811
     35 H20A        4.0300    1.3240    6.9130 hc        1 HN4      0.038811
     36 H20B        3.7640    2.1730    5.3320 hc        1 HN4      0.038811
     37 H15         5.2030    0.0240    2.6340 ha        1 HN4      0.139000
     38 H16         4.0510   -0.1190    0.4760 ha        1 HN4      0.143500
     39 H9          2.8420   -0.8530   -1.3380 hc        1 HN4      0.070700
     40 H9A         2.6960    0.9290   -1.0250 hc        1 HN4      0.070700
     41 H5          0.4130   -0.6600   -2.3700 h1        1 HN4      0.082700
     42 H3          3.0440   -1.7910   -3.2980 h1        1 HN4      0.049200
     43 H3A         1.6010   -1.9900   -4.3950 h1        1 HN4      0.049200
     44 H2          4.2930   -1.5840   -5.2950 h1        1 HN4      0.084700
     45 HO2         1.8720   -0.8910   -6.5730 ho        1 HN4      0.422000
     46 H1          4.7120    0.7570   -5.1540 h1        1 HN4      0.050700
     47 HO1         3.4420    0.7230   -7.1800 ho        1 HN4      0.421000
     48 H8A         3.5990    1.1550   -3.1890 h1        1 HN4      0.036700
     49 H8          1.3590    2.3320   -5.0040 h1        1 HN4      0.062700
     50 HO8         3.3860    3.2730   -5.2690 ho        1 HN4      0.415000
     51 H7          0.7670    3.5960   -2.9480 hc        1 HN4      0.052700
     52 H7A         2.1650    2.8900   -2.0510 hc        1 HN4      0.052700
     53 H6         -0.3900    1.4680   -3.0610 hc        1 HN4      0.056200
     54 H6A         0.1510    1.6920   -1.3470 hc        1 HN4      0.056200
@<TRIPOS>BOND
     1    1    2 2   
     2    2    3 1   
     3    2   13 1   
     4    3    4 ar  
     5    3   12 ar  
     6    4    5 ar  
     7    4   26 1   
     8    5    6 ar  
     9    5   27 1   
    10    6    7 1   
    11    6   11 ar  
    12    7    8 1   
    13    7    9 1   
    14    7   10 1   
    15    8   28 1   
    16    8   29 1   
    17    8   30 1   
    18    9   31 1   
    19    9   32 1   
    20    9   33 1   
    21   10   34 1   
    22   10   35 1   
    23   10   36 1   
    24   11   12 ar  
    25   11   37 1   
    26   12   38 1   
    27   13   14 1   
    28   13   39 1   
    29   13   40 1   
    30   14   15 1   
    31   14   25 1   
    32   14   41 1   
    33   15   16 1   
    34   15   21 1   
    35   16   17 1   
    36   16   42 1   
    37   16   43 1   
    38   17   18 1   
    39   17   19 1   
    40   17   44 1   
    41   18   45 1   
    42   19   20 1   
    43   19   21 1   
    44   19   46 1   
    45   20   47 1   
    46   21   22 1   
    47   21   48 1   
    48   22   23 1   
    49   22   24 1   
    50   22   49 1   
    51   23   50 1   
    52   24   25 1   
    53   24   51 1   
    54   24   52 1   
    55   25   53 1   
    56   25   54 1   
@<TRIPOS>SUBSTRUCTURE
     1 HN4         1 TEMP              0 ****  ****    0 ROOT
