@<TRIPOS>MOLECULE
HN5
   55    57     1     0     0
SMALL
bcc


@<TRIPOS>ATOM
      1 O8         -0.0410    0.3490   -0.2990 oh        1 HN5     -0.603800
      2 C8          1.3670    0.2340   -0.1850 c3        1 HN5      0.165100
      3 C8A         1.7850    0.2540    1.2980 c3        1 HN5      0.101500
      4 N4          3.2360    0.0710    1.3940 n3        1 HN5     -0.746600
      5 C3          3.6720    0.6000    2.6720 c3        1 HN5      0.144800
      6 C2          2.6700    1.7320    3.0370 c3        1 HN5      0.099100
      7 O2          3.2090    3.0170    2.8020 oh        1 HN5     -0.590800
      8 C1          1.4600    1.5570    2.0760 c3        1 HN5      0.153100
      9 O1          1.2460    2.6530    1.2230 oh        1 HN5     -0.590800
     10 C7          1.7710   -1.1180   -0.7740 c3        1 HN5     -0.076400
     11 C6          3.2350   -1.4270   -0.5260 c3        1 HN5     -0.072400
     12 C5          3.6850   -1.2320    0.9400 c3        1 HN5      0.201500
     13 C9          3.2480   -2.4380    1.7910 c3        1 HN5     -0.112400
     14 C10         4.2240   -3.5910    1.6500 c3        1 HN5     -0.031100
     15 C11         3.7890   -4.7750    2.4410 ca        1 HN5     -0.084300
     16 C16         2.6830   -5.5310    2.0340 ca        1 HN5     -0.127000
     17 C15         2.2810   -6.6430    2.7660 ca        1 HN5     -0.126000
     18 C14         2.9720   -7.0340    3.9240 ca        1 HN5     -0.065300
     19 C17         2.5030   -8.2450    4.6860 c3        1 HN5     -0.009700
     20 C20         2.5570   -9.4680    3.7750 c3        1 HN5     -0.085767
     21 C19         3.3610   -8.5280    5.9130 c3        1 HN5     -0.085767
     22 C18         1.0650   -8.0260    5.1510 c3        1 HN5     -0.085767
     23 C13         4.0770   -6.2760    4.3250 ca        1 HN5     -0.126000
     24 C12         4.4810   -5.1600    3.5920 ca        1 HN5     -0.127000
     25 HO8        -0.2640    1.2310    0.0320 ho        1 HN5      0.418000
     26 H8          1.8620    1.0770   -0.7410 h1        1 HN5      0.049700
     27 H8A         1.2260   -0.5870    1.8120 h1        1 HN5      0.044700
     28 H3          3.6890   -0.1670    3.4960 h1        1 HN5      0.042700
     29 H3A         4.7110    1.0070    2.5480 h1        1 HN5      0.042700
     30 H2          2.3510    1.6450    4.1090 h1        1 HN5      0.050700
     31 HO2         4.0500    3.0620    3.2720 ho        1 HN5      0.409000
     32 H1          0.5000    1.4490    2.6480 h1        1 HN5      0.082700
     33 HO1         2.1060    2.9420    0.8880 ho        1 HN5      0.428000
     34 H7          1.5690   -1.1100   -1.8760 hc        1 HN5      0.054200
     35 H7A         1.1240   -1.9140   -0.3210 hc        1 HN5      0.054200
     36 H6          3.4410   -2.4880   -0.8200 hc        1 HN5      0.048700
     37 H6A         3.8640   -0.7640   -1.1780 hc        1 HN5      0.048700
     38 H5          4.8160   -1.1920    0.9540 h1        1 HN5      0.055700
     39 H9          3.1840   -2.1500    2.8730 hc        1 HN5      0.049200
     40 H9A         2.2240   -2.7710    1.4770 hc        1 HN5      0.049200
     41 H10         5.2440   -3.2600    1.9850 hc        1 HN5      0.047700
     42 H10A        4.3090   -3.8830    0.5690 hc        1 HN5      0.047700
     43 H16         2.1290   -5.2400    1.1290 ha        1 HN5      0.129500
     44 H15         1.4080   -7.2230    2.4280 ha        1 HN5      0.132500
     45 H20         3.6000   -9.6400    3.4200 hc        1 HN5      0.036811
     46 H20A        1.8960   -9.3280    2.8860 hc        1 HN5      0.036811
     47 H20B        2.2130  -10.3730    4.3320 hc        1 HN5      0.036811
     48 H19         3.3310   -7.6670    6.6220 hc        1 HN5      0.036811
     49 H19A        4.4200   -8.7220    5.6170 hc        1 HN5      0.036811
     50 H19B        2.9730   -9.4320    6.4420 hc        1 HN5      0.036811
     51 H18         1.0060   -7.1310    5.8150 hc        1 HN5      0.036811
     52 H18A        0.3890   -7.8680    4.2770 hc        1 HN5      0.036811
     53 H18B        0.7100   -8.9180    5.7190 hc        1 HN5      0.036811
     54 H13         4.6480   -6.5470    5.2250 ha        1 HN5      0.132500
     55 H12         5.3540   -4.5800    3.9260 ha        1 HN5      0.129500
@<TRIPOS>BOND
     1    1    2 1   
     2    1   25 1   
     3    2    3 1   
     4    2   10 1   
     5    2   26 1   
     6    3    4 1   
     7    3    8 1   
     8    3   27 1   
     9    4    5 1   
    10    4   12 1   
    11    5    6 1   
    12    5   28 1   
    13    5   29 1   
    14    6    7 1   
    15    6    8 1   
    16    6   30 1   
    17    7   31 1   
    18    8    9 1   
    19    8   32 1   
    20    9   33 1   
    21   10   11 1   
    22   10   34 1   
    23   10   35 1   
    24   11   12 1   
    25   11   36 1   
    26   11   37 1   
    27   12   13 1   
    28   12   38 1   
    29   13   14 1   
    30   13   39 1   
    31   13   40 1   
    32   14   15 1   
    33   14   41 1   
    34   14   42 1   
    35   15   16 ar  
    36   15   24 ar  
    37   16   17 ar  
    38   16   43 1   
    39   17   18 ar  
    40   17   44 1   
    41   18   19 1   
    42   18   23 ar  
    43   19   20 1   
    44   19   21 1   
    45   19   22 1   
    46   20   45 1   
    47   20   46 1   
    48   20   47 1   
    49   21   48 1   
    50   21   49 1   
    51   21   50 1   
    52   22   51 1   
    53   22   52 1   
    54   22   53 1   
    55   23   24 ar  
    56   23   54 1   
    57   24   55 1   
@<TRIPOS>SUBSTRUCTURE
     1 HN5         1 TEMP              0 ****  ****    0 ROOT
