@<TRIPOS>MOLECULE
HN5
   55    57     1     0     0
SMALL
bcc


@<TRIPOS>ATOM
      1 O8         -0.1150    0.3120    0.0120 oh        1 HN5     -0.596800
      2 C8          1.3040    0.2410   -0.0690 c3        1 HN5      0.156100
      3 C8A         1.8140    0.3140    1.3790 c3        1 HN5      0.139500
      4 N4          3.2690    0.1040    1.4220 n3        1 HN5     -0.755600
      5 C3          3.7480    0.5980    2.7050 c3        1 HN5      0.135800
      6 C2          2.6850    1.6090    3.2300 c3        1 HN5      0.100100
      7 O2          3.2610    2.8550    3.5270 oh        1 HN5     -0.583800
      8 C1          1.5940    1.6580    2.1190 c3        1 HN5      0.121100
      9 O1          1.7640    2.7940    1.3010 oh        1 HN5     -0.588800
     10 C7          1.7320   -1.0900   -0.6910 c3        1 HN5     -0.111400
     11 C6          3.2050   -1.3810   -0.5040 c3        1 HN5     -0.069400
     12 C5          3.6880   -1.2030    0.9520 c3        1 HN5      0.198500
     13 C9          3.2570   -2.4090    1.8050 c3        1 HN5     -0.111400
     14 C10         4.2170   -3.5710    1.6360 c3        1 HN5     -0.031100
     15 C11         3.7840   -4.7560    2.4250 ca        1 HN5     -0.085300
     16 C16         2.6820   -5.5170    2.0140 ca        1 HN5     -0.127000
     17 C15         2.2810   -6.6300    2.7440 ca        1 HN5     -0.125500
     18 C14         2.9670   -7.0160    3.9060 ca        1 HN5     -0.065300
     19 C17         2.4990   -8.2280    4.6680 c3        1 HN5     -0.009700
     20 C20         2.5620   -9.4530    3.7590 c3        1 HN5     -0.085767
     21 C19         3.3530   -8.5060    5.8990 c3        1 HN5     -0.085767
     22 C18         1.0590   -8.0140    5.1250 c3        1 HN5     -0.085767
     23 C13         4.0670   -6.2540    4.3120 ca        1 HN5     -0.125500
     24 C12         4.4710   -5.1370    3.5800 ca        1 HN5     -0.127000
     25 HO8        -0.4390    0.3370   -0.8950 ho        1 HN5      0.404000
     26 H8          1.6940    1.1060   -0.6720 h1        1 HN5      0.046700
     27 H8A         1.2580   -0.4810    1.9640 h1        1 HN5      0.054700
     28 H3          3.9070   -0.2140    3.4650 h1        1 HN5      0.051200
     29 H3A         4.7290    1.1170    2.5360 h1        1 HN5      0.051200
     30 H2          2.2480    1.2520    4.2000 h1        1 HN5      0.082700
     31 HO2         3.3200    3.3650    2.7070 ho        1 HN5      0.413000
     32 H1          0.5570    1.7460    2.5310 h1        1 HN5      0.102700
     33 HO1         2.5270    2.6360    0.7290 ho        1 HN5      0.409000
     34 H7          1.1180   -1.9070   -0.2270 hc        1 HN5      0.048200
     35 H7A         1.4920   -1.0750   -1.7860 hc        1 HN5      0.048200
     36 H6          3.4180   -2.4350   -0.8200 hc        1 HN5      0.048700
     37 H6A         3.8040   -0.7000   -1.1640 hc        1 HN5      0.048700
     38 H5          4.8200   -1.1760    0.9420 h1        1 HN5      0.059700
     39 H9          2.2230   -2.7290    1.5130 hc        1 HN5      0.050700
     40 H9A         3.2200   -2.1270    2.8900 hc        1 HN5      0.050700
     41 H10         5.2460   -3.2540    1.9540 hc        1 HN5      0.047700
     42 H10A        4.2800   -3.8550    0.5500 hc        1 HN5      0.047700
     43 H16         2.1320   -5.2300    1.1050 ha        1 HN5      0.129500
     44 H15         1.4120   -7.2140    2.4030 ha        1 HN5      0.132500
     45 H20         3.6090   -9.6220    3.4100 hc        1 HN5      0.037033
     46 H20A        2.2200  -10.3580    4.3160 hc        1 HN5      0.037033
     47 H20B        1.9060   -9.3160    2.8670 hc        1 HN5      0.037033
     48 H19         2.9660   -9.4110    6.4280 hc        1 HN5      0.037033
     49 H19A        3.3150   -7.6440    6.6070 hc        1 HN5      0.037033
     50 H19B        4.4130   -8.6960    5.6090 hc        1 HN5      0.037033
     51 H18         0.3860   -7.8610    4.2480 hc        1 HN5      0.037033
     52 H18A        0.7040   -8.9070    5.6940 hc        1 HN5      0.037033
     53 H18B        0.9930   -7.1180    5.7870 hc        1 HN5      0.037033
     54 H13         4.6350   -6.5210    5.2160 ha        1 HN5      0.132500
     55 H12         5.3400   -4.5530    3.9180 ha        1 HN5      0.129500
@<TRIPOS>BOND
     1    1    2 1   
     2    1   25 1   
     3    2    3 1   
     4    2   10 1   
     5    2   26 1   
     6    3    4 1   
     7    3    8 1   
     8    3   27 1   
     9    4    5 1   
    10    4   12 1   
    11    5    6 1   
    12    5   28 1   
    13    5   29 1   
    14    6    7 1   
    15    6    8 1   
    16    6   30 1   
    17    7   31 1   
    18    8    9 1   
    19    8   32 1   
    20    9   33 1   
    21   10   11 1   
    22   10   34 1   
    23   10   35 1   
    24   11   12 1   
    25   11   36 1   
    26   11   37 1   
    27   12   13 1   
    28   12   38 1   
    29   13   14 1   
    30   13   39 1   
    31   13   40 1   
    32   14   15 1   
    33   14   41 1   
    34   14   42 1   
    35   15   16 ar  
    36   15   24 ar  
    37   16   17 ar  
    38   16   43 1   
    39   17   18 ar  
    40   17   44 1   
    41   18   19 1   
    42   18   23 ar  
    43   19   20 1   
    44   19   21 1   
    45   19   22 1   
    46   20   45 1   
    47   20   46 1   
    48   20   47 1   
    49   21   48 1   
    50   21   49 1   
    51   21   50 1   
    52   22   51 1   
    53   22   52 1   
    54   22   53 1   
    55   23   24 ar  
    56   23   54 1   
    57   24   55 1   
@<TRIPOS>SUBSTRUCTURE
     1 HN5         1 TEMP              0 ****  ****    0 ROOT
