@<TRIPOS>MOLECULE
HN5
   55    57     1     0     0
SMALL
bcc


@<TRIPOS>ATOM
      1 O8         -0.0430    0.3500   -0.3010 oh        1 HN5     -0.603800
      2 C8          1.3650    0.2370   -0.1840 c3        1 HN5      0.165100
      3 C8A         1.7780    0.2560    1.3000 c3        1 HN5      0.101500
      4 N4          3.2300    0.0750    1.4000 n3        1 HN5     -0.746600
      5 C3          3.6610    0.6020    2.6800 c3        1 HN5      0.144800
      6 C2          2.6560    1.7320    3.0450 c3        1 HN5      0.099100
      7 O2          3.1940    3.0190    2.8120 oh        1 HN5     -0.590800
      8 C1          1.4490    1.5560    2.0790 c3        1 HN5      0.153100
      9 O1          1.2360    2.6540    1.2280 oh        1 HN5     -0.590800
     10 C7          1.7730   -1.1130   -0.7740 c3        1 HN5     -0.076400
     11 C6          3.2370   -1.4200   -0.5230 c3        1 HN5     -0.072400
     12 C5          3.6820   -1.2270    0.9450 c3        1 HN5      0.201500
     13 C9          3.2450   -2.4340    1.7930 c3        1 HN5     -0.112400
     14 C10         4.2230   -3.5860    1.6520 c3        1 HN5     -0.031100
     15 C11         3.7890   -4.7710    2.4410 ca        1 HN5     -0.084300
     16 C16         2.6820   -5.5270    2.0340 ca        1 HN5     -0.127000
     17 C15         2.2810   -6.6400    2.7640 ca        1 HN5     -0.126000
     18 C14         2.9740   -7.0340    3.9200 ca        1 HN5     -0.065300
     19 C17         2.5060   -8.2460    4.6800 c3        1 HN5     -0.009700
     20 C20         2.5580   -9.4680    3.7660 c3        1 HN5     -0.085767
     21 C19         3.3660   -8.5320    5.9050 c3        1 HN5     -0.085767
     22 C18         1.0690   -8.0280    5.1470 c3        1 HN5     -0.085767
     23 C13         4.0790   -6.2770    4.3210 ca        1 HN5     -0.126000
     24 C12         4.4820   -5.1590    3.5900 ca        1 HN5     -0.127000
     25 HO8        -0.2690    1.2310    0.0300 ho        1 HN5      0.418000
     26 H8          1.8600    1.0820   -0.7380 h1        1 HN5      0.049700
     27 H8A         1.2200   -0.5870    1.8120 h1        1 HN5      0.044700
     28 H3          4.7000    1.0110    2.5600 h1        1 HN5      0.042700
     29 H3A         3.6770   -0.1660    3.5020 h1        1 HN5      0.042700
     30 H2          2.3340    1.6430    4.1150 h1        1 HN5      0.050700
     31 HO2         4.0340    3.0640    3.2850 ho        1 HN5      0.409000
     32 H1          0.4880    1.4460    2.6480 h1        1 HN5      0.082700
     33 HO1         2.0960    2.9450    0.8950 ho        1 HN5      0.428000
     34 H7          1.1260   -1.9110   -0.3240 hc        1 HN5      0.054200
     35 H7A         1.5740   -1.1040   -1.8760 hc        1 HN5      0.054200
     36 H6          3.4460   -2.4800   -0.8170 hc        1 HN5      0.048700
     37 H6A         3.8660   -0.7540   -1.1710 hc        1 HN5      0.048700
     38 H5          4.8130   -1.1850    0.9620 h1        1 HN5      0.055700
     39 H9          2.2230   -2.7680    1.4760 hc        1 HN5      0.049200
     40 H9A         3.1790   -2.1480    2.8760 hc        1 HN5      0.049200
     41 H10         5.2420   -3.2540    1.9880 hc        1 HN5      0.047700
     42 H10A        4.3100   -3.8770    0.5700 hc        1 HN5      0.047700
     43 H16         2.1280   -5.2340    1.1300 ha        1 HN5      0.129500
     44 H15         1.4080   -7.2200    2.4260 ha        1 HN5      0.132500
     45 H20         2.2160  -10.3740    4.3220 hc        1 HN5      0.036811
     46 H20A        1.8960   -9.3250    2.8790 hc        1 HN5      0.036811
     47 H20B        3.6010   -9.6390    3.4090 hc        1 HN5      0.036811
     48 H19         2.9790   -9.4380    6.4320 hc        1 HN5      0.036811
     49 H19A        4.4240   -8.7250    5.6070 hc        1 HN5      0.036811
     50 H19B        3.3370   -7.6730    6.6160 hc        1 HN5      0.036811
     51 H18         0.3910   -7.8690    4.2760 hc        1 HN5      0.036811
     52 H18A        0.7140   -8.9220    5.7150 hc        1 HN5      0.036811
     53 H18B        1.0110   -7.1350    5.8140 hc        1 HN5      0.036811
     54 H13         4.6520   -6.5500    5.2200 ha        1 HN5      0.132500
     55 H12         5.3560   -4.5800    3.9250 ha        1 HN5      0.129500
@<TRIPOS>BOND
     1    1    2 1   
     2    1   25 1   
     3    2    3 1   
     4    2   10 1   
     5    2   26 1   
     6    3    4 1   
     7    3    8 1   
     8    3   27 1   
     9    4    5 1   
    10    4   12 1   
    11    5    6 1   
    12    5   28 1   
    13    5   29 1   
    14    6    7 1   
    15    6    8 1   
    16    6   30 1   
    17    7   31 1   
    18    8    9 1   
    19    8   32 1   
    20    9   33 1   
    21   10   11 1   
    22   10   34 1   
    23   10   35 1   
    24   11   12 1   
    25   11   36 1   
    26   11   37 1   
    27   12   13 1   
    28   12   38 1   
    29   13   14 1   
    30   13   39 1   
    31   13   40 1   
    32   14   15 1   
    33   14   41 1   
    34   14   42 1   
    35   15   16 ar  
    36   15   24 ar  
    37   16   17 ar  
    38   16   43 1   
    39   17   18 ar  
    40   17   44 1   
    41   18   19 1   
    42   18   23 ar  
    43   19   20 1   
    44   19   21 1   
    45   19   22 1   
    46   20   45 1   
    47   20   46 1   
    48   20   47 1   
    49   21   48 1   
    50   21   49 1   
    51   21   50 1   
    52   22   51 1   
    53   22   52 1   
    54   22   53 1   
    55   23   24 ar  
    56   23   54 1   
    57   24   55 1   
@<TRIPOS>SUBSTRUCTURE
     1 HN5         1 TEMP              0 ****  ****    0 ROOT
