@<TRIPOS>MOLECULE
HN5
   55    57     1     0     0
SMALL
bcc


@<TRIPOS>ATOM
      1 O8          3.9290   -2.0600   -1.9960 oh        1 HN5     -0.604800
      2 C8          3.7020   -1.6370   -0.6620 c3        1 HN5      0.166100
      3 C8A         3.2270   -0.1710   -0.6430 c3        1 HN5      0.145500
      4 N4          2.9350    0.2240    0.7400 n3        1 HN5     -0.753600
      5 C3          3.0180    1.6690    0.8260 c3        1 HN5      0.147800
      6 C2          4.0860    2.0930   -0.2180 c3        1 HN5      0.105100
      7 O2          5.3270    2.3890    0.3820 oh        1 HN5     -0.597800
      8 C1          4.2210    0.8840   -1.1880 c3        1 HN5      0.102100
      9 O1          5.5250    0.3400   -1.1780 oh        1 HN5     -0.604800
     10 C7          2.5800   -2.5040   -0.0890 c3        1 HN5     -0.077400
     11 C6          2.1180   -2.0090    1.2680 c3        1 HN5     -0.072400
     12 C5          1.8150   -0.4930    1.3200 c3        1 HN5      0.203500
     13 C9          0.4340   -0.2080    0.7060 c3        1 HN5     -0.112400
     14 C10        -0.6750   -0.4570    1.7110 c3        1 HN5     -0.031100
     15 C11        -2.0180   -0.2220    1.1130 ca        1 HN5     -0.084300
     16 C16        -2.5430   -1.1210    0.1760 ca        1 HN5     -0.127500
     17 C15        -3.8010   -0.9090   -0.3770 ca        1 HN5     -0.126000
     18 C14        -4.5720    0.2050   -0.0090 ca        1 HN5     -0.066300
     19 C17        -5.9300    0.3960   -0.6320 c3        1 HN5     -0.009700
     20 C20        -6.8110   -0.8070   -0.3040 c3        1 HN5     -0.085767
     21 C19        -6.6310    1.6510   -0.1240 c3        1 HN5     -0.085767
     22 C18        -5.7810    0.5130   -2.1470 c3        1 HN5     -0.085767
     23 C13        -4.0440    1.0980    0.9280 ca        1 HN5     -0.126000
     24 C12        -2.7820    0.8870    1.4830 ca        1 HN5     -0.127500
     25 HO8         4.6950   -1.5590   -2.3070 ho        1 HN5      0.415000
     26 H8          4.6460   -1.7490   -0.0600 h1        1 HN5      0.061700
     27 H8A         2.3020   -0.1100   -1.2950 h1        1 HN5      0.043700
     28 H3          2.0470    2.1920    0.6050 h1        1 HN5      0.049200
     29 H3A         3.3440    1.9500    1.8630 h1        1 HN5      0.049200
     30 H2          3.7910    3.0320   -0.7530 h1        1 HN5      0.085700
     31 HO2         5.5830    1.6170    0.9080 ho        1 HN5      0.421000
     32 H1          3.9510    1.1760   -2.2380 h1        1 HN5      0.051700
     33 HO1         6.1390    1.0800   -1.2910 ho        1 HN5      0.420000
     34 H7          1.7230   -2.5070   -0.8130 hc        1 HN5      0.053200
     35 H7A         2.9450   -3.5590    0.0010 hc        1 HN5      0.053200
     36 H6          1.1910   -2.5630    1.5660 hc        1 HN5      0.048700
     37 H6A         2.9110   -2.2350    2.0290 hc        1 HN5      0.048700
     38 H5          1.7800   -0.1830    2.4080 h1        1 HN5      0.056700
     39 H9          0.3730    0.8580    0.3600 hc        1 HN5      0.049700
     40 H9A         0.2780   -0.8580   -0.1950 hc        1 HN5      0.049700
     41 H10        -0.6180   -1.5170    2.0810 hc        1 HN5      0.047700
     42 H10A       -0.5300    0.2120    2.6010 hc        1 HN5      0.047700
     43 H16        -1.9530   -2.0000   -0.1230 ha        1 HN5      0.130000
     44 H15        -4.1940   -1.6280   -1.1120 ha        1 HN5      0.132500
     45 H20        -6.9270   -0.9120    0.8000 hc        1 HN5      0.036811
     46 H20A       -7.8220   -0.6730   -0.7590 hc        1 HN5      0.036811
     47 H20B       -6.3620   -1.7460   -0.7080 hc        1 HN5      0.036811
     48 H19        -6.0320    2.5610   -0.3660 hc        1 HN5      0.036811
     49 H19A       -7.6300    1.7470   -0.6150 hc        1 HN5      0.036811
     50 H19B       -6.7860    1.5960    0.9800 hc        1 HN5      0.036811
     51 H18        -5.3200   -0.4100   -2.5700 hc        1 HN5      0.036811
     52 H18A       -6.7830    0.6580   -2.6170 hc        1 HN5      0.036811
     53 H18B       -5.1350    1.3860   -2.4050 hc        1 HN5      0.036811
     54 H13        -4.6150    1.9840    1.2460 ha        1 HN5      0.132500
     55 H12        -2.3880    1.6030    2.2200 ha        1 HN5      0.130000
@<TRIPOS>BOND
     1    1    2 1   
     2    1   25 1   
     3    2    3 1   
     4    2   10 1   
     5    2   26 1   
     6    3    4 1   
     7    3    8 1   
     8    3   27 1   
     9    4    5 1   
    10    4   12 1   
    11    5    6 1   
    12    5   28 1   
    13    5   29 1   
    14    6    7 1   
    15    6    8 1   
    16    6   30 1   
    17    7   31 1   
    18    8    9 1   
    19    8   32 1   
    20    9   33 1   
    21   10   11 1   
    22   10   34 1   
    23   10   35 1   
    24   11   12 1   
    25   11   36 1   
    26   11   37 1   
    27   12   13 1   
    28   12   38 1   
    29   13   14 1   
    30   13   39 1   
    31   13   40 1   
    32   14   15 1   
    33   14   41 1   
    34   14   42 1   
    35   15   16 ar  
    36   15   24 ar  
    37   16   17 ar  
    38   16   43 1   
    39   17   18 ar  
    40   17   44 1   
    41   18   19 1   
    42   18   23 ar  
    43   19   20 1   
    44   19   21 1   
    45   19   22 1   
    46   20   45 1   
    47   20   46 1   
    48   20   47 1   
    49   21   48 1   
    50   21   49 1   
    51   21   50 1   
    52   22   51 1   
    53   22   52 1   
    54   22   53 1   
    55   23   24 ar  
    56   23   54 1   
    57   24   55 1   
@<TRIPOS>SUBSTRUCTURE
     1 HN5         1 TEMP              0 ****  ****    0 ROOT
