@<TRIPOS>MOLECULE
HN6
   55    57     1     0     0
SMALL
bcc


@<TRIPOS>ATOM
      1 O8         -0.0490   -0.1130   -0.0810 oh        1 HN6     -0.597800
      2 C8          1.3670   -0.0380   -0.0730 c3        1 HN6      0.159100
      3 C8A         1.8870    0.0410    1.3730 c3        1 HN6      0.094500
      4 N4          3.3580    0.0720    1.3760 n3        1 HN6     -0.743600
      5 C3          3.7720    0.5600    2.6840 c3        1 HN6      0.129800
      6 C2          2.5980    1.4160    3.2440 c3        1 HN6      0.105100
      7 O2          2.9880    2.7420    3.4930 oh        1 HN6     -0.577800
      8 C1          1.4570    1.2790    2.1950 c3        1 HN6      0.107100
      9 O1          1.3140    2.4400    1.4080 oh        1 HN6     -0.593800
     10 C7          1.9040   -1.3280   -0.6930 c3        1 HN6     -0.077400
     11 C6          3.4100   -1.4220   -0.5620 c3        1 HN6     -0.076400
     12 C5          3.9200   -1.1790    0.8750 c3        1 HN6      0.195500
     13 C9          5.4560   -1.1740    0.8870 c3        1 HN6     -0.077400
     14 C10         6.0140   -2.5640    0.6440 c3        1 HN6     -0.036100
     15 C11         7.4970   -2.5810    0.7730 ca        1 HN6     -0.085300
     16 C16         8.1130   -3.1820    1.8760 ca        1 HN6     -0.126500
     17 C15         9.5000   -3.2030    1.9840 ca        1 HN6     -0.126000
     18 C14        10.3110   -2.6260    0.9950 ca        1 HN6     -0.065300
     19 C17        11.8080   -2.6710    1.1530 c3        1 HN6     -0.009700
     20 C20        12.2660   -4.1260    1.2240 c3        1 HN6     -0.085767
     21 C19        12.5350   -2.0000   -0.0060 c3        1 HN6     -0.085767
     22 C18        12.2040   -1.9550    2.4420 c3        1 HN6     -0.085767
     23 C13         9.6900   -2.0270   -0.1060 ca        1 HN6     -0.126000
     24 C12         8.3010   -2.0050   -0.2160 ca        1 HN6     -0.126500
     25 HO8        -0.3650    0.7270    0.2770 ho        1 HN6      0.412000
     26 H8          1.7020    0.8570   -0.6660 h1        1 HN6      0.045700
     27 H8A         1.4850   -0.8690    1.9180 h1        1 HN6      0.049700
     28 H3          4.6890    1.1960    2.5530 h1        1 HN6      0.052700
     29 H3A         4.0150   -0.2670    3.4060 h1        1 HN6      0.052700
     30 H2          2.2670    1.0250    4.2430 h1        1 HN6      0.085700
     31 HO2         3.0370    3.2070    2.6470 ho        1 HN6      0.408000
     32 H1          0.4560    1.1380    2.6800 h1        1 HN6      0.093700
     33 HO1         2.0850    2.5000    0.8270 ho        1 HN6      0.412000
     34 H7          1.6130   -1.3620   -1.7740 hc        1 HN6      0.056200
     35 H7A         1.4150   -2.2010   -0.1860 hc        1 HN6      0.056200
     36 H6          3.8920   -0.6810   -1.2510 hc        1 HN6      0.050700
     37 H6A         3.7370   -2.4470   -0.8780 hc        1 HN6      0.050700
     38 H5          3.5740   -2.0500    1.5170 h1        1 HN6      0.022700
     39 H9          5.8400   -0.4700    0.1040 hc        1 HN6      0.053700
     40 H9A         5.8270   -0.8050    1.8800 hc        1 HN6      0.053700
     41 H10         5.5580   -3.2860    1.3730 hc        1 HN6      0.048200
     42 H10A        5.7340   -2.9110   -0.3870 hc        1 HN6      0.048200
     43 H16         7.4980   -3.6430    2.6630 ha        1 HN6      0.130000
     44 H15         9.9640   -3.6820    2.8600 ha        1 HN6      0.133000
     45 H20        13.3760   -4.1700    1.3380 hc        1 HN6      0.037033
     46 H20A       11.9790   -4.6670    0.2910 hc        1 HN6      0.037033
     47 H20B       11.7990   -4.6440    2.0950 hc        1 HN6      0.037033
     48 H19        12.2490   -0.9240   -0.0800 hc        1 HN6      0.037033
     49 H19A       12.2950   -2.5100   -0.9700 hc        1 HN6      0.037033
     50 H19B       13.6380   -2.0600    0.1580 hc        1 HN6      0.037033
     51 H18        13.3130   -1.9810    2.5660 hc        1 HN6      0.037033
     52 H18A       11.8710   -0.8900    2.4090 hc        1 HN6      0.037033
     53 H18B       11.7360   -2.4490    3.3260 hc        1 HN6      0.037033
     54 H13        10.2870   -1.5620   -0.9050 ha        1 HN6      0.133000
     55 H12         7.8300   -1.5300   -1.0900 ha        1 HN6      0.130000
@<TRIPOS>BOND
     1    1    2 1   
     2    1   25 1   
     3    2    3 1   
     4    2   10 1   
     5    2   26 1   
     6    3    4 1   
     7    3    8 1   
     8    3   27 1   
     9    4    5 1   
    10    4   12 1   
    11    5    6 1   
    12    5   28 1   
    13    5   29 1   
    14    6    7 1   
    15    6    8 1   
    16    6   30 1   
    17    7   31 1   
    18    8    9 1   
    19    8   32 1   
    20    9   33 1   
    21   10   11 1   
    22   10   34 1   
    23   10   35 1   
    24   11   12 1   
    25   11   36 1   
    26   11   37 1   
    27   12   13 1   
    28   12   38 1   
    29   13   14 1   
    30   13   39 1   
    31   13   40 1   
    32   14   15 1   
    33   14   41 1   
    34   14   42 1   
    35   15   16 ar  
    36   15   24 ar  
    37   16   17 ar  
    38   16   43 1   
    39   17   18 ar  
    40   17   44 1   
    41   18   19 1   
    42   18   23 ar  
    43   19   20 1   
    44   19   21 1   
    45   19   22 1   
    46   20   45 1   
    47   20   46 1   
    48   20   47 1   
    49   21   48 1   
    50   21   49 1   
    51   21   50 1   
    52   22   51 1   
    53   22   52 1   
    54   22   53 1   
    55   23   24 ar  
    56   23   54 1   
    57   24   55 1   
@<TRIPOS>SUBSTRUCTURE
     1 HN6         1 TEMP              0 ****  ****    0 ROOT
