@<TRIPOS>MOLECULE
HN6
   55    57     1     0     0
SMALL
bcc


@<TRIPOS>ATOM
      1 O8          5.7620   -1.8200   -0.0410 oh        1 HN6     -0.597800
      2 C8          4.4630   -1.4160    0.3560 c3        1 HN6      0.159100
      3 C8A         4.0400   -0.1510   -0.4110 c3        1 HN6      0.094500
      4 N4          2.6740    0.2360   -0.0270 n3        1 HN6     -0.743600
      5 C3          2.4900    1.6210   -0.4390 c3        1 HN6      0.129800
      6 C2          3.9040    2.2720   -0.4900 c3        1 HN6      0.105100
      7 O2          4.0090    3.3660    0.3840 oh        1 HN6     -0.577800
      8 C1          4.8980    1.1160   -0.1790 c3        1 HN6      0.107100
      9 O1          5.4170    1.1970    1.1300 oh        1 HN6     -0.593800
     10 C7          3.4930   -2.5360   -0.0190 c3        1 HN6     -0.077400
     11 C6          2.0530   -2.1210    0.2010 c3        1 HN6     -0.076400
     12 C5          1.6970   -0.7650   -0.4470 c3        1 HN6      0.195500
     13 C9          0.2610   -0.3710   -0.0720 c3        1 HN6     -0.077400
     14 C10        -0.7540   -1.2620   -0.7630 c3        1 HN6     -0.036100
     15 C11        -2.1460   -0.8090   -0.4910 ca        1 HN6     -0.085300
     16 C16        -2.9050   -0.1910   -1.4900 ca        1 HN6     -0.126500
     17 C15        -4.2090    0.2200   -1.2310 ca        1 HN6     -0.126000
     18 C14        -4.7910    0.0260    0.0300 ca        1 HN6     -0.065300
     19 C17        -6.2050    0.4870    0.2670 c3        1 HN6     -0.009700
     20 C20        -7.1410   -0.2310   -0.7020 c3        1 HN6     -0.085767
     21 C19        -6.6800    0.2010    1.6860 c3        1 HN6     -0.085767
     22 C18        -6.2940    1.9920    0.0300 c3        1 HN6     -0.085767
     23 C13        -4.0270   -0.5930    1.0260 ca        1 HN6     -0.126000
     24 C12        -2.7210   -1.0060    0.7680 ca        1 HN6     -0.126500
     25 HO8         6.3610   -1.1160    0.2420 ho        1 HN6      0.412000
     26 H8          4.4470   -1.2320    1.4660 h1        1 HN6      0.045700
     27 H8A         4.1130   -0.3970   -1.5150 h1        1 HN6      0.049700
     28 H3          1.9920    1.7190   -1.4420 h1        1 HN6      0.052700
     29 H3A         1.8510    2.1370    0.3260 h1        1 HN6      0.052700
     30 H2          4.1020    2.7020   -1.5080 h1        1 HN6      0.085700
     31 HO2         4.1040    3.0250    1.2840 ho        1 HN6      0.408000
     32 H1          5.7980    1.1450   -0.8460 h1        1 HN6      0.093700
     33 HO1         4.7010    0.9890    1.7450 ho        1 HN6      0.412000
     34 H7          3.6590   -2.8100   -1.0940 hc        1 HN6      0.056200
     35 H7A         3.7250   -3.4430    0.5970 hc        1 HN6      0.056200
     36 H6          1.3800   -2.9030   -0.2390 hc        1 HN6      0.050700
     37 H6A         1.8430   -2.0670    1.3010 hc        1 HN6      0.050700
     38 H5          1.7340   -0.9000   -1.5740 h1        1 HN6      0.022700
     39 H9          0.1270   -0.4370    1.0390 hc        1 HN6      0.053700
     40 H9A         0.0680    0.6940   -0.3700 hc        1 HN6      0.053700
     41 H10        -0.5610   -1.2650   -1.8690 hc        1 HN6      0.048200
     42 H10A       -0.6380   -2.3210   -0.4030 hc        1 HN6      0.048200
     43 H16        -2.4710   -0.0290   -2.4880 ha        1 HN6      0.130000
     44 H15        -4.7890    0.7050   -2.0320 ha        1 HN6      0.133000
     45 H20        -7.0850   -1.3350   -0.5470 hc        1 HN6      0.037033
     46 H20A       -8.1930    0.1020   -0.5320 hc        1 HN6      0.037033
     47 H20B       -6.8630   -0.0040   -1.7590 hc        1 HN6      0.037033
     48 H19        -6.0380    0.7290    2.4310 hc        1 HN6      0.037033
     49 H19A       -7.7310    0.5610    1.8100 hc        1 HN6      0.037033
     50 H19B       -6.6580   -0.8950    1.8960 hc        1 HN6      0.037033
     51 H18        -6.0070    2.2440   -1.0190 hc        1 HN6      0.037033
     52 H18A       -7.3390    2.3440    0.2060 hc        1 HN6      0.037033
     53 H18B       -5.6110    2.5340    0.7270 hc        1 HN6      0.037033
     54 H13        -4.4440   -0.7660    2.0300 ha        1 HN6      0.133000
     55 H12        -2.1360   -1.4920    1.5630 ha        1 HN6      0.130000
@<TRIPOS>BOND
     1    1    2 1   
     2    1   25 1   
     3    2    3 1   
     4    2   10 1   
     5    2   26 1   
     6    3    4 1   
     7    3    8 1   
     8    3   27 1   
     9    4    5 1   
    10    4   12 1   
    11    5    6 1   
    12    5   28 1   
    13    5   29 1   
    14    6    7 1   
    15    6    8 1   
    16    6   30 1   
    17    7   31 1   
    18    8    9 1   
    19    8   32 1   
    20    9   33 1   
    21   10   11 1   
    22   10   34 1   
    23   10   35 1   
    24   11   12 1   
    25   11   36 1   
    26   11   37 1   
    27   12   13 1   
    28   12   38 1   
    29   13   14 1   
    30   13   39 1   
    31   13   40 1   
    32   14   15 1   
    33   14   41 1   
    34   14   42 1   
    35   15   16 ar  
    36   15   24 ar  
    37   16   17 ar  
    38   16   43 1   
    39   17   18 ar  
    40   17   44 1   
    41   18   19 1   
    42   18   23 ar  
    43   19   20 1   
    44   19   21 1   
    45   19   22 1   
    46   20   45 1   
    47   20   46 1   
    48   20   47 1   
    49   21   48 1   
    50   21   49 1   
    51   21   50 1   
    52   22   51 1   
    53   22   52 1   
    54   22   53 1   
    55   23   24 ar  
    56   23   54 1   
    57   24   55 1   
@<TRIPOS>SUBSTRUCTURE
     1 HN6         1 TEMP              0 ****  ****    0 ROOT
