@<TRIPOS>MOLECULE
HN6
   55    57     1     0     0
SMALL
bcc


@<TRIPOS>ATOM
      1 O8         -0.0520   -0.1030   -0.0530 oh        1 HN6     -0.597800
      2 C8          1.3640   -0.0310   -0.0510 c3        1 HN6      0.159100
      3 C8A         1.8900    0.0470    1.3930 c3        1 HN6      0.094500
      4 N4          3.3610    0.0760    1.3910 n3        1 HN6     -0.743600
      5 C3          3.7810    0.5640    2.6970 c3        1 HN6      0.129800
      6 C2          2.6100    1.4210    3.2610 c3        1 HN6      0.105100
      7 O2          3.0030    2.7470    3.5090 oh        1 HN6     -0.577800
      8 C1          1.4650    1.2860    2.2170 c3        1 HN6      0.107100
      9 O1          1.3210    2.4480    1.4300 oh        1 HN6     -0.593800
     10 C7          1.8960   -1.3210   -0.6730 c3        1 HN6     -0.077400
     11 C6          3.4030   -1.4180   -0.5480 c3        1 HN6     -0.076400
     12 C5          3.9190   -1.1760    0.8870 c3        1 HN6      0.195500
     13 C9          5.4550   -1.1730    0.8930 c3        1 HN6     -0.077400
     14 C10         6.0100   -2.5640    0.6490 c3        1 HN6     -0.036100
     15 C11         7.4940   -2.5830    0.7690 ca        1 HN6     -0.085300
     16 C16         8.1140   -3.1840    1.8690 ca        1 HN6     -0.126500
     17 C15         9.5020   -3.2070    1.9700 ca        1 HN6     -0.126000
     18 C14        10.3090   -2.6320    0.9770 ca        1 HN6     -0.065300
     19 C17        11.8060   -2.6790    1.1260 c3        1 HN6     -0.009700
     20 C20        12.2620   -4.1350    1.1950 c3        1 HN6     -0.085767
     21 C19        12.5280   -2.0100   -0.0380 c3        1 HN6     -0.085767
     22 C18        12.2100   -1.9630    2.4120 c3        1 HN6     -0.085767
     23 C13         9.6820   -2.0330   -0.1220 ca        1 HN6     -0.126000
     24 C12         8.2930   -2.0090   -0.2250 ca        1 HN6     -0.126500
     25 HO8        -0.3650    0.7380    0.3060 ho        1 HN6      0.412000
     26 H8          1.6980    0.8640   -0.6450 h1        1 HN6      0.045700
     27 H8A         1.4890   -0.8620    1.9390 h1        1 HN6      0.049700
     28 H3          4.6980    1.1980    2.5620 h1        1 HN6      0.052700
     29 H3A         4.0260   -0.2630    3.4180 h1        1 HN6      0.052700
     30 H2          2.2830    1.0300    4.2610 h1        1 HN6      0.085700
     31 HO2         3.0500    3.2110    2.6630 ho        1 HN6      0.408000
     32 H1          0.4660    1.1460    2.7060 h1        1 HN6      0.093700
     33 HO1         2.0900    2.5060    0.8470 ho        1 HN6      0.412000
     34 H7          1.4080   -2.1930   -0.1650 hc        1 HN6      0.056200
     35 H7A         1.6010   -1.3550   -1.7530 hc        1 HN6      0.056200
     36 H6          3.8830   -0.6770   -1.2390 hc        1 HN6      0.050700
     37 H6A         3.7270   -2.4430   -0.8650 hc        1 HN6      0.050700
     38 H5          3.5740   -2.0460    1.5300 h1        1 HN6      0.022700
     39 H9          5.8310   -0.8030    1.8840 hc        1 HN6      0.053700
     40 H9A         5.8360   -0.4700    0.1070 hc        1 HN6      0.053700
     41 H10         5.5570   -3.2840    1.3810 hc        1 HN6      0.048200
     42 H10A        5.7230   -2.9120   -0.3800 hc        1 HN6      0.048200
     43 H16         7.5030   -3.6430    2.6610 ha        1 HN6      0.130000
     44 H15         9.9700   -3.6860    2.8440 ha        1 HN6      0.133000
     45 H20        13.3730   -4.1800    1.3030 hc        1 HN6      0.037033
     46 H20A       11.8000   -4.6510    2.0700 hc        1 HN6      0.037033
     47 H20B       11.9700   -4.6760    0.2650 hc        1 HN6      0.037033
     48 H19        13.6320   -2.0720    0.1200 hc        1 HN6      0.037033
     49 H19A       12.2820   -2.5210   -1.0000 hc        1 HN6      0.037033
     50 H19B       12.2430   -0.9340   -0.1110 hc        1 HN6      0.037033
     51 H18        11.8790   -0.8980    2.3810 hc        1 HN6      0.037033
     52 H18A       13.3200   -1.9900    2.5300 hc        1 HN6      0.037033
     53 H18B       11.7470   -2.4560    3.3000 hc        1 HN6      0.037033
     54 H13        10.2760   -1.5700   -0.9250 ha        1 HN6      0.133000
     55 H12         7.8180   -1.5340   -1.0960 ha        1 HN6      0.130000
@<TRIPOS>BOND
     1    1    2 1   
     2    1   25 1   
     3    2    3 1   
     4    2   10 1   
     5    2   26 1   
     6    3    4 1   
     7    3    8 1   
     8    3   27 1   
     9    4    5 1   
    10    4   12 1   
    11    5    6 1   
    12    5   28 1   
    13    5   29 1   
    14    6    7 1   
    15    6    8 1   
    16    6   30 1   
    17    7   31 1   
    18    8    9 1   
    19    8   32 1   
    20    9   33 1   
    21   10   11 1   
    22   10   34 1   
    23   10   35 1   
    24   11   12 1   
    25   11   36 1   
    26   11   37 1   
    27   12   13 1   
    28   12   38 1   
    29   13   14 1   
    30   13   39 1   
    31   13   40 1   
    32   14   15 1   
    33   14   41 1   
    34   14   42 1   
    35   15   16 ar  
    36   15   24 ar  
    37   16   17 ar  
    38   16   43 1   
    39   17   18 ar  
    40   17   44 1   
    41   18   19 1   
    42   18   23 ar  
    43   19   20 1   
    44   19   21 1   
    45   19   22 1   
    46   20   45 1   
    47   20   46 1   
    48   20   47 1   
    49   21   48 1   
    50   21   49 1   
    51   21   50 1   
    52   22   51 1   
    53   22   52 1   
    54   22   53 1   
    55   23   24 ar  
    56   23   54 1   
    57   24   55 1   
@<TRIPOS>SUBSTRUCTURE
     1 HN6         1 TEMP              0 ****  ****    0 ROOT
