@<TRIPOS>MOLECULE
HN6
   55    57     1     0     0
SMALL
bcc


@<TRIPOS>ATOM
      1 O8         -0.0480   -0.1000   -0.0710 oh        1 HN6     -0.597800
      2 C8          1.3680   -0.0270   -0.0630 c3        1 HN6      0.159100
      3 C8A         1.8880    0.0450    1.3830 c3        1 HN6      0.094500
      4 N4          3.3600    0.0740    1.3860 n3        1 HN6     -0.743600
      5 C3          3.7750    0.5560    2.6960 c3        1 HN6      0.129800
      6 C2          2.6010    1.4100    3.2600 c3        1 HN6      0.105100
      7 O2          2.9930    2.7350    3.5150 oh        1 HN6     -0.577800
      8 C1          1.4600    1.2800    2.2110 c3        1 HN6      0.107100
      9 O1          1.3190    2.4450    1.4290 oh        1 HN6     -0.593800
     10 C7          1.9030   -1.3140   -0.6890 c3        1 HN6     -0.077400
     11 C6          3.4090   -1.4110   -0.5590 c3        1 HN6     -0.076400
     12 C5          3.9200   -1.1750    0.8790 c3        1 HN6      0.195500
     13 C9          5.4550   -1.1730    0.8900 c3        1 HN6     -0.077400
     14 C10         6.0120   -2.5630    0.6450 c3        1 HN6     -0.036100
     15 C11         7.4950   -2.5820    0.7690 ca        1 HN6     -0.085300
     16 C16         8.1130   -3.1800    1.8730 ca        1 HN6     -0.126500
     17 C15         9.5000   -3.2030    1.9770 ca        1 HN6     -0.126000
     18 C14        10.3090   -2.6300    0.9840 ca        1 HN6     -0.065300
     19 C17        11.8060   -2.6780    1.1370 c3        1 HN6     -0.009700
     20 C20        12.2620   -4.1330    1.2130 c3        1 HN6     -0.085767
     21 C19        12.5310   -2.0120   -0.0260 c3        1 HN6     -0.085767
     22 C18        12.2070   -1.9580    2.4230 c3        1 HN6     -0.085767
     23 C13         9.6860   -2.0340   -0.1180 ca        1 HN6     -0.126000
     24 C12         8.2960   -2.0110   -0.2240 ca        1 HN6     -0.126500
     25 HO8        -0.3630    0.7400    0.2910 ho        1 HN6      0.412000
     26 H8          1.7040    0.8710   -0.6520 h1        1 HN6      0.045700
     27 H8A         1.4860   -0.8670    1.9230 h1        1 HN6      0.049700
     28 H3          4.6920    1.1900    2.5670 h1        1 HN6      0.052700
     29 H3A         4.0170   -0.2750    3.4140 h1        1 HN6      0.052700
     30 H2          2.2700    1.0140    4.2570 h1        1 HN6      0.085700
     31 HO2         3.0420    3.2030    2.6720 ho        1 HN6      0.408000
     32 H1          0.4590    1.1370    2.6950 h1        1 HN6      0.093700
     33 HO1         2.0900    2.5060    0.8490 ho        1 HN6      0.412000
     34 H7          1.4130   -2.1890   -0.1870 hc        1 HN6      0.056200
     35 H7A         1.6120   -1.3430   -1.7710 hc        1 HN6      0.056200
     36 H6          3.8920   -0.6670   -1.2450 hc        1 HN6      0.050700
     37 H6A         3.7350   -2.4350   -0.8800 hc        1 HN6      0.050700
     38 H5          3.5720   -2.0490    1.5160 h1        1 HN6      0.022700
     39 H9          5.8400   -0.4680    0.1080 hc        1 HN6      0.053700
     40 H9A         5.8280   -0.8060    1.8840 hc        1 HN6      0.053700
     41 H10         5.7270   -2.9090   -0.3860 hc        1 HN6      0.048200
     42 H10A        5.5560   -3.2850    1.3750 hc        1 HN6      0.048200
     43 H16         7.4990   -3.6370    2.6630 ha        1 HN6      0.130000
     44 H15         9.9650   -3.6800    2.8540 ha        1 HN6      0.133000
     45 H20        11.7970   -4.6460    2.0870 hc        1 HN6      0.036922
     46 H20A       11.9720   -4.6770    0.2830 hc        1 HN6      0.036922
     47 H20B       13.3720   -4.1780    1.3230 hc        1 HN6      0.036922
     48 H19        12.2470   -0.9350   -0.1030 hc        1 HN6      0.036922
     49 H19A       13.6350   -2.0730    0.1350 hc        1 HN6      0.036922
     50 H19B       12.2880   -2.5250   -0.9870 hc        1 HN6      0.036922
     51 H18        11.7410   -2.4470    3.3110 hc        1 HN6      0.036922
     52 H18A       13.3160   -1.9850    2.5440 hc        1 HN6      0.036922
     53 H18B       11.8760   -0.8920    2.3880 hc        1 HN6      0.036922
     54 H13        10.2810   -1.5730   -0.9200 ha        1 HN6      0.133000
     55 H12         7.8240   -1.5370   -1.0980 ha        1 HN6      0.130000
@<TRIPOS>BOND
     1    1    2 1   
     2    1   25 1   
     3    2    3 1   
     4    2   10 1   
     5    2   26 1   
     6    3    4 1   
     7    3    8 1   
     8    3   27 1   
     9    4    5 1   
    10    4   12 1   
    11    5    6 1   
    12    5   28 1   
    13    5   29 1   
    14    6    7 1   
    15    6    8 1   
    16    6   30 1   
    17    7   31 1   
    18    8    9 1   
    19    8   32 1   
    20    9   33 1   
    21   10   11 1   
    22   10   34 1   
    23   10   35 1   
    24   11   12 1   
    25   11   36 1   
    26   11   37 1   
    27   12   13 1   
    28   12   38 1   
    29   13   14 1   
    30   13   39 1   
    31   13   40 1   
    32   14   15 1   
    33   14   41 1   
    34   14   42 1   
    35   15   16 ar  
    36   15   24 ar  
    37   16   17 ar  
    38   16   43 1   
    39   17   18 ar  
    40   17   44 1   
    41   18   19 1   
    42   18   23 ar  
    43   19   20 1   
    44   19   21 1   
    45   19   22 1   
    46   20   45 1   
    47   20   46 1   
    48   20   47 1   
    49   21   48 1   
    50   21   49 1   
    51   21   50 1   
    52   22   51 1   
    53   22   52 1   
    54   22   53 1   
    55   23   24 ar  
    56   23   54 1   
    57   24   55 1   
@<TRIPOS>SUBSTRUCTURE
     1 HN6         1 TEMP              0 ****  ****    0 ROOT
