@<TRIPOS>MOLECULE
HN7
   54    56     1     0     0
SMALL
bcc


@<TRIPOS>ATOM
      1 O10        -0.0990    0.4740    0.0460 o         1 HN7     -0.537100
      2 C10         1.1200    0.2620    0.0040 c         1 HN7      0.579700
      3 C11         1.9290    0.1930    1.2400 ca        1 HN7     -0.183600
      4 C12         1.2710    0.1030    2.4750 ca        1 HN7     -0.081500
      5 C13         1.9980    0.0330    3.6590 ca        1 HN7     -0.144000
      6 C14         3.4010    0.0570    3.6450 ca        1 HN7     -0.032300
      7 C17         4.1510   -0.0210    4.9480 c3        1 HN7     -0.015700
      8 C18         3.7920   -1.3230    5.6600 c3        1 HN7     -0.087100
      9 C19         5.6620    0.0150    4.7540 c3        1 HN7     -0.087100
     10 C20         3.7550    1.1610    5.8300 c3        1 HN7     -0.087100
     11 C15         4.0530    0.1530    2.4100 ca        1 HN7     -0.144000
     12 C16         3.3270    0.2190    1.2220 ca        1 HN7     -0.081500
     13 C9          1.8590    0.0700   -1.2920 c3        1 HN7     -0.178400
     14 C5          0.9130   -0.1380   -2.4820 c3        1 HN7      0.198500
     15 C6          0.2790   -1.5440   -2.3840 c3        1 HN7     -0.075400
     16 C7         -0.5780   -1.9050   -3.5790 c3        1 HN7     -0.076400
     17 C8          0.1610   -1.6590   -4.8950 c3        1 HN7      0.164100
     18 O8         -0.7610   -1.8530   -5.9530 oh        1 HN7     -0.601800
     19 N4          1.5950   -0.0110   -3.7660 n3        1 HN7     -0.737600
     20 C3          2.3660    1.1870   -4.0560 c3        1 HN7      0.135800
     21 C2          2.4600    1.2800   -5.6060 c3        1 HN7      0.099100
     22 O2          3.7240    0.8670   -6.0850 oh        1 HN7     -0.588800
     23 C1          1.4080    0.2750   -6.1560 c3        1 HN7      0.155100
     24 O1          1.9630   -0.7890   -6.8870 oh        1 HN7     -0.588800
     25 C8A         0.6610   -0.2030   -4.8840 c3        1 HN7      0.098500
     26 H12         0.1690    0.0920    2.4950 ha        1 HN7      0.143500
     27 H13         1.4600   -0.0390    4.6170 ha        1 HN7      0.139000
     28 H18         2.6980   -1.3670    5.8730 hc        1 HN7      0.038922
     29 H18A        4.0690   -2.1990    5.0270 hc        1 HN7      0.038922
     30 H18B        4.3450   -1.3910    6.6280 hc        1 HN7      0.038922
     31 H19         5.9730    0.9660    4.2600 hc        1 HN7      0.038922
     32 H19A        6.0000   -0.8490    4.1330 hc        1 HN7      0.038922
     33 H19B        6.1690   -0.0470    5.7480 hc        1 HN7      0.038922
     34 H20         2.6600    1.1440    6.0450 hc        1 HN7      0.038922
     35 H20A        4.0050    2.1230    5.3220 hc        1 HN7      0.038922
     36 H20B        4.3080    1.1130    6.7980 hc        1 HN7      0.038922
     37 H15         5.1520    0.1780    2.3540 ha        1 HN7      0.139000
     38 H16         3.8720    0.2970    0.2680 ha        1 HN7      0.143500
     39 H9          2.5480   -0.8110   -1.2000 hc        1 HN7      0.073200
     40 H9A         2.4910    0.9850   -1.4530 hc        1 HN7      0.073200
     41 H5          0.0780    0.6260   -2.3920 h1        1 HN7      0.047700
     42 H6         -0.3500   -1.5620   -1.4550 hc        1 HN7      0.054200
     43 H6A         1.0920   -2.3070   -2.2680 hc        1 HN7      0.054200
     44 H7         -0.8740   -2.9840   -3.5210 hc        1 HN7      0.056700
     45 H7A        -1.5220   -1.2980   -3.5770 hc        1 HN7      0.056700
     46 H8          1.0260   -2.3690   -5.0110 h1        1 HN7      0.050700
     47 HO8        -0.2570   -1.7420   -6.7710 ho        1 HN7      0.416000
     48 H3          1.9000    2.1250   -3.6470 h1        1 HN7      0.041200
     49 H3A         3.3870    1.0700   -3.6040 h1        1 HN7      0.041200
     50 H2          2.2410    2.3240   -5.9520 h1        1 HN7      0.050700
     51 HO2         4.3840    1.4220   -5.6520 ho        1 HN7      0.408000
     52 H1          0.7010    0.7740   -6.8700 h1        1 HN7      0.084700
     53 HO1         2.7410   -1.1070   -6.4060 ho        1 HN7      0.428000
     54 H8A        -0.2540    0.4580   -4.7770 h1        1 HN7      0.045700
@<TRIPOS>BOND
     1    1    2 2   
     2    2    3 1   
     3    2   13 1   
     4    3    4 ar  
     5    3   12 ar  
     6    4    5 ar  
     7    4   26 1   
     8    5    6 ar  
     9    5   27 1   
    10    6    7 1   
    11    6   11 ar  
    12    7    8 1   
    13    7    9 1   
    14    7   10 1   
    15    8   28 1   
    16    8   29 1   
    17    8   30 1   
    18    9   31 1   
    19    9   32 1   
    20    9   33 1   
    21   10   34 1   
    22   10   35 1   
    23   10   36 1   
    24   11   12 ar  
    25   11   37 1   
    26   12   38 1   
    27   13   14 1   
    28   13   39 1   
    29   13   40 1   
    30   14   15 1   
    31   14   19 1   
    32   14   41 1   
    33   15   16 1   
    34   15   42 1   
    35   15   43 1   
    36   16   17 1   
    37   16   44 1   
    38   16   45 1   
    39   17   18 1   
    40   17   25 1   
    41   17   46 1   
    42   18   47 1   
    43   19   20 1   
    44   19   25 1   
    45   20   21 1   
    46   20   48 1   
    47   20   49 1   
    48   21   22 1   
    49   21   23 1   
    50   21   50 1   
    51   22   51 1   
    52   23   24 1   
    53   23   25 1   
    54   23   52 1   
    55   24   53 1   
    56   25   54 1   
@<TRIPOS>SUBSTRUCTURE
     1 HN7         1 TEMP              0 ****  ****    0 ROOT
