@<TRIPOS>MOLECULE
HN7
   54    53     1     0     0
SMALL
bcc


@<TRIPOS>ATOM
      1 O10        -1.6450    1.9100    0.2300 o         1 HN7     -0.298000
      2 C10        -0.7360    1.0870    0.0730 c1        1 HN7      0.274000
      3 C11        -0.4770   -0.0280    1.1860 c1        1 HN7     -0.155000
      4 C12         0.4040   -1.0840    0.9270 c2        1 HN7     -0.095000
      5 C13         0.5680   -2.1010    1.8650 c1        1 HN7     -0.144000
      6 C14        -0.1560   -2.0660    3.0830 c1        1 HN7     -0.029000
      7 C17        -0.0220   -3.2330    4.0990 c3        1 HN7     -0.022000
      8 C18         1.0870   -4.1770    3.6440 c3        1 HN7     -0.204333
      9 C19         0.3250   -2.6620    5.5130 c3        1 HN7     -0.204333
     10 C20        -1.3360   -3.9990    4.1740 c3        1 HN7     -0.204333
     11 C15        -1.0370   -1.0100    3.3440 c1        1 HN7     -0.143000
     12 C16        -1.2020    0.0080    2.4040 c1        1 HN7     -0.076000
     13 C9         -0.0110    0.9930   -1.2930 c3        1 HN7     -0.245000
     14 C5          0.9180    2.1240   -1.4360 c3        1 HN7     -0.006000
     15 C6          0.1610    3.4130   -1.2070 c3        1 HN7     -0.162000
     16 C7         -0.7530    3.6940   -2.2610 c3        1 HN7     -0.188000
     17 C8         -0.0940    3.6380   -3.6160 c3        1 HN7      0.048000
     18 O8          0.7850    4.7250   -3.7360 oh        1 HN7     -0.330000
     19 N4          1.5690    2.0650   -2.8280 n3        1 HN7     -0.223000
     20 C3          1.6020    0.4890   -2.7310 c3        1 HN7     -0.113000
     21 C2          0.3800   -0.0240   -3.6180 c3        1 HN7     -0.039000
     22 O2         -0.3980   -0.9770   -2.8850 oh        1 HN7     -0.329000
     23 C1         -0.3440    1.0680   -3.8800 c3        1 HN7      0.018000
     24 O1         -1.3510    1.2320   -2.9010 oh        1 HN7     -0.320000
     25 C8A         0.6940    2.3300   -3.8330 c3        1 HN7     -0.065000
     26 H12         0.8930   -1.1100    0.1040 ha        1 HN7      0.131000
     27 H13         1.1660   -2.8200    1.6880 ha        1 HN7      0.137000
     28 H18         0.8540   -4.5590    2.7780 hc        1 HN7      0.077778
     29 H18A        1.9710   -3.6550    3.5620 hc        1 HN7      0.077778
     30 H18B        1.1930   -4.9010    4.3030 hc        1 HN7      0.077778
     31 H19         1.0990   -2.0510    5.4410 hc        1 HN7      0.077778
     32 H19A        0.5540   -3.4260    6.1380 hc        1 HN7      0.077778
     33 H19B       -0.4580   -2.1640    5.8710 hc        1 HN7      0.077778
     34 H20        -2.0320   -3.4190    4.5630 hc        1 HN7      0.077778
     35 H20A       -1.2170   -4.7960    4.7440 hc        1 HN7      0.077778
     36 H20B       -1.6110   -4.2830    3.2550 hc        1 HN7      0.077778
     37 H15        -1.5490   -0.9860    4.2040 ha        1 HN7      0.138000
     38 H16        -1.8410    0.7750    2.5920 ha        1 HN7      0.154000
     39 H9          0.4710    0.1820   -1.3400 hc        1 HN7      0.121500
     40 H9A        -0.6280    1.0210   -1.9680 hc        1 HN7      0.121500
     41 H5          1.6130    2.0470   -0.7640 h1        1 HN7      0.094000
     42 H6          0.8060    4.1550   -1.1380 hc        1 HN7      0.097000
     43 H6A        -0.3510    3.3420   -0.3390 hc        1 HN7      0.097000
     44 H7         -1.4920    3.0280   -2.2330 hc        1 HN7      0.105500
     45 H7A        -1.1170    4.5640   -2.1310 hc        1 HN7      0.105500
     46 H8         -0.7990    3.7110   -4.3210 h1        1 HN7      0.129000
     47 HO8         0.5560    5.2060   -4.4130 ho        1 HN7      0.202000
     48 H3          2.4640    0.1360   -3.0960 h1        1 HN7      0.097000
     49 H3A         1.4860    0.2050   -1.7990 h1        1 HN7      0.097000
     50 H2          0.7030   -0.4170   -4.4450 h1        1 HN7      0.089000
     51 HO2         0.0460   -1.7100   -2.8030 ho        1 HN7      0.211000
     52 H1         -0.7580    0.9950   -4.7960 h1        1 HN7      0.092000
     53 HO1        -2.1410    1.1340   -3.2740 ho        1 HN7      0.223000
     54 H8A         1.1900    2.3810   -4.6990 h1        1 HN7      0.115000
@<TRIPOS>BOND
     1    1    2 1   
     2    2   13 1   
     3    3    4 1   
     4    3   12 1   
     5    4    5 1   
     6    4   26 1   
     7    5   27 1   
     8    6    7 1   
     9    6   11 1   
    10    7    8 1   
    11    7    9 1   
    12    7   10 1   
    13    8   28 1   
    14    8   29 1   
    15    8   30 1   
    16    9   31 1   
    17    9   32 1   
    18    9   33 1   
    19   10   34 1   
    20   10   35 1   
    21   10   36 1   
    22   11   37 1   
    23   12   38 1   
    24   13   14 1   
    25   13   39 1   
    26   13   40 1   
    27   14   15 1   
    28   14   19 1   
    29   14   41 1   
    30   15   16 1   
    31   15   42 1   
    32   15   43 1   
    33   16   17 1   
    34   16   44 1   
    35   16   45 1   
    36   17   18 1   
    37   17   25 1   
    38   17   46 1   
    39   18   47 1   
    40   19   20 1   
    41   19   25 1   
    42   20   21 1   
    43   20   48 1   
    44   20   49 1   
    45   21   22 1   
    46   21   23 1   
    47   21   50 1   
    48   22   51 1   
    49   23   24 1   
    50   23   25 1   
    51   23   52 1   
    52   24   53 1   
    53   25   54 1   
@<TRIPOS>SUBSTRUCTURE
     1 HN7         1 TEMP              0 ****  ****    0 ROOT
