@<TRIPOS>MOLECULE
HN7
   54    56     1     0     0
SMALL
bcc


@<TRIPOS>ATOM
      1 O10         0.5480   -1.8430    1.5460 o         1 HN7     -0.538100
      2 C10         0.7910   -0.8530    0.8430 c         1 HN7      0.580700
      3 C11         2.1810   -0.4600    0.5260 ca        1 HN7     -0.183600
      4 C12         3.2170   -1.3680    0.7890 ca        1 HN7     -0.081500
      5 C13         4.5360   -1.0350    0.5000 ca        1 HN7     -0.144000
      6 C14         4.8600    0.2130   -0.0520 ca        1 HN7     -0.032300
      7 C17         6.3010    0.5350   -0.3500 c3        1 HN7     -0.014700
      8 C18         6.8500   -0.4840   -1.3460 c3        1 HN7     -0.087100
      9 C19         6.4760    1.9260   -0.9460 c3        1 HN7     -0.087100
     10 C20         7.1110    0.4630    0.9430 c3        1 HN7     -0.087100
     11 C15         3.8230    1.1180   -0.3060 ca        1 HN7     -0.144000
     12 C16         2.4990    0.7860   -0.0220 ca        1 HN7     -0.081500
     13 C9         -0.2960    0.0170    0.2750 c3        1 HN7     -0.179400
     14 C5         -1.6860   -0.6220    0.4010 c3        1 HN7      0.200500
     15 C6         -1.7960   -1.7970   -0.5960 c3        1 HN7     -0.075400
     16 C7         -3.1750   -2.4220   -0.6430 c3        1 HN7     -0.077400
     17 C8         -4.2670   -1.3660   -0.8210 c3        1 HN7      0.165100
     18 O8         -5.5190   -2.0130   -0.6730 oh        1 HN7     -0.602800
     19 N4         -2.7630    0.3270    0.1380 n3        1 HN7     -0.745600
     20 C3         -2.8110    1.5890    0.8560 c3        1 HN7      0.138800
     21 C2         -4.2750    2.0930    0.7290 c3        1 HN7      0.106100
     22 O2         -4.4050    3.0990   -0.2490 oh        1 HN7     -0.597800
     23 C1         -5.1110    0.8390    0.3410 c3        1 HN7      0.103100
     24 O1         -5.7150    0.9790   -0.9290 oh        1 HN7     -0.602800
     25 C8A        -4.0790   -0.3130    0.2880 c3        1 HN7      0.143500
     26 H12         2.9720   -2.3480    1.2300 ha        1 HN7      0.144000
     27 H13         5.3330   -1.7640    0.7120 ha        1 HN7      0.139000
     28 H18         6.2650   -0.4500   -2.2960 hc        1 HN7      0.038811
     29 H18A        7.9180   -0.2520   -1.5740 hc        1 HN7      0.038811
     30 H18B        6.7920   -1.5160   -0.9270 hc        1 HN7      0.038811
     31 H19         6.1120    2.7070   -0.2360 hc        1 HN7      0.038811
     32 H19A        7.5590    2.1130   -1.1480 hc        1 HN7      0.038811
     33 H19B        5.9190    2.0160   -1.9080 hc        1 HN7      0.038811
     34 H20         7.0560   -0.5590    1.3870 hc        1 HN7      0.038811
     35 H20A        8.1810    0.7030    0.7330 hc        1 HN7      0.038811
     36 H20B        6.7190    1.1980    1.6860 hc        1 HN7      0.038811
     37 H15         4.0340    2.1100   -0.7350 ha        1 HN7      0.139000
     38 H16         1.7080    1.5230   -0.2310 ha        1 HN7      0.144000
     39 H9         -0.2660    0.9930    0.8330 hc        1 HN7      0.074200
     40 H9A        -0.0760    0.2300   -0.8040 hc        1 HN7      0.074200
     41 H5         -1.7710   -1.0480    1.4500 h1        1 HN7      0.046700
     42 H6         -1.5180   -1.4370   -1.6210 hc        1 HN7      0.054700
     43 H6A        -1.0460   -2.5710   -0.2840 hc        1 HN7      0.054700
     44 H7         -3.2310   -3.1520   -1.4900 hc        1 HN7      0.055700
     45 H7A        -3.3730   -2.9910    0.3030 hc        1 HN7      0.055700
     46 H8         -4.2040   -0.8830   -1.8340 h1        1 HN7      0.060700
     47 HO8        -6.1890   -1.3440   -0.8710 ho        1 HN7      0.414000
     48 H3         -2.5340    1.4960    1.9430 h1        1 HN7      0.047700
     49 H3A        -2.1060    2.3120    0.3670 h1        1 HN7      0.047700
     50 H2         -4.6340    2.5620    1.6810 h1        1 HN7      0.085700
     51 HO2        -4.0520    2.7430   -1.0770 ho        1 HN7      0.421000
     52 H1         -5.9030    0.6260    1.1060 h1        1 HN7      0.052700
     53 HO1        -6.1820    1.8270   -0.9260 ho        1 HN7      0.419000
     54 H8A        -4.1630   -0.8580    1.2800 h1        1 HN7      0.044700
@<TRIPOS>BOND
     1    1    2 2   
     2    2    3 1   
     3    2   13 1   
     4    3    4 ar  
     5    3   12 ar  
     6    4    5 ar  
     7    4   26 1   
     8    5    6 ar  
     9    5   27 1   
    10    6    7 1   
    11    6   11 ar  
    12    7    8 1   
    13    7    9 1   
    14    7   10 1   
    15    8   28 1   
    16    8   29 1   
    17    8   30 1   
    18    9   31 1   
    19    9   32 1   
    20    9   33 1   
    21   10   34 1   
    22   10   35 1   
    23   10   36 1   
    24   11   12 ar  
    25   11   37 1   
    26   12   38 1   
    27   13   14 1   
    28   13   39 1   
    29   13   40 1   
    30   14   15 1   
    31   14   19 1   
    32   14   41 1   
    33   15   16 1   
    34   15   42 1   
    35   15   43 1   
    36   16   17 1   
    37   16   44 1   
    38   16   45 1   
    39   17   18 1   
    40   17   25 1   
    41   17   46 1   
    42   18   47 1   
    43   19   20 1   
    44   19   25 1   
    45   20   21 1   
    46   20   48 1   
    47   20   49 1   
    48   21   22 1   
    49   21   23 1   
    50   21   50 1   
    51   22   51 1   
    52   23   24 1   
    53   23   25 1   
    54   23   52 1   
    55   24   53 1   
    56   25   54 1   
@<TRIPOS>SUBSTRUCTURE
     1 HN7         1 TEMP              0 ****  ****    0 ROOT
