@<TRIPOS>MOLECULE
HN7
   54    56     1     0     0
SMALL
bcc


@<TRIPOS>ATOM
      1 O10        -0.1070    0.4360    0.0670 o         1 HN7     -0.538100
      2 C10         1.1160    0.2490    0.0270 c         1 HN7      0.580700
      3 C11         1.9240    0.1880    1.2640 ca        1 HN7     -0.183600
      4 C12         1.2650    0.0730    2.4970 ca        1 HN7     -0.081500
      5 C13         1.9900    0.0090    3.6820 ca        1 HN7     -0.144500
      6 C14         3.3930    0.0650    3.6720 ca        1 HN7     -0.032300
      7 C17         4.1410   -0.0070    4.9770 c3        1 HN7     -0.014700
      8 C18         3.8090   -1.3220    5.6780 c3        1 HN7     -0.087100
      9 C19         5.6510    0.0640    4.7870 c3        1 HN7     -0.087100
     10 C20         3.7160    1.1590    5.8660 c3        1 HN7     -0.087100
     11 C15         4.0450    0.1860    2.4390 ca        1 HN7     -0.144500
     12 C16         3.3210    0.2460    1.2500 ca        1 HN7     -0.081500
     13 C9          1.8630    0.0830   -1.2680 c3        1 HN7     -0.179400
     14 C5          0.9240   -0.1280   -2.4640 c3        1 HN7      0.200500
     15 C6          0.3070   -1.5420   -2.3810 c3        1 HN7     -0.075400
     16 C7         -0.5420   -1.9010   -3.5830 c3        1 HN7     -0.077400
     17 C8          0.1960   -1.6320   -4.8950 c3        1 HN7      0.165100
     18 O8         -0.7260   -1.8220   -5.9550 oh        1 HN7     -0.602800
     19 N4          1.6090    0.0180   -3.7440 n3        1 HN7     -0.745600
     20 C3          2.3850    1.2140   -4.0210 c3        1 HN7      0.138800
     21 C2          2.5330    1.2750   -5.5660 c3        1 HN7      0.106100
     22 O2          3.8010    0.8330   -5.9940 oh        1 HN7     -0.597800
     23 C1          1.4130    0.3500   -6.1240 c3        1 HN7      0.103100
     24 O1          1.9420   -0.7490   -6.8400 oh        1 HN7     -0.602800
     25 C8A         0.6770   -0.1690   -4.8670 c3        1 HN7      0.143500
     26 H12         0.1630    0.0370    2.5140 ha        1 HN7      0.144000
     27 H13         1.4520   -0.0830    4.6380 ha        1 HN7      0.139000
     28 H18         2.7160   -1.3930    5.8880 hc        1 HN7      0.038922
     29 H18A        4.1070   -2.1870    5.0380 hc        1 HN7      0.038922
     30 H18B        4.3620   -1.3850    6.6460 hc        1 HN7      0.038922
     31 H19         5.9420    1.0260    4.3010 hc        1 HN7      0.038922
     32 H19A        6.0100   -0.7870    4.1600 hc        1 HN7      0.038922
     33 H19B        6.1570    0.0050    5.7810 hc        1 HN7      0.038922
     34 H20         4.2680    1.1160    6.8360 hc        1 HN7      0.038922
     35 H20A        2.6220    1.1160    6.0780 hc        1 HN7      0.038922
     36 H20B        3.9460    2.1300    5.3670 hc        1 HN7      0.038922
     37 H15         5.1430    0.2370    2.3870 ha        1 HN7      0.139000
     38 H16         3.8660    0.3450    0.2980 ha        1 HN7      0.144000
     39 H9          2.5660   -0.7870   -1.1820 hc        1 HN7      0.074200
     40 H9A         2.4800    1.0110   -1.4170 hc        1 HN7      0.074200
     41 H5          0.0800    0.6260   -2.3710 h1        1 HN7      0.046700
     42 H6         -0.3250   -1.5770   -1.4550 hc        1 HN7      0.054700
     43 H6A         1.1290   -2.2960   -2.2710 hc        1 HN7      0.054700
     44 H7         -1.4930   -1.3060   -3.5750 hc        1 HN7      0.055700
     45 H7A        -0.8240   -2.9840   -3.5370 hc        1 HN7      0.055700
     46 H8          1.0700   -2.3290   -5.0200 h1        1 HN7      0.060700
     47 HO8        -0.2170   -1.7280   -6.7710 ho        1 HN7      0.414000
     48 H3          3.3930    1.1140   -3.5370 h1        1 HN7      0.047700
     49 H3A         1.9010    2.1580   -3.6480 h1        1 HN7      0.047700
     50 H2          2.4450    2.3240   -5.9490 h1        1 HN7      0.085700
     51 HO2         3.9330   -0.0560   -5.6340 ho        1 HN7      0.421000
     52 H1          0.7090    0.9200   -6.7870 h1        1 HN7      0.052700
     53 HO1         2.5680   -0.3890   -7.4840 ho        1 HN7      0.419000
     54 H8A        -0.2460    0.4800   -4.7500 h1        1 HN7      0.044700
@<TRIPOS>BOND
     1    1    2 2   
     2    2    3 1   
     3    2   13 1   
     4    3    4 ar  
     5    3   12 ar  
     6    4    5 ar  
     7    4   26 1   
     8    5    6 ar  
     9    5   27 1   
    10    6    7 1   
    11    6   11 ar  
    12    7    8 1   
    13    7    9 1   
    14    7   10 1   
    15    8   28 1   
    16    8   29 1   
    17    8   30 1   
    18    9   31 1   
    19    9   32 1   
    20    9   33 1   
    21   10   34 1   
    22   10   35 1   
    23   10   36 1   
    24   11   12 ar  
    25   11   37 1   
    26   12   38 1   
    27   13   14 1   
    28   13   39 1   
    29   13   40 1   
    30   14   15 1   
    31   14   19 1   
    32   14   41 1   
    33   15   16 1   
    34   15   42 1   
    35   15   43 1   
    36   16   17 1   
    37   16   44 1   
    38   16   45 1   
    39   17   18 1   
    40   17   25 1   
    41   17   46 1   
    42   18   47 1   
    43   19   20 1   
    44   19   25 1   
    45   20   21 1   
    46   20   48 1   
    47   20   49 1   
    48   21   22 1   
    49   21   23 1   
    50   21   50 1   
    51   22   51 1   
    52   23   24 1   
    53   23   25 1   
    54   23   52 1   
    55   24   53 1   
    56   25   54 1   
@<TRIPOS>SUBSTRUCTURE
     1 HN7         1 TEMP              0 ****  ****    0 ROOT
