@<TRIPOS>MOLECULE
HN7
   54    56     1     0     0
SMALL
bcc


@<TRIPOS>ATOM
      1 O10        -0.0980    0.4830    0.0440 o         1 HN7     -0.537100
      2 C10         1.1210    0.2660    0.0040 c         1 HN7      0.579700
      3 C11         1.9290    0.1930    1.2400 ca        1 HN7     -0.183600
      4 C12         1.2690    0.1000    2.4740 ca        1 HN7     -0.081500
      5 C13         1.9940    0.0260    3.6580 ca        1 HN7     -0.144000
      6 C14         3.3980    0.0470    3.6460 ca        1 HN7     -0.032300
      7 C17         4.1460   -0.0350    4.9500 c3        1 HN7     -0.015700
      8 C18         3.7850   -1.3400    5.6570 c3        1 HN7     -0.087100
      9 C19         5.6570   -0.0010    4.7580 c3        1 HN7     -0.087100
     10 C20         3.7500    1.1440    5.8350 c3        1 HN7     -0.087100
     11 C15         4.0510    0.1460    2.4120 ca        1 HN7     -0.144000
     12 C16         3.3260    0.2170    1.2230 ca        1 HN7     -0.081500
     13 C9          1.8610    0.0740   -1.2920 c3        1 HN7     -0.178400
     14 C5          0.9150   -0.1310   -2.4830 c3        1 HN7      0.198500
     15 C6          0.2780   -1.5350   -2.3870 c3        1 HN7     -0.075400
     16 C7         -0.5790   -1.8930   -3.5830 c3        1 HN7     -0.076400
     17 C8          0.1620   -1.6480   -4.8980 c3        1 HN7      0.164100
     18 O8         -0.7600   -1.8380   -5.9580 oh        1 HN7     -0.601800
     19 N4          1.5990   -0.0040   -3.7660 n3        1 HN7     -0.737600
     20 C3          2.3720    1.1920   -4.0550 c3        1 HN7      0.135800
     21 C2          2.4680    1.2870   -5.6050 c3        1 HN7      0.099100
     22 O2          3.7320    0.8720   -6.0830 oh        1 HN7     -0.588800
     23 C1          1.4150    0.2840   -6.1560 c3        1 HN7      0.155100
     24 O1          1.9680   -0.7800   -6.8880 oh        1 HN7     -0.588800
     25 C8A         0.6650   -0.1930   -4.8860 c3        1 HN7      0.098500
     26 H12         0.1660    0.0910    2.4930 ha        1 HN7      0.143500
     27 H13         1.4560   -0.0490    4.6160 ha        1 HN7      0.139000
     28 H18         2.6900   -1.3830    5.8690 hc        1 HN7      0.038922
     29 H18A        4.0620   -2.2140    5.0220 hc        1 HN7      0.038922
     30 H18B        4.3370   -1.4110    6.6250 hc        1 HN7      0.038922
     31 H19         5.9950   -0.8630    4.1350 hc        1 HN7      0.038922
     32 H19A        5.9700    0.9510    4.2670 hc        1 HN7      0.038922
     33 H19B        6.1630   -0.0670    5.7520 hc        1 HN7      0.038922
     34 H20         4.3020    1.0930    6.8040 hc        1 HN7      0.038922
     35 H20A        2.6550    1.1270    6.0490 hc        1 HN7      0.038922
     36 H20B        4.0020    2.1070    5.3300 hc        1 HN7      0.038922
     37 H15         5.1500    0.1700    2.3580 ha        1 HN7      0.139000
     38 H16         3.8720    0.2970    0.2700 ha        1 HN7      0.143500
     39 H9          2.5470   -0.8080   -1.2000 hc        1 HN7      0.073200
     40 H9A         2.4940    0.9890   -1.4520 hc        1 HN7      0.073200
     41 H5          0.0820    0.6360   -2.3930 h1        1 HN7      0.047700
     42 H6          1.0890   -2.3000   -2.2710 hc        1 HN7      0.054200
     43 H6A        -0.3520   -1.5520   -1.4590 hc        1 HN7      0.054200
     44 H7         -0.8770   -2.9720   -3.5260 hc        1 HN7      0.056700
     45 H7A        -1.5210   -1.2840   -3.5810 hc        1 HN7      0.056700
     46 H8          1.0250   -2.3600   -5.0140 h1        1 HN7      0.050700
     47 HO8        -0.2540   -1.7280   -6.7750 ho        1 HN7      0.416000
     48 H3          1.9080    2.1320   -3.6450 h1        1 HN7      0.041200
     49 H3A         3.3930    1.0730   -3.6020 h1        1 HN7      0.041200
     50 H2          2.2520    2.3310   -5.9490 h1        1 HN7      0.050700
     51 HO2         4.3930    1.4250   -5.6480 ho        1 HN7      0.408000
     52 H1          0.7090    0.7860   -6.8710 h1        1 HN7      0.084700
     53 HO1         2.7440   -1.0990   -6.4070 ho        1 HN7      0.428000
     54 H8A        -0.2490    0.4700   -4.7790 h1        1 HN7      0.045700
@<TRIPOS>BOND
     1    1    2 2   
     2    2    3 1   
     3    2   13 1   
     4    3    4 ar  
     5    3   12 ar  
     6    4    5 ar  
     7    4   26 1   
     8    5    6 ar  
     9    5   27 1   
    10    6    7 1   
    11    6   11 ar  
    12    7    8 1   
    13    7    9 1   
    14    7   10 1   
    15    8   28 1   
    16    8   29 1   
    17    8   30 1   
    18    9   31 1   
    19    9   32 1   
    20    9   33 1   
    21   10   34 1   
    22   10   35 1   
    23   10   36 1   
    24   11   12 ar  
    25   11   37 1   
    26   12   38 1   
    27   13   14 1   
    28   13   39 1   
    29   13   40 1   
    30   14   15 1   
    31   14   19 1   
    32   14   41 1   
    33   15   16 1   
    34   15   42 1   
    35   15   43 1   
    36   16   17 1   
    37   16   44 1   
    38   16   45 1   
    39   17   18 1   
    40   17   25 1   
    41   17   46 1   
    42   18   47 1   
    43   19   20 1   
    44   19   25 1   
    45   20   21 1   
    46   20   48 1   
    47   20   49 1   
    48   21   22 1   
    49   21   23 1   
    50   21   50 1   
    51   22   51 1   
    52   23   24 1   
    53   23   25 1   
    54   23   52 1   
    55   24   53 1   
    56   25   54 1   
@<TRIPOS>SUBSTRUCTURE
     1 HN7         1 TEMP              0 ****  ****    0 ROOT
