@<TRIPOS>MOLECULE
HNA
   28    30     1     0     0
SMALL
bcc


@<TRIPOS>ATOM
      1 C1         -1.0120    2.4210    0.0730 ca        1 HNA      0.234100
      2 C2         -0.2850    1.2340   -0.1570 ca        1 HNA     -0.241600
      3 C3         -0.9760    0.0050   -0.1720 ca        1 HNA     -0.016600
      4 C4         -2.3360   -0.0350    0.1530 ca        1 HNA     -0.181200
      5 C5         -3.0540    1.1570    0.4000 ca        1 HNA     -0.026000
      6 C6         -2.4020    2.3700    0.3510 ca        1 HNA     -0.168000
      7 C13        -0.2330   -1.2120   -0.6000 c         1 HNA      0.577300
      8 C14         1.1960   -1.2370   -0.2250 ca        1 HNA     -0.088600
      9 C15         1.9010   -0.0160   -0.1310 ca        1 HNA     -0.236600
     10 C16         1.1810    1.2480   -0.3320 c         1 HNA      0.624300
     11 C22         3.2770   -0.0660    0.1570 ca        1 HNA      0.205100
     12 C23         3.9160   -1.3100    0.3980 ca        1 HNA     -0.153000
     13 C24         3.1920   -2.4830    0.3160 ca        1 HNA     -0.072000
     14 C25         1.8270   -2.4540   -0.0110 ca        1 HNA     -0.113000
     15 O16         1.7850    2.3080   -0.5890 o         1 HNA     -0.596100
     16 O13        -0.7620   -2.1030   -1.2680 o         1 HNA     -0.466100
     17 O1         -0.5010    3.6810    0.0730 oh        1 HNA     -0.486100
     18 O22         4.1070    1.0120    0.2550 oh        1 HNA     -0.493100
     19 N4         -3.0750   -1.3240    0.2760 no        1 HNA      0.323200
     20 O4B        -4.2450   -1.3360    0.0050 o         1 HNA     -0.194000
     21 O4A        -2.4950   -2.2910    0.6850 o         1 HNA     -0.194000
     22 HC5        -4.1360    1.1120    0.6210 ha        1 HNA      0.179000
     23 HC6        -2.9390    3.3150    0.5260 ha        1 HNA      0.174000
     24 HC23        4.9890   -1.3090    0.6400 ha        1 HNA      0.163000
     25 HC24        3.6850   -3.4510    0.4980 ha        1 HNA      0.150000
     26 HC25        1.2550   -3.3920   -0.1050 ha        1 HNA      0.167000
     27 HO1         0.4380    3.6820   -0.1830 ho        1 HNA      0.470000
     28 HO22        3.6410    1.8250   -0.0010 ho        1 HNA      0.458000
@<TRIPOS>BOND
     1    1    2 ar  
     2    1    6 ar  
     3    1   17 1   
     4    2    3 ar  
     5    2   10 1   
     6    3    4 ar  
     7    3    7 1   
     8    4    5 ar  
     9    4   19 1   
    10    5    6 ar  
    11    5   22 1   
    12    6   23 1   
    13    7    8 1   
    14    7   16 2   
    15    8    9 ar  
    16    8   14 ar  
    17    9   10 1   
    18    9   11 ar  
    19   10   15 2   
    20   11   12 ar  
    21   11   18 1   
    22   12   13 ar  
    23   12   24 1   
    24   13   14 ar  
    25   13   25 1   
    26   14   26 1   
    27   17   27 1   
    28   18   28 1   
    29   19   20 1   
    30   19   21 1   
@<TRIPOS>SUBSTRUCTURE
     1 HNA         1 TEMP              0 ****  ****    0 ROOT
