@<TRIPOS>MOLECULE
HNA
   28    30     1     0     0
SMALL
bcc


@<TRIPOS>ATOM
      1 C1          0.0540   -0.1460   -0.0160 ca        1 HNA      0.204100
      2 C2          1.4600   -0.2660   -0.0150 ca        1 HNA     -0.171600
      3 C3          2.1530   -0.1970    1.2030 ca        1 HNA     -0.033600
      4 C4          1.4450    0.0400    2.3930 ca        1 HNA     -0.178200
      5 C5          0.0400    0.1310    2.3860 ca        1 HNA     -0.024000
      6 C6         -0.6500    0.0370    1.1890 ca        1 HNA     -0.220000
      7 C13         3.6270   -0.4180    1.1790 c         1 HNA      0.582300
      8 C14         4.2980    0.0860   -0.0400 ca        1 HNA     -0.098600
      9 C15         3.5880    0.0800   -1.2540 ca        1 HNA     -0.166600
     10 C16         2.2090   -0.4490   -1.2860 c         1 HNA      0.599300
     11 C22         4.2310    0.5660   -2.4080 ca        1 HNA      0.173100
     12 C23         5.5570    1.0360   -2.3430 ca        1 HNA     -0.201000
     13 C24         6.2380    1.0170   -1.1350 ca        1 HNA     -0.075000
     14 C25         5.6140    0.5390    0.0220 ca        1 HNA     -0.114000
     15 O16         1.7160   -1.0070   -2.2670 o         1 HNA     -0.463100
     16 O13         4.2230   -1.0110    2.0790 o         1 HNA     -0.467100
     17 O1         -0.5770   -0.1980   -1.2250 oh        1 HNA     -0.451100
     18 O22         3.5090    0.5820   -3.5730 oh        1 HNA     -0.467100
     19 N4          2.1480    0.2300    3.6930 no        1 HNA      0.322200
     20 O4B         1.5930   -0.1300    4.6960 o         1 HNA     -0.195500
     21 O4A         3.2160    0.7730    3.7060 o         1 HNA     -0.195500
     22 HC5        -0.5080    0.2760    3.3340 ha        1 HNA      0.175000
     23 HC6        -1.7480    0.1080    1.1780 ha        1 HNA      0.155000
     24 HC23        6.0450    1.4130   -3.2540 ha        1 HNA      0.143000
     25 HC24        7.2770    1.3790   -1.0830 ha        1 HNA      0.146000
     26 HC25        6.1540    0.5140    0.9830 ha        1 HNA      0.164000
     27 HO1        -1.5350   -0.1390   -1.0750 ho        1 HNA      0.431000
     28 HO22        4.0930    0.8850   -4.2850 ho        1 HNA      0.425000
@<TRIPOS>BOND
     1    1    2 ar  
     2    1    6 ar  
     3    1   17 1   
     4    2    3 ar  
     5    2   10 1   
     6    3    4 ar  
     7    3    7 1   
     8    4    5 ar  
     9    4   19 1   
    10    5    6 ar  
    11    5   22 1   
    12    6   23 1   
    13    7    8 1   
    14    7   16 2   
    15    8    9 ar  
    16    8   14 ar  
    17    9   10 1   
    18    9   11 ar  
    19   10   15 2   
    20   11   12 ar  
    21   11   18 1   
    22   12   13 ar  
    23   12   24 1   
    24   13   14 ar  
    25   13   25 1   
    26   14   26 1   
    27   17   27 1   
    28   18   28 1   
    29   19   20 1   
    30   19   21 1   
@<TRIPOS>SUBSTRUCTURE
     1 HNA         1 TEMP              0 ****  ****    0 ROOT
