@<TRIPOS>MOLECULE
HNA
   28    25     1     0     0
SMALL
bcc


@<TRIPOS>ATOM
      1 C1         -2.7090    0.0480   -0.0220 c1        1 HNA      0.159000
      2 C2         -1.3070   -0.0050   -0.0330 c1        1 HNA     -0.151000
      3 C3         -0.6090   -0.0410    1.1580 c1        1 HNA     -0.013000
      4 C4         -1.3030   -0.0230    2.3770 c1        1 HNA     -0.133000
      5 C5         -2.6900    0.0300    2.3860 c1        1 HNA     -0.024000
      6 C6         -3.3940    0.0660    1.1860 c1        1 HNA     -0.220000
      7 C13         0.9230   -0.0870    1.1460 c2        1 HNA      0.302000
      8 C14         1.6800   -0.0930   -0.1870 c2        1 HNA     -0.078000
      9 C15         0.9810   -0.0630   -1.3770 c2        1 HNA     -0.146000
     10 C16        -0.5510   -0.0580   -1.3650 c2        1 HNA      0.319000
     11 C22         1.6740   -0.0520   -2.5960 c1        1 HNA      0.128000
     12 C23         3.0630   -0.0710   -2.6070 c1        1 HNA     -0.138000
     13 C24         3.7680   -0.1010   -1.4070 c1        1 HNA     -0.138000
     14 C25         3.0830   -0.1120   -0.1980 c1        1 HNA     -0.114000
     15 O16        -1.1670   -0.1310   -2.4100 o         1 HNA     -0.224000
     16 O13         1.5380   -0.1130    2.1940 o         1 HNA     -0.228000
     17 O1         -3.3560   -0.0110   -1.2700 oh        1 HNA     -0.205000
     18 O22         1.0470    0.1630   -3.8370 oh        1 HNA     -0.221000
     19 N4         -0.8110    0.3010    3.6680 no        1 HNA      0.577000
     20 O4B        -1.1740   -0.4530    4.7460 o         1 HNA     -0.345500
     21 O4A        -0.0630    1.2580    3.8140 o         1 HNA     -0.345500
     22 HC5        -3.1730    0.0420    3.2350 ha        1 HNA      0.175000
     23 HC6        -4.3700    0.1030    1.1930 ha        1 HNA      0.155000
     24 HC23        3.5450   -0.0630   -3.4550 ha        1 HNA      0.144500
     25 HC24        4.7440   -0.1140   -1.4140 ha        1 HNA      0.144500
     26 HC25        3.5770   -0.1330    0.6430 ha        1 HNA      0.164000
     27 HO1        -4.2120    0.2070   -1.1700 ho        1 HNA      0.230000
     28 HO22        1.2640   -0.4930   -4.3960 ho        1 HNA      0.224000
@<TRIPOS>BOND
     1    1    6 1   
     2    1   17 1   
     3    2    3 1   
     4    2   10 1   
     5    3    7 1   
     6    4    5 1   
     7    4   19 1   
     8    5   22 1   
     9    6   23 1   
    10    7    8 1   
    11    7   16 1   
    12    8    9 1   
    13    8   14 1   
    14    9   10 1   
    15    9   11 1   
    16   10   15 1   
    17   11   18 1   
    18   12   13 1   
    19   12   24 1   
    20   13   25 1   
    21   14   26 1   
    22   17   27 1   
    23   18   28 1   
    24   19   20 1   
    25   19   21 1   
@<TRIPOS>SUBSTRUCTURE
     1 HNA         1 TEMP              0 ****  ****    0 ROOT
