@<TRIPOS>MOLECULE
HNA
   28    30     1     0     0
SMALL
bcc


@<TRIPOS>ATOM
      1 C1          0.0570   -0.1670   -0.0190 ca        1 HNA      0.204100
      2 C2          1.4640   -0.2770   -0.0130 ca        1 HNA     -0.171600
      3 C3          2.1530   -0.1900    1.2060 ca        1 HNA     -0.033600
      4 C4          1.4400    0.0540    2.3910 ca        1 HNA     -0.178200
      5 C5          0.0340    0.1340    2.3800 ca        1 HNA     -0.024000
      6 C6         -0.6520    0.0230    1.1820 ca        1 HNA     -0.220000
      7 C13         3.6290   -0.4000    1.1880 c         1 HNA      0.582300
      8 C14         4.2990    0.0970   -0.0350 ca        1 HNA     -0.098600
      9 C15         3.5930    0.0730   -1.2510 ca        1 HNA     -0.166600
     10 C16         2.2180   -0.4670   -1.2800 c         1 HNA      0.599300
     11 C22         4.2350    0.5510   -2.4070 ca        1 HNA      0.173100
     12 C23         5.5570    1.0330   -2.3440 ca        1 HNA     -0.201000
     13 C24         6.2350    1.0310   -1.1330 ca        1 HNA     -0.075000
     14 C25         5.6120    0.5600    0.0270 ca        1 HNA     -0.114000
     15 O16         1.7320   -1.0380   -2.2570 o         1 HNA     -0.463100
     16 O13         4.2270   -0.9790    2.0950 o         1 HNA     -0.467100
     17 O1         -0.5700   -0.2360   -1.2290 oh        1 HNA     -0.451100
     18 O22         3.5170    0.5500   -3.5740 oh        1 HNA     -0.467100
     19 N4          2.1380    0.2620    3.6910 no        1 HNA      0.322200
     20 O4B         1.5830   -0.0910    4.6970 o         1 HNA     -0.195500
     21 O4A         3.2020    0.8140    3.7010 o         1 HNA     -0.195500
     22 HC5        -0.5170    0.2850    3.3250 ha        1 HNA      0.175000
     23 HC6        -1.7510    0.0860    1.1670 ha        1 HNA      0.155000
     24 HC23        6.0450    1.4040   -3.2570 ha        1 HNA      0.143000
     25 HC24        7.2710    1.4010   -1.0830 ha        1 HNA      0.146000
     26 HC25        6.1490    0.5490    0.9890 ha        1 HNA      0.164000
     27 HO1        -1.5290   -0.1830   -1.0830 ho        1 HNA      0.431000
     28 HO22        4.1000    0.8510   -4.2880 ho        1 HNA      0.425000
@<TRIPOS>BOND
     1    1    2 ar  
     2    1    6 ar  
     3    1   17 1   
     4    2    3 ar  
     5    2   10 1   
     6    3    4 ar  
     7    3    7 1   
     8    4    5 ar  
     9    4   19 1   
    10    5    6 ar  
    11    5   22 1   
    12    6   23 1   
    13    7    8 1   
    14    7   16 2   
    15    8    9 ar  
    16    8   14 ar  
    17    9   10 1   
    18    9   11 ar  
    19   10   15 2   
    20   11   12 ar  
    21   11   18 1   
    22   12   13 ar  
    23   12   24 1   
    24   13   14 ar  
    25   13   25 1   
    26   14   26 1   
    27   17   27 1   
    28   18   28 1   
    29   19   20 1   
    30   19   21 1   
@<TRIPOS>SUBSTRUCTURE
     1 HNA         1 TEMP              0 ****  ****    0 ROOT
