@<TRIPOS>MOLECULE
HNB
   29    29     1     0     0
SMALL
bcc


@<TRIPOS>ATOM
      1 C1         -0.0090    0.1440    0.0820 c3        1 HNB      0.332900
      2 C2          1.5180    0.2740    0.0890 c3        1 HNB     -0.101400
      3 C3          1.9600   -0.2760    1.4380 c3        1 HNB     -0.105400
      4 C4          0.6860   -0.7650    2.1390 c3        1 HNB      0.144100
      5 C5          0.5350   -0.2010    3.5430 c3        1 HNB     -0.083400
      6 C6         -0.6310   -0.8330    4.2700 c3        1 HNB     -0.078400
      7 C7         -0.8050   -0.2360    5.6500 c3        1 HNB     -0.078400
      8 C8         -1.9640   -0.8760    6.3840 c3        1 HNB     -0.080400
      9 C9         -2.1450   -0.2830    7.7570 c3        1 HNB     -0.092100
     10 O4         -0.4410   -0.3360    1.3490 os        1 HNB     -0.457600
     11 O1         -0.3870   -0.8530   -0.8390 oh        1 HNB     -0.626800
     12 H3          2.4660    0.5160    2.0430 hc        1 HNB      0.054700
     13 H4          0.6470   -1.8890    2.1630 h1        1 HNB      0.054700
     14 H1         -0.5570    1.1030   -0.1210 h2        1 HNB      0.063700
     15 HO1        -1.2450   -1.1980   -0.5600 ho        1 HNB      0.423000
     16 H12         1.9550   -0.3120   -0.7570 hc        1 HNB      0.066700
     17 H22         1.8130    1.3440   -0.0330 hc        1 HNB      0.066700
     18 H15         1.4860   -0.3920    4.1050 hc        1 HNB      0.047700
     19 H25         0.3860    0.9090    3.4840 hc        1 HNB      0.047700
     20 H16        -1.5660   -0.6810    3.6670 hc        1 HNB      0.047200
     21 H26        -0.4680   -1.9400    4.3560 hc        1 HNB      0.047200
     22 H17         0.1370   -0.3750    6.2430 hc        1 HNB      0.038200
     23 H27        -0.9810    0.8690    5.5630 hc        1 HNB      0.038200
     24 H18        -1.7870   -1.9810    6.4710 hc        1 HNB      0.039700
     25 H28        -2.9050   -0.7390    5.7870 hc        1 HNB      0.039700
     26 H19        -1.2270   -0.4310    8.3750 hc        1 HNB      0.032367
     27 H29        -2.3480    0.8130    7.6900 hc        1 HNB      0.032367
     28 H39        -3.0040   -0.7690    8.2800 hc        1 HNB      0.032367
     29 H3A         2.6800   -1.1210    1.3120 hc        1 HNB      0.054700
@<TRIPOS>BOND
     1    1    2 1   
     2    1   10 1   
     3    1   11 1   
     4    1   14 1   
     5    2    3 1   
     6    2   16 1   
     7    2   17 1   
     8    3    4 1   
     9    3   12 1   
    10    3   29 1   
    11    4    5 1   
    12    4   10 1   
    13    4   13 1   
    14    5    6 1   
    15    5   18 1   
    16    5   19 1   
    17    6    7 1   
    18    6   20 1   
    19    6   21 1   
    20    7    8 1   
    21    7   22 1   
    22    7   23 1   
    23    8    9 1   
    24    8   24 1   
    25    8   25 1   
    26    9   26 1   
    27    9   27 1   
    28    9   28 1   
    29   11   15 1   
@<TRIPOS>SUBSTRUCTURE
     1 HNB         1 TEMP              0 ****  ****    0 ROOT
