@<TRIPOS>MOLECULE
HNB
   29    29     1     0     0
SMALL
bcc


@<TRIPOS>ATOM
      1 C1         -0.3550    0.7950   -3.4880 c3        1 HNB      0.332900
      2 C2          1.1750    0.7950   -3.4880 c3        1 HNB     -0.101400
      3 C3          1.5110    0.7950   -2.2360 c3        1 HNB     -0.105400
      4 C4          0.2970    0.0940   -1.4450 c3        1 HNB      0.144100
      5 C5          0.2990    0.5350    0.0120 c3        1 HNB     -0.083400
      6 C6         -0.2840   -0.5660    0.8730 c3        1 HNB     -0.078400
      7 C7         -0.2250   -0.1530    2.3270 c3        1 HNB     -0.078400
      8 C8         -0.8220   -1.2460    3.1870 c3        1 HNB     -0.080400
      9 C9         -0.7580   -0.8360    4.6420 c3        1 HNB     -0.092100
     10 O4         -0.7780    0.4820   -2.0190 os        1 HNB     -0.457600
     11 O1         -0.8020   -0.1140   -4.2870 oh        1 HNB     -0.626800
     12 H3          2.3330    0.2850   -2.1090 hc        1 HNB      0.054700
     13 H4          0.3760   -0.8770   -1.5020 h1        1 HNB      0.054700
     14 H1         -0.6910    1.6720   -3.7540 h2        1 HNB      0.063700
     15 HO1        -1.6000    0.1270   -4.5920 ho        1 HNB      0.423000
     16 H12         1.5140    1.5970   -3.9300 hc        1 HNB      0.066700
     17 H22         1.5140   -0.0060   -3.9300 hc        1 HNB      0.066700
     18 H15         1.2150    0.7180    0.2950 hc        1 HNB      0.047700
     19 H25        -0.2400    1.3430    0.1080 hc        1 HNB      0.047700
     20 H16        -1.2130   -0.7220    0.6170 hc        1 HNB      0.047200
     21 H26         0.2300   -1.3860    0.7460 hc        1 HNB      0.047200
     22 H17         0.7050   -0.0070    2.5860 hc        1 HNB      0.038200
     23 H27        -0.7310    0.6720    2.4520 hc        1 HNB      0.038200
     24 H18        -1.7530   -1.3900    2.9300 hc        1 HNB      0.039700
     25 H28        -0.3180   -2.0730    3.0590 hc        1 HNB      0.039700
     26 H19        -1.2610   -0.0090    4.7690 hc        1 HNB      0.032367
     27 H29         0.1730   -0.6930    4.8990 hc        1 HNB      0.032367
     28 H39        -1.1440   -1.5400    5.1960 hc        1 HNB      0.032367
     29 H3A         1.6320    1.7110   -1.9210 hc        1 HNB      0.054700
@<TRIPOS>BOND
     1    1    2 1   
     2    1   10 1   
     3    1   11 1   
     4    1   14 1   
     5    2    3 1   
     6    2   16 1   
     7    2   17 1   
     8    3    4 1   
     9    3   12 1   
    10    3   29 1   
    11    4    5 1   
    12    4   10 1   
    13    4   13 1   
    14    5    6 1   
    15    5   18 1   
    16    5   19 1   
    17    6    7 1   
    18    6   20 1   
    19    6   21 1   
    20    7    8 1   
    21    7   22 1   
    22    7   23 1   
    23    8    9 1   
    24    8   24 1   
    25    8   25 1   
    26    9   26 1   
    27    9   27 1   
    28    9   28 1   
    29   11   15 1   
@<TRIPOS>SUBSTRUCTURE
     1 HNB         1 TEMP              0 ****  ****    0 ROOT
