@<TRIPOS>MOLECULE
HNB
   29    29     1     0     0
SMALL
bcc


@<TRIPOS>ATOM
      1 C1          0.0050    0.1300    0.0810 c3        1 HNB      0.332900
      2 C2          1.5340    0.2300    0.0890 c3        1 HNB     -0.101400
      3 C3          1.9630   -0.3240    1.4400 c3        1 HNB     -0.105400
      4 C4          0.6790   -0.7860    2.1410 c3        1 HNB      0.144100
      5 C5          0.5380   -0.2150    3.5430 c3        1 HNB     -0.083400
      6 C6         -0.6420   -0.8220    4.2710 c3        1 HNB     -0.078400
      7 C7         -0.8050   -0.2180    5.6490 c3        1 HNB     -0.078400
      8 C8         -1.9780   -0.8330    6.3830 c3        1 HNB     -0.080400
      9 C9         -2.1490   -0.2330    7.7550 c3        1 HNB     -0.092100
     10 O4         -0.4380   -0.3380    1.3480 os        1 HNB     -0.457600
     11 O1         -0.3910   -0.8640   -0.8380 oh        1 HNB     -0.626800
     12 H3          2.4840    0.4600    2.0440 hc        1 HNB      0.054700
     13 H4          0.6190   -1.9090    2.1680 h1        1 HNB      0.054700
     14 H1         -0.5250    1.0980   -0.1270 h2        1 HNB      0.063700
     15 HO1        -1.2560   -1.1900   -0.5590 ho        1 HNB      0.423000
     16 H12         1.8500    1.2930   -0.0360 hc        1 HNB      0.066700
     17 H22         1.9610   -0.3670   -0.7540 hc        1 HNB      0.066700
     18 H15         1.4840   -0.4230    4.1080 hc        1 HNB      0.047700
     19 H25         0.4110    0.8970    3.4810 hc        1 HNB      0.047700
     20 H16        -0.5000   -1.9310    4.3600 hc        1 HNB      0.047200
     21 H26        -1.5720   -0.6530    3.6670 hc        1 HNB      0.047200
     22 H17        -0.9580    0.8900    5.5590 hc        1 HNB      0.038200
     23 H27         0.1330   -0.3750    6.2440 hc        1 HNB      0.038200
     24 H18        -2.9150   -0.6770    5.7840 hc        1 HNB      0.039700
     25 H28        -1.8240   -1.9400    6.4720 hc        1 HNB      0.039700
     26 H19        -1.2340   -0.3990    8.3740 hc        1 HNB      0.032367
     27 H29        -3.0180   -0.7000    8.2770 hc        1 HNB      0.032367
     28 H39        -2.3290    0.8670    7.6850 hc        1 HNB      0.032367
     29 H3A         2.6670   -1.1830    1.3180 hc        1 HNB      0.054700
@<TRIPOS>BOND
     1    1    2 1   
     2    1   10 1   
     3    1   11 1   
     4    1   14 1   
     5    2    3 1   
     6    2   16 1   
     7    2   17 1   
     8    3    4 1   
     9    3   12 1   
    10    3   29 1   
    11    4    5 1   
    12    4   10 1   
    13    4   13 1   
    14    5    6 1   
    15    5   18 1   
    16    5   19 1   
    17    6    7 1   
    18    6   20 1   
    19    6   21 1   
    20    7    8 1   
    21    7   22 1   
    22    7   23 1   
    23    8    9 1   
    24    8   24 1   
    25    8   25 1   
    26    9   26 1   
    27    9   27 1   
    28    9   28 1   
    29   11   15 1   
@<TRIPOS>SUBSTRUCTURE
     1 HNB         1 TEMP              0 ****  ****    0 ROOT
