@<TRIPOS>MOLECULE
HNB
   29    29     1     0     0
SMALL
bcc


@<TRIPOS>ATOM
      1 C1         -2.7280    0.5880   -0.6090 c3        1 HNB      0.332900
      2 C2         -3.2170   -0.8310   -0.2970 c3        1 HNB     -0.101400
      3 C3         -2.0610   -1.4980    0.4350 c3        1 HNB     -0.105400
      4 C4         -0.9710   -0.4290    0.5800 c3        1 HNB      0.144100
      5 C5          0.3850   -0.9020    0.0810 c3        1 HNB     -0.083400
      6 C6          1.4720    0.1030    0.3950 c3        1 HNB     -0.078400
      7 C7          2.8110   -0.3500   -0.1440 c3        1 HNB     -0.078400
      8 C8          3.9010    0.6490    0.1800 c3        1 HNB     -0.080400
      9 C9          5.2370    0.2050   -0.3570 c3        1 HNB     -0.092100
     10 O4         -1.3730    0.7160   -0.1980 os        1 HNB     -0.457600
     11 O1         -3.4420    1.5110    0.1820 oh        1 HNB     -0.626800
     12 H3         -2.3800   -1.8640    1.4410 hc        1 HNB      0.054700
     13 H4         -0.8940   -0.0770    1.6450 h1        1 HNB      0.054700
     14 H1         -2.7810    0.8710   -1.6950 h2        1 HNB      0.063700
     15 HO1        -2.8890    2.2960    0.2830 ho        1 HNB      0.423000
     16 H12        -4.1360   -0.7870    0.3380 hc        1 HNB      0.066700
     17 H22        -3.4660   -1.3670   -1.2430 hc        1 HNB      0.066700
     18 H15         0.6200   -1.8840    0.5680 hc        1 HNB      0.047700
     19 H25         0.3360   -1.0700   -1.0270 hc        1 HNB      0.047700
     20 H16         1.1950    1.0950   -0.0530 hc        1 HNB      0.047200
     21 H26         1.5420    0.2480    1.5050 hc        1 HNB      0.047200
     22 H17         3.0750   -1.3490    0.2930 hc        1 HNB      0.038200
     23 H27         2.7440   -0.4840   -1.2560 hc        1 HNB      0.038200
     24 H18         3.6320    1.6480   -0.2550 hc        1 HNB      0.039700
     25 H28         3.9670    0.7810    1.2930 hc        1 HNB      0.039700
     26 H19         6.0250    0.9550   -0.1070 hc        1 HNB      0.032367
     27 H29         5.5320   -0.7780    0.0830 hc        1 HNB      0.032367
     28 H39         5.1970    0.0920   -1.4680 hc        1 HNB      0.032367
     29 H3A        -1.6800   -2.3770   -0.1430 hc        1 HNB      0.054700
@<TRIPOS>BOND
     1    1    2 1   
     2    1   10 1   
     3    1   11 1   
     4    1   14 1   
     5    2    3 1   
     6    2   16 1   
     7    2   17 1   
     8    3    4 1   
     9    3   12 1   
    10    3   29 1   
    11    4    5 1   
    12    4   10 1   
    13    4   13 1   
    14    5    6 1   
    15    5   18 1   
    16    5   19 1   
    17    6    7 1   
    18    6   20 1   
    19    6   21 1   
    20    7    8 1   
    21    7   22 1   
    22    7   23 1   
    23    8    9 1   
    24    8   24 1   
    25    8   25 1   
    26    9   26 1   
    27    9   27 1   
    28    9   28 1   
    29   11   15 1   
@<TRIPOS>SUBSTRUCTURE
     1 HNB         1 TEMP              0 ****  ****    0 ROOT
