@<TRIPOS>MOLECULE
HNC
   40    39     1     0     0
SMALL
bcc


@<TRIPOS>ATOM
      1 C           1.7510    1.3910   -1.1470 c         1 HNC      0.884600
      2 N           4.0130    0.9840   -0.0840 n3        1 HNC     -0.882800
      3 O           2.2010    2.4950   -1.5530 o         1 HNC     -0.839300
      4 CA          2.6200    0.5550   -0.1470 c3        1 HNC      0.018500
      5 CB          1.9460    0.5730    1.2240 c3        1 HNC      0.038700
      6 SG          1.2790   -0.9930    1.7470 ss        1 HNC     -0.378200
      7 CAA        -6.1490    2.6360   -1.4260 c3        1 HNC     -0.090100
      8 OAC         1.0550   -4.5520   -0.5350 o         1 HNC     -0.573100
      9 OAE        -2.1760   -1.5000    1.8740 oh        1 HNC     -0.605800
     10 CAH        -5.3400    2.1100   -0.2680 c3        1 HNC     -0.079400
     11 CAI        -4.1510    1.3010   -0.7410 c3        1 HNC     -0.080400
     12 CAK        -0.2150   -2.7450    0.3920 c3        1 HNC     -0.179400
     13 CAL        -2.1440   -0.0130   -0.0550 c3        1 HNC     -0.131400
     14 CAP        -1.3670   -0.6110    1.1160 c3        1 HNC      0.153100
     15 CAQ        -0.0750   -1.2600    0.6110 c3        1 HNC     -0.042600
     16 OXT         0.6400    0.8990   -1.5040 o         1 HNC     -0.839300
     17 HN          4.3740    0.9670   -1.0220 hn        1 HNC      0.334300
     18 HNA         4.0300    1.9470    0.2060 hn        1 HNC      0.334300
     19 HA          2.6250   -0.5080   -0.5290 h1        1 HNC      0.049700
     20 HB          2.6620    0.8280    2.0450 h1        1 HNC      0.068700
     21 HBA         1.1230    1.3290    1.2210 h1        1 HNC      0.068700
     22 HAA        -5.5210    3.2910   -2.0780 hc        1 HNC      0.027367
     23 HAAA       -6.5390    1.7950   -2.0480 hc        1 HNC      0.027367
     24 HAAB       -7.0170    3.2330   -1.0560 hc        1 HNC      0.027367
     25 HOAE       -2.5410   -2.1490    1.2610 ho        1 HNC      0.385000
     26 HAF         1.7680   -2.6280   -0.6140 h4        1 HNC      0.027200
     27 HAH        -4.9810    2.9680    0.3600 hc        1 HNC      0.033700
     28 HAHA       -5.9900    1.4720    0.3870 hc        1 HNC      0.033700
     29 HAI        -4.5080    0.4470   -1.3750 hc        1 HNC      0.044200
     30 HAIA       -3.4930    1.9400   -1.3890 hc        1 HNC      0.044200
     31 HAJ        -3.0030    1.6250    1.0650 hc        1 HNC      0.036200
     32 HAJA       -3.9900    0.1130    1.0680 hc        1 HNC      0.036200
     33 HAK        -1.1280   -2.9450   -0.2350 hc        1 HNC      0.068700
     34 HAKA       -0.3660   -3.2700    1.3750 hc        1 HNC      0.068700
     35 HAL        -2.4750   -0.8380   -0.7380 hc        1 HNC      0.075700
     36 HALA       -1.4510    0.6550   -0.6430 hc        1 HNC      0.075700
     37 HAP        -1.1050    0.2000    1.8570 h1        1 HNC      0.084700
     38 HAQ         0.2120   -0.7480   -0.3610 h1        1 HNC      0.160700
     39 CAF         0.9690   -3.3410   -0.3080 c         1 HNC      0.583900
     40 CAJ        -3.3460    0.7700    0.4240 c3        1 HNC     -0.072400
@<TRIPOS>BOND
     1    1    3 1   
     2    1    4 1   
     3    1   16 1   
     4    2    4 1   
     5    2   17 1   
     6    2   18 1   
     7    4    5 1   
     8    4   19 1   
     9    5    6 1   
    10    5   20 1   
    11    5   21 1   
    12    6   15 1   
    13    7   10 1   
    14    7   22 1   
    15    7   23 1   
    16    7   24 1   
    17    8   39 2   
    18    9   14 1   
    19    9   25 1   
    20   10   11 1   
    21   10   27 1   
    22   10   28 1   
    23   11   29 1   
    24   11   30 1   
    25   11   40 1   
    26   12   15 1   
    27   12   33 1   
    28   12   34 1   
    29   12   39 1   
    30   13   14 1   
    31   13   35 1   
    32   13   36 1   
    33   13   40 1   
    34   14   15 1   
    35   14   37 1   
    36   15   38 1   
    37   26   39 1   
    38   31   40 1   
    39   32   40 1   
@<TRIPOS>SUBSTRUCTURE
     1 HNC         1 TEMP              0 ****  ****    0 ROOT
