@<TRIPOS>MOLECULE
HND
   31    30     1     0     0
SMALL
bcc


@<TRIPOS>ATOM
      1 C1         -4.0480    0.4400   -2.2750 c3        1 HND      0.132400
      2 C2         -2.5350    0.4400   -2.2750 c3        1 HND     -0.083400
      3 C3         -2.0300    0.4400   -0.8480 c3        1 HND     -0.074400
      4 C4         -0.5190    0.4420   -0.8480 c3        1 HND      0.142100
      5 C5         -0.0140    0.1440    0.5450 c3        1 HND     -0.119400
      6 C6          1.4630   -0.1760    0.4890 c3        1 HND     -0.081400
      7 C7          1.9690   -0.4720    1.8840 c3        1 HND     -0.078400
      8 C8          3.4470   -0.7870    1.8290 c3        1 HND     -0.080400
      9 C9          3.9520   -1.0830    3.2240 c3        1 HND     -0.093100
     10 O10        -0.0510    1.7060   -1.2560 oh        1 HND     -0.600800
     11 O11        -4.5180    0.4680   -3.6040 oh        1 HND     -0.600800
     12 H2         -2.2090    1.2370   -2.7350 hc        1 HND      0.062200
     13 H3         -2.3570    1.2370   -0.3880 hc        1 HND      0.048700
     14 H4         -0.1920   -0.2400   -1.4650 h1        1 HND      0.034700
     15 H5         -0.5000   -0.6200    0.9110 hc        1 HND      0.053700
     16 H5A        -0.1570    0.9230    1.1160 hc        1 HND      0.053700
     17 HO10        0.4470    1.6160   -1.9860 ho        1 HND      0.400000
     18 H6          1.6050   -0.9560   -0.0800 hc        1 HND      0.038200
     19 H6A         1.9480    0.5870    0.1220 hc        1 HND      0.038200
     20 H7          1.8230    0.3070    2.4550 hc        1 HND      0.041700
     21 H7A         1.4860   -1.2370    2.2500 hc        1 HND      0.041700
     22 H8          3.5920   -1.5660    1.2580 hc        1 HND      0.038700
     23 H8A         3.9300   -0.0210    1.4640 hc        1 HND      0.038700
     24 H9          4.9060   -1.2870    3.1880 hc        1 HND      0.033367
     25 H9A         3.8070   -0.3050    3.7950 hc        1 HND      0.033367
     26 H9B         3.4700   -1.8490    3.5890 hc        1 HND      0.033367
     27 H1         -4.3730   -0.3660   -1.8310 h1        1 HND      0.018700
     28 HO11       -5.4050    0.4640   -3.6040 ho        1 HND      0.398000
     29 H2A        -2.2090   -0.3570   -2.7350 hc        1 HND      0.062200
     30 H1A        -4.3730    1.2280   -1.7980 h1        1 HND      0.018700
     31 H3A        -2.3550   -0.3570   -0.3890 hc        1 HND      0.048700
@<TRIPOS>BOND
     1    1    2 1   
     2    1   11 1   
     3    1   27 1   
     4    1   30 1   
     5    2    3 1   
     6    2   12 1   
     7    2   29 1   
     8    3    4 1   
     9    3   13 1   
    10    3   31 1   
    11    4    5 1   
    12    4   10 1   
    13    4   14 1   
    14    5    6 1   
    15    5   15 1   
    16    5   16 1   
    17    6    7 1   
    18    6   18 1   
    19    6   19 1   
    20    7    8 1   
    21    7   20 1   
    22    7   21 1   
    23    8    9 1   
    24    8   22 1   
    25    8   23 1   
    26    9   24 1   
    27    9   25 1   
    28    9   26 1   
    29   10   17 1   
    30   11   28 1   
@<TRIPOS>SUBSTRUCTURE
     1 HND         1 TEMP              0 ****  ****    0 ROOT
