@<TRIPOS>MOLECULE
HND
   31    30     1     0     0
SMALL
bcc


@<TRIPOS>ATOM
      1 C1         -4.2370   -0.6290    0.2510 c3        1 HND      0.132400
      2 C2         -3.0180    0.1050   -0.2770 c3        1 HND     -0.084400
      3 C3         -1.7480   -0.5380    0.2310 c3        1 HND     -0.110400
      4 C4         -0.5180    0.2640   -0.1890 c3        1 HND      0.137100
      5 C5          0.7560   -0.4830    0.1980 c3        1 HND     -0.110400
      6 C6          1.9880    0.2290   -0.3140 c3        1 HND     -0.079400
      7 C7          3.2540   -0.4510    0.1590 c3        1 HND     -0.078400
      8 C8          4.4860    0.2550   -0.3680 c3        1 HND     -0.080400
      9 C9          5.7510   -0.4150    0.1040 c3        1 HND     -0.093100
     10 O10        -0.5410    1.5690    0.3690 oh        1 HND     -0.593800
     11 O11        -5.3780   -0.0090   -0.3220 oh        1 HND     -0.599800
     12 H2         -3.0360    0.0960   -1.3980 hc        1 HND      0.064200
     13 H3         -1.7780   -0.6090    1.3500 hc        1 HND      0.043200
     14 H4         -0.5370    0.4510   -1.3000 h1        1 HND      0.079700
     15 H5          0.8070   -0.5740    1.3150 hc        1 HND      0.043700
     16 H5A         0.7130   -1.5210   -0.2230 hc        1 HND      0.043700
     17 HO10       -0.5100    1.4720    1.3280 ho        1 HND      0.395000
     18 H6          1.9680    0.2530   -1.4360 hc        1 HND      0.048700
     19 H6A         1.9700    1.2950    0.0380 hc        1 HND      0.048700
     20 H7          3.2800   -0.4620    1.2800 hc        1 HND      0.037700
     21 H7A         3.2580   -1.5190   -0.1820 hc        1 HND      0.037700
     22 H8          4.4600    0.2640   -1.4900 hc        1 HND      0.040200
     23 H8A         4.4760    1.3250   -0.0290 hc        1 HND      0.040200
     24 H9          5.8070   -0.4110    1.2200 hc        1 HND      0.032367
     25 H9A         5.7890   -1.4760   -0.2430 hc        1 HND      0.032367
     26 H9B         6.6460    0.1200   -0.2960 hc        1 HND      0.032367
     27 H1         -4.2050   -1.7130   -0.0430 h1        1 HND      0.017700
     28 HO11       -6.1470   -0.4700    0.0300 ho        1 HND      0.398000
     29 H2A        -3.0550    1.1800    0.0440 hc        1 HND      0.064200
     30 H1A        -4.2860   -0.5610    1.3710 h1        1 HND      0.017700
     31 H3A        -1.6590   -1.5800   -0.1720 hc        1 HND      0.043200
@<TRIPOS>BOND
     1    1    2 1   
     2    1   11 1   
     3    1   27 1   
     4    1   30 1   
     5    2    3 1   
     6    2   12 1   
     7    2   29 1   
     8    3    4 1   
     9    3   13 1   
    10    3   31 1   
    11    4    5 1   
    12    4   10 1   
    13    4   14 1   
    14    5    6 1   
    15    5   15 1   
    16    5   16 1   
    17    6    7 1   
    18    6   18 1   
    19    6   19 1   
    20    7    8 1   
    21    7   20 1   
    22    7   21 1   
    23    8    9 1   
    24    8   22 1   
    25    8   23 1   
    26    9   24 1   
    27    9   25 1   
    28    9   26 1   
    29   10   17 1   
    30   11   28 1   
@<TRIPOS>SUBSTRUCTURE
     1 HND         1 TEMP              0 ****  ****    0 ROOT
