@<TRIPOS>MOLECULE
HND
   31    30     1     0     0
SMALL
bcc


@<TRIPOS>ATOM
      1 C1         -0.0190   -0.0740    0.0070 c3        1 HND      0.132400
      2 C2          1.5000   -0.0780    0.0030 c3        1 HND     -0.083400
      3 C3          2.0330    0.0530    1.4120 c3        1 HND     -0.074400
      4 C4          3.5560    0.1510    1.4160 c3        1 HND      0.142100
      5 C5          4.1050    0.0180    2.8340 c3        1 HND     -0.119400
      6 C6          5.6020   -0.2030    2.8440 c3        1 HND     -0.081400
      7 C7          6.1210   -0.3730    4.2550 c3        1 HND     -0.078400
      8 C8          7.6200   -0.5880    4.2690 c3        1 HND     -0.080400
      9 C9          8.1400   -0.7600    5.6730 c3        1 HND     -0.093100
     10 O10         3.8790    1.4200    0.8570 oh        1 HND     -0.600800
     11 O11        -0.4400   -0.3220   -1.3260 oh        1 HND     -0.600800
     12 H2          1.8660   -1.0270   -0.4670 hc        1 HND      0.062200
     13 H3          1.7270   -0.8360    2.0220 hc        1 HND      0.048700
     14 H4          3.9930   -0.6590    0.7630 h1        1 HND      0.034700
     15 H5          3.8550    0.9470    3.4100 hc        1 HND      0.053700
     16 H5A         3.6000   -0.8440    3.3420 hc        1 HND      0.053700
     17 HO10        4.8390    1.4990    0.8800 ho        1 HND      0.400000
     18 H6          6.1190    0.6670    2.3600 hc        1 HND      0.038200
     19 H6A         5.8530   -1.1150    2.2390 hc        1 HND      0.038200
     20 H7          5.6120   -1.2470    4.7410 hc        1 HND      0.041700
     21 H7A         5.8670    0.5360    4.8620 hc        1 HND      0.041700
     22 H8          7.8720   -1.4960    3.6600 hc        1 HND      0.038700
     23 H8A         8.1270    0.2870    3.7840 hc        1 HND      0.038700
     24 H9          7.6640   -1.6430    6.1650 hc        1 HND      0.033367
     25 H9A         7.9190    0.1450    6.2890 hc        1 HND      0.033367
     26 H9B         9.2450   -0.9170    5.6600 hc        1 HND      0.033367
     27 H1         -0.4110    0.9190    0.3560 h1        1 HND      0.018700
     28 HO11       -1.4020   -0.2620   -1.3260 ho        1 HND      0.398000
     29 H2A         1.8760    0.7720   -0.6250 hc        1 HND      0.062200
     30 H1A        -0.4170   -0.8780    0.6840 h1        1 HND      0.018700
     31 H3A         1.6090    0.9710    1.8970 hc        1 HND      0.048700
@<TRIPOS>BOND
     1    1    2 1   
     2    1   11 1   
     3    1   27 1   
     4    1   30 1   
     5    2    3 1   
     6    2   12 1   
     7    2   29 1   
     8    3    4 1   
     9    3   13 1   
    10    3   31 1   
    11    4    5 1   
    12    4   10 1   
    13    4   14 1   
    14    5    6 1   
    15    5   15 1   
    16    5   16 1   
    17    6    7 1   
    18    6   18 1   
    19    6   19 1   
    20    7    8 1   
    21    7   20 1   
    22    7   21 1   
    23    8    9 1   
    24    8   22 1   
    25    8   23 1   
    26    9   24 1   
    27    9   25 1   
    28    9   26 1   
    29   10   17 1   
    30   11   28 1   
@<TRIPOS>SUBSTRUCTURE
     1 HND         1 TEMP              0 ****  ****    0 ROOT
