@<TRIPOS>MOLECULE
HND
   31    30     1     0     0
SMALL
bcc


@<TRIPOS>ATOM
      1 C1          0.0360   -0.0840   -0.0040 c3        1 HND      0.133400
      2 C2          1.5540   -0.0390   -0.0080 c3        1 HND     -0.087400
      3 C3          2.0840    0.1080    1.4000 c3        1 HND     -0.119400
      4 C4          3.6110    0.1190    1.4320 c3        1 HND      0.142100
      5 C5          4.1230   -0.0470    2.8610 c3        1 HND     -0.073400
      6 C6          5.6210   -0.2570    2.8880 c3        1 HND     -0.079400
      7 C7          6.1320   -0.3740    4.3070 c3        1 HND     -0.078400
      8 C8          7.6300   -0.5960    4.3350 c3        1 HND     -0.080400
      9 C9          8.1460   -0.7100    5.7470 c3        1 HND     -0.092100
     10 O10         4.1240    1.3610    0.9610 oh        1 HND     -0.599800
     11 O11        -0.3780   -0.2100   -1.3550 oh        1 HND     -0.601800
     12 H2          1.9490   -0.9770   -0.4790 hc        1 HND      0.053700
     13 H3          1.7130   -0.7420    2.0300 hc        1 HND      0.053700
     14 H4          4.0090   -0.7130    0.7840 h1        1 HND      0.034700
     15 H5          3.8580    0.8680    3.4520 hc        1 HND      0.048700
     16 H5A         3.6050   -0.9240    3.3280 hc        1 HND      0.048700
     17 HO10        3.7940    1.4740    0.0610 ho        1 HND      0.400000
     18 H6          6.1210    0.6050    2.3710 hc        1 HND      0.047700
     19 H6A         5.8830   -1.1850    2.3150 hc        1 HND      0.047700
     20 H7          5.6170   -1.2260    4.8250 hc        1 HND      0.038200
     21 H7A         5.8810    0.5600    4.8760 hc        1 HND      0.038200
     22 H8          7.8800   -1.5300    3.7660 hc        1 HND      0.039200
     23 H8A         8.1420    0.2550    3.8140 hc        1 HND      0.039200
     24 H9          7.6640   -1.5670    6.2750 hc        1 HND      0.032033
     25 H9A         7.9280    0.2230    6.3220 hc        1 HND      0.032033
     26 H9B         9.2500   -0.8730    5.7440 hc        1 HND      0.032033
     27 H1         -0.3870    0.8580    0.4400 h1        1 HND      0.022200
     28 HO11       -1.3420   -0.2320   -1.3470 ho        1 HND      0.401000
     29 H2A         1.8900    0.8200   -0.6470 hc        1 HND      0.053700
     30 H1A        -0.3320   -0.9620    0.5930 h1        1 HND      0.022200
     31 H3A         1.7040    1.0610    1.8540 hc        1 HND      0.053700
@<TRIPOS>BOND
     1    1    2 1   
     2    1   11 1   
     3    1   27 1   
     4    1   30 1   
     5    2    3 1   
     6    2   12 1   
     7    2   29 1   
     8    3    4 1   
     9    3   13 1   
    10    3   31 1   
    11    4    5 1   
    12    4   10 1   
    13    4   14 1   
    14    5    6 1   
    15    5   15 1   
    16    5   16 1   
    17    6    7 1   
    18    6   18 1   
    19    6   19 1   
    20    7    8 1   
    21    7   20 1   
    22    7   21 1   
    23    8    9 1   
    24    8   22 1   
    25    8   23 1   
    26    9   24 1   
    27    9   25 1   
    28    9   26 1   
    29   10   17 1   
    30   11   28 1   
@<TRIPOS>SUBSTRUCTURE
     1 HND         1 TEMP              0 ****  ****    0 ROOT
