@<TRIPOS>MOLECULE
HNE
   27    26     1     0     0
SMALL
bcc


@<TRIPOS>ATOM
      1 C1          0.6240   -0.7210    1.1390 c         1 HNE      0.549100
      2 C2          1.0760    0.1190    0.0180 ce        1 HNE     -0.249200
      3 C3          2.3170    0.5860   -0.1430 c2        1 HNE     -0.148200
      4 C4          3.5040    0.3500    0.7380 c3        1 HNE      0.162300
      5 C5          3.5740    1.3760    1.8700 c3        1 HNE     -0.074400
      6 C6          3.9620    2.7420    1.3490 c3        1 HNE     -0.079400
      7 C7          4.0030    3.7580    2.4700 c3        1 HNE     -0.079400
      8 C8          4.3990    5.1270    1.9570 c3        1 HNE     -0.079400
      9 C9          4.4400    6.1420    3.0690 c3        1 HNE     -0.093100
     10 O10         3.4900   -0.9270    1.3670 oh        1 HNE     -0.599800
     11 O11        -0.4780   -1.2760    1.1370 o         1 HNE     -0.526100
     12 H2          0.2910    0.3650   -0.7200 ha        1 HNE      0.145000
     13 H3          2.5410    1.2400   -1.0060 ha        1 HNE      0.130000
     14 H4          4.4390    0.4260    0.1060 h1        1 HNE      0.043700
     15 H5C1        4.3270    1.0210    2.6220 hc        1 HNE      0.060200
     16 H5C2        2.5810    1.4230    2.3880 hc        1 HNE      0.060200
     17 H10         3.4450   -1.5860    0.6640 ho        1 HNE      0.406000
     18 H6C1        4.9680    2.6880    0.8550 hc        1 HNE      0.041200
     19 H6C2        3.2260    3.0710    0.5680 hc        1 HNE      0.041200
     20 H7C1        4.7330    3.4250    3.2530 hc        1 HNE      0.042700
     21 H7C2        2.9960    3.8180    2.9610 hc        1 HNE      0.042700
     22 H8C1        5.4060    5.0640    1.4660 hc        1 HNE      0.038700
     23 H8C2        3.6680    5.4570    1.1710 hc        1 HNE      0.038700
     24 H9C1        5.1800    5.8430    3.8500 hc        1 HNE      0.033700
     25 H9C2        4.7340    7.1430    2.6690 hc        1 HNE      0.033700
     26 H9C3        3.4380    6.2370    3.5540 hc        1 HNE      0.033700
     27 H1          1.3300   -0.8220    1.9960 h4        1 HNE      0.026200
@<TRIPOS>BOND
     1    1    2 1   
     2    1   11 2   
     3    1   27 1   
     4    2    3 2   
     5    2   12 1   
     6    3    4 1   
     7    3   13 1   
     8    4    5 1   
     9    4   10 1   
    10    4   14 1   
    11    5    6 1   
    12    5   15 1   
    13    5   16 1   
    14    6    7 1   
    15    6   18 1   
    16    6   19 1   
    17    7    8 1   
    18    7   20 1   
    19    7   21 1   
    20    8    9 1   
    21    8   22 1   
    22    8   23 1   
    23    9   24 1   
    24    9   25 1   
    25    9   26 1   
    26   10   17 1   
@<TRIPOS>SUBSTRUCTURE
     1 HNE         1 TEMP              0 ****  ****    0 ROOT
