@<TRIPOS>MOLECULE
HNE
   27    24     1     0     0
SMALL
bcc


@<TRIPOS>ATOM
      1 C1         -1.6090    0.8470   -3.9400 c1        1 HNE      0.206000
      2 C2         -0.1010    0.9690   -3.9600 c1        1 HNE     -0.168500
      3 C3          0.5820    1.0630   -2.8020 c1        1 HNE     -0.168500
      4 C4         -0.1590    1.0480   -1.4840 c2        1 HNE      0.042000
      5 C5          0.7140    0.4180   -0.4220 c3        1 HNE     -0.196000
      6 C6         -0.1580   -0.2630    0.6090 c3        1 HNE     -0.161000
      7 C7          0.6930   -0.6990    1.7810 c3        1 HNE     -0.158000
      8 C8         -0.1900   -1.3090    2.8470 c3        1 HNE     -0.159000
      9 C9          0.6670   -1.7920    3.9970 c3        1 HNE     -0.211000
     10 O10        -0.4750    2.3670   -1.1080 oh        1 HNE     -0.326000
     11 O11        -2.3010    1.8260   -4.1500 o         1 HNE     -0.283000
     12 H2          0.3770    0.9780   -4.8100 ha        1 HNE      0.152000
     13 H3          1.5550    1.1420   -2.8140 ha        1 HNE      0.152000
     14 H4         -0.9820    0.5300   -1.5790 h4        1 HNE      0.087000
     15 H5C1        1.2520    1.1100    0.0110 hc        1 HNE      0.100000
     16 H5C2        1.3060   -0.2420   -0.8360 hc        1 HNE      0.100000
     17 H10        -1.2730    2.3800   -0.7150 ho        1 HNE      0.207000
     18 H6C1       -0.5860   -1.0460    0.2090 hc        1 HNE      0.078500
     19 H6C2       -0.8440    0.3610    0.9190 hc        1 HNE      0.078500
     20 H7C1        1.1620    0.0770    2.1500 hc        1 HNE      0.083500
     21 H7C2        1.3470   -1.3620    1.4810 hc        1 HNE      0.083500
     22 H8C1       -0.8220   -0.6360    3.1720 hc        1 HNE      0.078500
     23 H8C2       -0.6840   -2.0640    2.4690 hc        1 HNE      0.078500
     24 H9C1        1.3310   -2.4310    3.6630 hc        1 HNE      0.074000
     25 H9C2        0.1000   -2.2290    4.6660 hc        1 HNE      0.074000
     26 H9C3        1.1250   -1.0280    4.4060 hc        1 HNE      0.074000
     27 H1         -2.0280   -0.0180   -3.7600 ha        1 HNE      0.084000
@<TRIPOS>BOND
     1    1   11 1   
     2    1   27 1   
     3    2    3 1   
     4    2   12 1   
     5    3   13 1   
     6    4    5 1   
     7    4   10 1   
     8    4   14 1   
     9    5    6 1   
    10    5   15 1   
    11    5   16 1   
    12    6    7 1   
    13    6   18 1   
    14    6   19 1   
    15    7    8 1   
    16    7   20 1   
    17    7   21 1   
    18    8    9 1   
    19    8   22 1   
    20    8   23 1   
    21    9   24 1   
    22    9   25 1   
    23    9   26 1   
    24   10   17 1   
@<TRIPOS>SUBSTRUCTURE
     1 HNE         1 TEMP              0 ****  ****    0 ROOT
