@<TRIPOS>MOLECULE
HNE
   27    26     1     0     0
SMALL
bcc


@<TRIPOS>ATOM
      1 C1          1.3150    2.2850   -0.1380 c         1 HNE      0.558100
      2 C2          1.8630    0.9720    0.2290 ce        1 HNE     -0.263200
      3 C3          1.2340   -0.1700   -0.0650 c2        1 HNE     -0.136200
      4 C4          1.7590   -1.5210    0.3150 c3        1 HNE      0.162300
      5 C5          1.1780   -1.9860    1.6520 c3        1 HNE     -0.074400
      6 C6          1.9310   -1.3800    2.8160 c3        1 HNE     -0.082400
      7 C7          1.2910   -1.7590    4.1340 c3        1 HNE     -0.077400
      8 C8          2.0510   -1.1700    5.3030 c3        1 HNE     -0.080400
      9 C9          1.4160   -1.5420    6.6180 c3        1 HNE     -0.093100
     10 O10         1.3570   -2.4950   -0.6440 oh        1 HNE     -0.594800
     11 O11         1.8860    3.3440    0.1300 o         1 HNE     -0.520100
     12 H2          2.8260    0.9890    0.7670 ha        1 HNE      0.150000
     13 H3          0.2710   -0.1870   -0.6040 ha        1 HNE      0.138000
     14 H4          2.8850   -1.5010    0.3730 h1        1 HNE      0.046700
     15 H5C1        1.2400   -3.1050    1.6920 hc        1 HNE      0.060700
     16 H5C2        0.0930   -1.7100    1.7030 hc        1 HNE      0.060700
     17 H10         1.7480   -2.2370   -1.4870 ho        1 HNE      0.402000
     18 H6C1        2.9970   -1.7310    2.8010 hc        1 HNE      0.042700
     19 H6C2        1.9490   -0.2620    2.7110 hc        1 HNE      0.042700
     20 H7C1        0.2290   -1.3970    4.1550 hc        1 HNE      0.041700
     21 H7C2        1.2610   -2.8770    4.2290 hc        1 HNE      0.041700
     22 H8C1        2.0840   -0.0530    5.2020 hc        1 HNE      0.039700
     23 H8C2        3.1120   -1.5340    5.2800 hc        1 HNE      0.039700
     24 H9C1        0.3660   -1.1650    6.6690 hc        1 HNE      0.033700
     25 H9C2        1.3960   -2.6510    6.7470 hc        1 HNE      0.033700
     26 H9C3        1.9920   -1.0980    7.4650 hc        1 HNE      0.033700
     27 H1          0.3410    2.2730   -0.6790 h4        1 HNE     -0.004800
@<TRIPOS>BOND
     1    1    2 1   
     2    1   11 2   
     3    1   27 1   
     4    2    3 2   
     5    2   12 1   
     6    3    4 1   
     7    3   13 1   
     8    4    5 1   
     9    4   10 1   
    10    4   14 1   
    11    5    6 1   
    12    5   15 1   
    13    5   16 1   
    14    6    7 1   
    15    6   18 1   
    16    6   19 1   
    17    7    8 1   
    18    7   20 1   
    19    7   21 1   
    20    8    9 1   
    21    8   22 1   
    22    8   23 1   
    23    9   24 1   
    24    9   25 1   
    25    9   26 1   
    26   10   17 1   
@<TRIPOS>SUBSTRUCTURE
     1 HNE         1 TEMP              0 ****  ****    0 ROOT
