@<TRIPOS>MOLECULE
HNE
   27    26     1     0     0
SMALL
bcc


@<TRIPOS>ATOM
      1 C1          0.5430   -0.8190    1.0650 c         1 HNE      0.562100
      2 C2          0.9260    0.1690    0.0450 ce        1 HNE     -0.239200
      3 C3          2.1480    0.6750   -0.1350 c2        1 HNE     -0.107200
      4 C4          3.4040    0.3780    0.6200 c3        1 HNE      0.165300
      5 C5          3.5970    1.3550    1.7820 c3        1 HNE     -0.109400
      6 C6          3.8770    2.7580    1.2930 c3        1 HNE     -0.078400
      7 C7          4.0840    3.7080    2.4530 c3        1 HNE     -0.079400
      8 C8          4.3650    5.1150    1.9670 c3        1 HNE     -0.079400
      9 C9          4.5720    6.0650    3.1180 c3        1 HNE     -0.093100
     10 O10         3.3580   -0.9610    1.1010 oh        1 HNE     -0.601800
     11 O11        -0.5710   -1.3510    1.0710 o         1 HNE     -0.535100
     12 H2          0.0970    0.4930   -0.6120 ha        1 HNE      0.143000
     13 H3          2.3090    1.4250   -0.9310 ha        1 HNE      0.128000
     14 H4          4.2780    0.4720   -0.0910 h1        1 HNE      0.042700
     15 H5C1        2.6810    1.3450    2.4280 hc        1 HNE      0.051200
     16 H5C2        4.4530    0.9980    2.4140 hc        1 HNE      0.051200
     17 H10         4.1990   -1.1260    1.5450 ho        1 HNE      0.406000
     18 H6C1        4.7910    2.7560    0.6410 hc        1 HNE      0.042700
     19 H6C2        3.0200    3.1150    0.6630 hc        1 HNE      0.042700
     20 H7C1        3.1710    3.7120    3.1050 hc        1 HNE      0.042200
     21 H7C2        4.9400    3.3520    3.0850 hc        1 HNE      0.042200
     22 H8C1        3.5080    5.4700    1.3350 hc        1 HNE      0.039200
     23 H8C2        5.2770    5.1090    1.3140 hc        1 HNE      0.039200
     24 H9C1        3.6640    6.1020    3.7680 hc        1 HNE      0.034367
     25 H9C2        4.7770    7.0950    2.7390 hc        1 HNE      0.034367
     26 H9C3        5.4380    5.7420    3.7460 hc        1 HNE      0.034367
     27 H1          1.3070   -1.0590    1.8380 h4        1 HNE      0.022200
@<TRIPOS>BOND
     1    1    2 1   
     2    1   11 2   
     3    1   27 1   
     4    2    3 2   
     5    2   12 1   
     6    3    4 1   
     7    3   13 1   
     8    4    5 1   
     9    4   10 1   
    10    4   14 1   
    11    5    6 1   
    12    5   15 1   
    13    5   16 1   
    14    6    7 1   
    15    6   18 1   
    16    6   19 1   
    17    7    8 1   
    18    7   20 1   
    19    7   21 1   
    20    8    9 1   
    21    8   22 1   
    22    8   23 1   
    23    9   24 1   
    24    9   25 1   
    25    9   26 1   
    26   10   17 1   
@<TRIPOS>SUBSTRUCTURE
     1 HNE         1 TEMP              0 ****  ****    0 ROOT
