@<TRIPOS>MOLECULE
HNF
   26    20     1     0     0
SMALL
bcc


@<TRIPOS>ATOM
      1 H15'       -5.3930    0.7180    0.6880 ho        1 HNF      0.222000
      2 O1         -5.0140   -0.0450    0.9440 oh        1 HNF     -0.246000
      3 C1         -3.6180    0.0520    0.7920 c1        1 HNF      0.099000
      4 C2         -2.8950    0.0870    1.9890 c1        1 HNF     -0.166000
      5 C3         -1.5030    0.0620    1.9640 c1        1 HNF     -0.053000
      6 C4         -0.8280    0.0010    0.7440 c1        1 HNF     -0.102000
      7 C5         -1.5500   -0.0340   -0.4530 c1        1 HNF     -0.027000
      8 C6         -2.9470   -0.0080   -0.4260 c1        1 HNF     -0.202000
      9 C7          0.6340   -0.0340    0.4070 c1        1 HNF      0.021000
     10 C8          0.7580   -0.0890   -0.9850 c1        1 HNF     -0.098000
     11 C9         -0.5900   -0.0920   -1.5570 c2        1 HNF     -0.089000
     12 C10         1.7760   -0.0110    1.2090 c1        1 HNF     -0.128000
     13 C11         3.0390   -0.0440    0.6220 c1        1 HNF     -0.060000
     14 C12         3.1640   -0.0990   -0.7700 c2        1 HNF     -0.138000
     15 C13         2.0250   -0.1220   -1.5710 c2        1 HNF     -0.056000
     16 N1          4.4520   -0.0910   -1.3650 n2        1 HNF      0.569000
     17 O2          5.2990    0.9580   -1.1450 os        1 HNF     -0.361000
     18 O3          4.8020   -1.0200   -2.0790 o         1 HNF     -0.362000
     19 H25'       -3.3670    0.1320    2.8430 ha        1 HNF      0.156000
     20 H4'        -0.9990    0.0860    2.8000 DU        1 HNF      0.156000
     21 H1'        -3.4510   -0.0210   -1.2610 ha        1 HNF      0.142000
     22 H12'       -0.7280   -0.9120   -2.0730 ha        1 HNF      0.122000
     23 H22'       -0.7050    0.6870   -2.1370 ha        1 HNF      0.122000
     24 H3'         1.6900    0.0270    2.1800 ha        1 HNF      0.151000
     25 HO3'        3.8380   -0.0280    1.1830 DU        1 HNF      0.156000
     26 H3          2.1120   -0.1610   -2.5430 ha        1 HNF      0.172000
@<TRIPOS>BOND
     1    1    2 1   
     2    2    3 1   
     3    3    8 1   
     4    4    5 1   
     5    4   19 1   
     6    5    6 1   
     7    6    7 1   
     8    7   11 1   
     9    8   21 1   
    10    9   10 1   
    11   10   15 1   
    12   11   22 1   
    13   11   23 1   
    14   12   13 1   
    15   12   24 1   
    16   13   14 1   
    17   14   15 1   
    18   14   16 1   
    19   15   26 1   
    20   16   18 1   
@<TRIPOS>SUBSTRUCTURE
     1 HNF         1 TEMP              0 ****  ****    0 ROOT
