@<TRIPOS>MOLECULE
HNF
   26    25     1     0     0
SMALL
bcc


@<TRIPOS>ATOM
      1 H15'       -0.2650    0.4080    0.4290 ho        1 HNF      0.221000
      2 O1          0.1440   -0.0360   -0.3270 oh        1 HNF     -0.253000
      3 C1          1.4960    0.2040   -0.2660 c2        1 HNF     -0.003000
      4 C2          4.4860   -0.3230    2.1900 c1        1 HNF      0.189000
      5 C3          4.0330   -0.6150    0.9900 c2        1 HNF     -0.447000
      6 C4          4.5360   -0.1860   -0.3050 c2        1 HNF     -0.037000
      7 C5          3.6970   -0.0210   -1.3650 c2        1 HNF      0.006000
      8 C6          2.2620   -0.2040   -1.2980 c2        1 HNF     -0.217000
      9 C7          5.9700    0.0180   -0.4430 c2        1 HNF     -0.044000
     10 C8          4.8310   -0.6980   -3.4270 c1        1 HNF     -0.185000
     11 C9          4.1960    0.3800   -2.7250 c3        1 HNF     -0.028000
     12 C10         6.8100    0.2870    0.5760 c2        1 HNF     -0.114000
     13 C11         8.1840    0.4790    0.3900 c1        1 HNF      0.058000
     14 C12         9.3630    0.6490    0.2520 c1        1 HNF     -0.242000
     15 C13         5.3540   -1.5860   -4.0340 c1        1 HNF     -0.187000
     16 N1         10.7520    0.8490    0.0910 no        1 HNF      0.666000
     17 O2         11.4200    1.1000    1.0590 o         1 HNF     -0.331500
     18 O3         11.2260    0.7630   -1.0120 o         1 HNF     -0.331500
     19 H25'        1.8750    0.7330    0.6230 h4        1 HNF      0.138000
     20 H4'         3.1520   -1.3000    0.9400 ha        1 HNF      0.205000
     21 H1'         1.7950   -0.6880   -2.1740 ha        1 HNF      0.159000
     22 H12'        3.3320    0.7590   -3.3440 hc        1 HNF      0.115000
     23 H22'        4.9190    1.2400   -2.6200 hc        1 HNF      0.115000
     24 H3'         6.3640   -0.0650   -1.4750 ha        1 HNF      0.154000
     25 HO3'        6.4760    0.3780    1.6310 ha        1 HNF      0.166000
     26 H3          5.8200   -2.3730   -4.5720 ha        1 HNF      0.228000
@<TRIPOS>BOND
     1    1    2 1   
     2    2    3 1   
     3    3    8 1   
     4    3   19 1   
     5    4    5 1   
     6    5    6 1   
     7    5   20 1   
     8    6    7 1   
     9    6    9 1   
    10    7    8 1   
    11    7   11 1   
    12    8   21 1   
    13    9   12 1   
    14    9   24 1   
    15   10   11 1   
    16   10   15 1   
    17   11   22 1   
    18   11   23 1   
    19   12   13 1   
    20   12   25 1   
    21   13   14 1   
    22   14   16 1   
    23   15   26 1   
    24   16   17 1   
    25   16   18 1   
@<TRIPOS>SUBSTRUCTURE
     1 HNF         1 TEMP              0 ****  ****    0 ROOT
