@<TRIPOS>MOLECULE
HNF
   26    27     1     0     0
SMALL
bcc


@<TRIPOS>ATOM
      1 H15'       -0.0600   -1.3010   -0.3710 ho        1 HNF      0.224000
      2 O1          0.3660   -0.5990   -0.8830 oh        1 HNF     -0.251000
      3 C1          1.7120   -0.6480   -0.6160 c2        1 HNF      0.013000
      4 C2          3.8360   -0.4460    2.4060 c1        1 HNF      0.203000
      5 C3          3.6920    0.1980    1.2680 c2        1 HNF     -0.455000
      6 C4          4.5520    0.1760    0.0830 c2        1 HNF     -0.017000
      7 C5          3.9740    0.2030   -1.1600 c2        1 HNF      0.049000
      8 C6          2.5290    0.1610   -1.3230 c2        1 HNF     -0.239000
      9 C7          5.9390    0.1530    0.4010 cu        1 HNF     -0.022000
     10 C8          6.0810    0.6490   -2.2690 c2        1 HNF     -0.197000
     11 C9          4.6660    0.3190   -2.4960 c3        1 HNF     -0.095000
     12 C10         6.9330    0.1740    1.3260 cu        1 HNF     -0.064000
     13 C11         7.3160    0.0450   -0.0320 cu        1 HNF      0.033000
     14 C12         8.0090   -0.1310   -1.1770 c2        1 HNF     -0.197000
     15 C13         7.1030   -0.2310   -2.3280 c2        1 HNF     -0.069000
     16 N1          9.4540   -0.3010   -1.2770 no        1 HNF      0.596000
     17 O2         10.1340   -0.1970   -0.2870 o         1 HNF     -0.374500
     18 O3          9.9390   -0.5480   -2.3510 o         1 HNF     -0.374500
     19 H25'        2.0500   -1.3590    0.1540 h4        1 HNF      0.142000
     20 H4'         2.8050    0.8710    1.1830 ha        1 HNF      0.206000
     21 H1'         2.1080    0.8110   -2.1100 ha        1 HNF      0.158000
     22 H12'        4.5440   -0.6540   -3.0480 hc        1 HNF      0.115000
     23 H22'        4.1520    1.1150   -3.1020 hc        1 HNF      0.115000
     24 H3'         6.2290    1.6220   -1.7610 ha        1 HNF      0.128000
     25 HO3'        7.2650    0.2400    2.3450 ha        1 HNF      0.216000
     26 H3          7.1810   -1.0960   -2.9950 ha        1 HNF      0.157000
@<TRIPOS>BOND
     1    1    2 1   
     2    2    3 1   
     3    3    8 1   
     4    3   19 1   
     5    4    5 1   
     6    5    6 1   
     7    5   20 1   
     8    6    7 1   
     9    6    9 1   
    10    7    8 1   
    11    7   11 1   
    12    8   21 1   
    13    9   12 1   
    14    9   13 1   
    15   10   11 1   
    16   10   15 1   
    17   10   24 1   
    18   11   22 1   
    19   11   23 1   
    20   12   13 1   
    21   12   25 1   
    22   13   14 1   
    23   14   15 1   
    24   14   16 1   
    25   15   26 1   
    26   16   17 1   
    27   16   18 1   
@<TRIPOS>SUBSTRUCTURE
     1 HNF         1 TEMP              0 ****  ****    0 ROOT
