@<TRIPOS>MOLECULE
HNF
   26    28     1     0     0
SMALL
bcc


@<TRIPOS>ATOM
      1 H15'       -6.0150   -0.2040    0.1320 ho        1 HNF      0.424000
      2 O1         -5.4570    0.5880    0.1100 oh        1 HNF     -0.492100
      3 C1         -4.1440    0.1870    0.0920 ca        1 HNF      0.146100
      4 C2         -3.7690   -1.1630    0.1040 ca        1 HNF     -0.225000
      5 C3         -2.4150   -1.5130    0.0850 ca        1 HNF     -0.048000
      6 C4         -1.4620   -0.5070    0.0530 cp        1 HNF     -0.102000
      7 C5         -1.8560    0.8680    0.0410 ca        1 HNF     -0.040300
      8 C6         -3.1860    1.2270    0.0600 ca        1 HNF     -0.145000
      9 C7         -0.0060   -0.5680    0.0280 cp        1 HNF      0.020000
     10 C8          0.5000    0.7700   -0.0000 ca        1 HNF     -0.104300
     11 C9         -0.6390    1.7520    0.0060 c3        1 HNF      0.004200
     12 C10         0.8620   -1.6480    0.0280 ca        1 HNF     -0.128000
     13 C11         2.2410   -1.4130   -0.0010 ca        1 HNF     -0.061000
     14 C12         2.7270   -0.0980   -0.0280 ca        1 HNF     -0.183200
     15 C13         1.8560    1.0160   -0.0280 ca        1 HNF     -0.056000
     16 N1          4.1930    0.1370   -0.0580 no        1 HNF      0.314200
     17 O2          4.9350   -0.8090   -0.0580 o         1 HNF     -0.211500
     18 O3          4.6030    1.2670   -0.0820 o         1 HNF     -0.211500
     19 H25'       -4.5370   -1.9490    0.1300 ha        1 HNF      0.139000
     20 H4'        -2.1180   -2.5720    0.0950 ha        1 HNF      0.140000
     21 H1'        -3.5170    2.2740    0.0510 ha        1 HNF      0.159000
     22 H12'       -0.6290    2.3930   -0.9120 hc        1 HNF      0.083700
     23 H22'       -0.5960    2.4190    0.9050 hc        1 HNF      0.083700
     24 H3'         0.4820   -2.6800    0.0490 ha        1 HNF      0.150000
     25 HO3'        2.9450   -2.2630   -0.0020 ha        1 HNF      0.170000
     26 H3          2.2600    2.0420   -0.0500 ha        1 HNF      0.172000
@<TRIPOS>BOND
     1    1    2 1   
     2    2    3 1   
     3    3    4 ar  
     4    3    8 ar  
     5    4    5 ar  
     6    4   19 1   
     7    5    6 ar  
     8    5   20 1   
     9    6    7 ar  
    10    6    9 1   
    11    7    8 ar  
    12    7   11 1   
    13    8   21 1   
    14    9   10 ar  
    15    9   12 ar  
    16   10   11 1   
    17   10   15 ar  
    18   11   22 1   
    19   11   23 1   
    20   12   13 ar  
    21   12   24 1   
    22   13   14 ar  
    23   13   25 1   
    24   14   15 ar  
    25   14   16 1   
    26   15   26 1   
    27   16   17 1   
    28   16   18 1   
@<TRIPOS>SUBSTRUCTURE
     1 HNF         1 TEMP              0 ****  ****    0 ROOT
