@<TRIPOS>MOLECULE
HNF
   26    27     1     0     0
SMALL
bcc


@<TRIPOS>ATOM
      1 H15'       -0.2290   -0.6440   -0.2390 ho        1 HNF      0.224000
      2 O1          0.2980   -0.1240   -0.8620 oh        1 HNF     -0.251000
      3 C1          1.6210   -0.3210   -0.5510 c2        1 HNF      0.013000
      4 C2          3.7650    0.0010    2.4240 c1        1 HNF      0.202000
      5 C3          3.7170    0.5050    1.2100 c2        1 HNF     -0.455000
      6 C4          4.5640    0.2000    0.0550 c2        1 HNF     -0.017000
      7 C5          3.9870    0.0830   -1.1830 c2        1 HNF      0.049000
      8 C6          2.5510    0.2120   -1.3700 c2        1 HNF     -0.239000
      9 C7          5.9440    0.1040    0.3880 cu        1 HNF     -0.021000
     10 C8          6.0480   -0.6310   -2.2330 c2        1 HNF     -0.197000
     11 C9          4.6770   -0.1720   -2.5010 c3        1 HNF     -0.096000
     12 C10         6.9260    0.0660    1.3250 cu        1 HNF     -0.064000
     13 C11         7.3270    0.0280   -0.0340 cu        1 HNF      0.034000
     14 C12         8.0410    0.0320   -1.1800 c2        1 HNF     -0.197000
     15 C13         7.1570    0.1300   -2.3470 c2        1 HNF     -0.068000
     16 N1          9.4970    0.0400   -1.2730 no        1 HNF      0.596000
     17 O2         10.1560   -0.0520   -0.2670 o         1 HNF     -0.374500
     18 O3         10.0110    0.1430   -2.3560 o         1 HNF     -0.374500
     19 H25'        1.8460   -0.9190    0.3460 h4        1 HNF      0.141000
     20 H4'         2.9410    1.2850    1.0180 ha        1 HNF      0.207000
     21 H1'         2.2360    0.7570   -2.2780 ha        1 HNF      0.159000
     22 H12'        4.6620    0.7780   -3.1030 hc        1 HNF      0.115000
     23 H22'        4.0880   -0.9410   -3.0730 hc        1 HNF      0.115000
     24 H3'         6.0910   -1.5710   -1.6490 ha        1 HNF      0.127000
     25 HO3'        7.2460    0.0630    2.3500 ha        1 HNF      0.216000
     26 H3          7.3280    0.9260   -3.0800 ha        1 HNF      0.157000
@<TRIPOS>BOND
     1    1    2 1   
     2    2    3 1   
     3    3    8 1   
     4    3   19 1   
     5    4    5 1   
     6    5    6 1   
     7    5   20 1   
     8    6    7 1   
     9    6    9 1   
    10    7    8 1   
    11    7   11 1   
    12    8   21 1   
    13    9   12 1   
    14    9   13 1   
    15   10   11 1   
    16   10   15 1   
    17   10   24 1   
    18   11   22 1   
    19   11   23 1   
    20   12   13 1   
    21   12   25 1   
    22   13   14 1   
    23   14   15 1   
    24   14   16 1   
    25   15   26 1   
    26   16   17 1   
    27   16   18 1   
@<TRIPOS>SUBSTRUCTURE
     1 HNF         1 TEMP              0 ****  ****    0 ROOT
