@<TRIPOS>MOLECULE
HNH
   25    26     1     0     0
SMALL
bcc


@<TRIPOS>ATOM
      1 N1         -0.0360    0.1760   -0.0410 nb        1 HNH     -0.740000
      2 C2          1.3020    0.1530    0.0640 ca        1 HNH      0.446200
      3 C3          1.9980    0.0470    1.2900 ca        1 HNH     -0.194100
      4 C4          1.2420   -0.0450    2.4710 ca        1 HNH     -0.046000
      5 C5         -0.1460   -0.0260    2.4020 ca        1 HNH     -0.265300
      6 C6         -0.7410    0.0880    1.1200 ca        1 HNH      0.626600
      7 O6         -2.1150    0.1060    1.0920 oh        1 HNH     -0.614300
      8 C7          3.4510    0.0000    1.2930 ce        1 HNH      0.110800
      9 C8          4.2240   -0.6270    0.3610 c2        1 HNH     -0.233200
     10 C9          5.6750   -0.4850    0.7020 c3        1 HNH     -0.056200
     11 C10         5.6440    0.3320    2.0180 c3        1 HNH      0.155800
     12 N11         4.2270    0.5590    2.3700 nh        1 HNH     -0.609400
     13 C12         3.9140    1.9140    2.7490 c3        1 HNH      0.158100
     14 H2          1.8560    0.2250   -0.8910 h4        1 HNH      0.029100
     15 H4          1.7470   -0.1420    3.4450 ha        1 HNH      0.157000
     16 H5         -0.7790   -0.0980    3.2950 ha        1 HNH      0.161000
     17 H8          3.8810   -1.1980   -0.4990 ha        1 HNH      0.150000
     18 H12         4.1760    2.6740    1.9630 h1        1 HNH      0.038033
     19 H12A        2.8170    1.9900    2.9680 h1        1 HNH      0.038033
     20 H12B        4.4910    2.1540    3.6810 h1        1 HNH      0.038033
     21 H81        -2.4190    0.1810    0.1720 ho        1 HNH      0.441000
     22 H9          6.2380    0.0480   -0.1020 hc        1 HNH      0.055200
     23 H101        6.1530   -1.4810    0.8660 hc        1 HNH      0.055200
     24 H10         6.2060    1.2960    1.8990 h1        1 HNH      0.049200
     25 H121        6.1050   -0.2480    2.8600 h1        1 HNH      0.049200
@<TRIPOS>BOND
     1    1    2 ar  
     2    1    6 ar  
     3    2    3 ar  
     4    2   14 1   
     5    3    4 ar  
     6    3    8 1   
     7    4    5 ar  
     8    4   15 1   
     9    5    6 ar  
    10    5   16 1   
    11    6    7 1   
    12    7   21 1   
    13    8    9 2   
    14    8   12 1   
    15    9   10 1   
    16    9   17 1   
    17   10   11 1   
    18   10   22 1   
    19   10   23 1   
    20   11   12 1   
    21   11   24 1   
    22   11   25 1   
    23   12   13 1   
    24   13   18 1   
    25   13   19 1   
    26   13   20 1   
@<TRIPOS>SUBSTRUCTURE
     1 HNH         1 TEMP              0 ****  ****    0 ROOT
