@<TRIPOS>MOLECULE
HNH
   25    26     1     0     0
SMALL
bcc


@<TRIPOS>ATOM
      1 N1          2.3500    1.0640   -0.4700 nb        1 HNH     -0.740000
      2 C2          1.0080    1.0810   -0.4460 ca        1 HNH      0.446200
      3 C3          0.2160    0.1020    0.1960 ca        1 HNH     -0.194100
      4 C4          0.8740   -0.9530    0.8510 ca        1 HNH     -0.046000
      5 C5          2.2630   -1.0040    0.8480 ca        1 HNH     -0.265300
      6 C6          2.9590    0.0290    0.1710 ca        1 HNH      0.626600
      7 O6          4.3310   -0.0560    0.1860 oh        1 HNH     -0.614300
      8 C7         -1.2330    0.2280    0.1900 ce        1 HNH      0.110800
      9 C8         -1.9250    1.4000    0.2860 c2        1 HNH     -0.233200
     10 C9         -3.3980    1.1400    0.2710 c3        1 HNH     -0.056200
     11 C10        -3.4790   -0.4030    0.1630 c3        1 HNH      0.155800
     12 N11        -2.0960   -0.9240    0.1720 nh        1 HNH     -0.609400
     13 C12        -1.8230   -1.9130   -0.8400 c3        1 HNH      0.158100
     14 H2          0.5330    1.9310   -0.9710 h4        1 HNH      0.029100
     15 H4          0.2920   -1.7290    1.3730 ha        1 HNH      0.157000
     16 H5          2.8220   -1.8040    1.3480 ha        1 HNH      0.161000
     17 H8         -1.5090    2.3990    0.4020 ha        1 HNH      0.150000
     18 H12        -2.4750   -2.8040   -0.6370 h1        1 HNH      0.038033
     19 H12A       -2.0250   -1.5560   -1.8860 h1        1 HNH      0.038033
     20 H12B       -0.7470   -2.2230   -0.7690 h1        1 HNH      0.038033
     21 H81         4.7080    0.6970   -0.2970 ho        1 HNH      0.441000
     22 H9         -3.8830    1.4960    1.2130 hc        1 HNH      0.055200
     23 H101       -3.8980    1.6420   -0.5930 hc        1 HNH      0.055200
     24 H10        -4.0030   -0.8400    1.0530 h1        1 HNH      0.049200
     25 H121       -4.0350   -0.7060   -0.7640 h1        1 HNH      0.049200
@<TRIPOS>BOND
     1    1    2 ar  
     2    1    6 ar  
     3    2    3 ar  
     4    2   14 1   
     5    3    4 ar  
     6    3    8 1   
     7    4    5 ar  
     8    4   15 1   
     9    5    6 ar  
    10    5   16 1   
    11    6    7 1   
    12    7   21 1   
    13    8    9 2   
    14    8   12 1   
    15    9   10 1   
    16    9   17 1   
    17   10   11 1   
    18   10   22 1   
    19   10   23 1   
    20   11   12 1   
    21   11   24 1   
    22   11   25 1   
    23   12   13 1   
    24   13   18 1   
    25   13   19 1   
    26   13   20 1   
@<TRIPOS>SUBSTRUCTURE
     1 HNH         1 TEMP              0 ****  ****    0 ROOT
