@<TRIPOS>MOLECULE
HNH
   25    26     1     0     0
SMALL
bcc


@<TRIPOS>ATOM
      1 N1         -0.0380    0.1680   -0.0330 nb        1 HNH     -0.740000
      2 C2          1.3010    0.1440    0.0680 ca        1 HNH      0.446200
      3 C3          2.0010    0.0450    1.2910 ca        1 HNH     -0.194100
      4 C4          1.2500   -0.0400    2.4760 ca        1 HNH     -0.046000
      5 C5         -0.1380   -0.0190    2.4120 ca        1 HNH     -0.265300
      6 C6         -0.7380    0.0870    1.1320 ca        1 HNH      0.626600
      7 O6         -2.1130    0.1070    1.1080 oh        1 HNH     -0.614300
      8 C7          3.4540   -0.0030    1.2890 ce        1 HNH      0.110800
      9 C8          4.2230   -0.6370    0.3580 c2        1 HNH     -0.233200
     10 C9          5.6750   -0.4940    0.6930 c3        1 HNH     -0.056200
     11 C10         5.6500    0.3300    2.0050 c3        1 HNH      0.155800
     12 N11         4.2340    0.5600    2.3600 nh        1 HNH     -0.609400
     13 C12         3.9250    1.9180    2.7330 c3        1 HNH      0.158100
     14 H2          1.8510    0.2100   -0.8900 h4        1 HNH      0.029100
     15 H4          1.7580   -0.1310    3.4490 ha        1 HNH      0.157000
     16 H5         -0.7680   -0.0850    3.3070 ha        1 HNH      0.161000
     17 H8          3.8760   -1.2120   -0.4980 ha        1 HNH      0.150000
     18 H12         4.1850    2.6730    1.9410 h1        1 HNH      0.038033
     19 H12A        2.8290    1.9970    2.9550 h1        1 HNH      0.038033
     20 H12B        4.5060    2.1620    3.6610 h1        1 HNH      0.038033
     21 H81        -2.4200    0.1760    0.1890 ho        1 HNH      0.441000
     22 H9          6.1530   -1.4900    0.8600 hc        1 HNH      0.055200
     23 H101        6.2360    0.0340   -0.1160 hc        1 HNH      0.055200
     24 H10         6.1130   -0.2470    2.8480 h1        1 HNH      0.049200
     25 H121        6.2130    1.2920    1.8780 h1        1 HNH      0.049200
@<TRIPOS>BOND
     1    1    2 ar  
     2    1    6 ar  
     3    2    3 ar  
     4    2   14 1   
     5    3    4 ar  
     6    3    8 1   
     7    4    5 ar  
     8    4   15 1   
     9    5    6 ar  
    10    5   16 1   
    11    6    7 1   
    12    7   21 1   
    13    8    9 2   
    14    8   12 1   
    15    9   10 1   
    16    9   17 1   
    17   10   11 1   
    18   10   22 1   
    19   10   23 1   
    20   11   12 1   
    21   11   24 1   
    22   11   25 1   
    23   12   13 1   
    24   13   18 1   
    25   13   19 1   
    26   13   20 1   
@<TRIPOS>SUBSTRUCTURE
     1 HNH         1 TEMP              0 ****  ****    0 ROOT
