@<TRIPOS>MOLECULE
HNH
   25    22     1     0     0
SMALL
bcc


@<TRIPOS>ATOM
      1 N1         -2.8730    0.2880   -1.1340 n1        1 HNH     -0.214000
      2 C2         -1.5110    0.2880   -1.1340 c1        1 HNH     -0.019000
      3 C3         -0.8170    0.2880    0.0660 c1        1 HNH     -0.117000
      4 C4         -1.5000    0.2880    1.2480 c1        1 HNH     -0.123000
      5 C5         -2.8650    0.2880    1.2470 c1        1 HNH     -0.123000
      6 C6         -3.5560    0.2880    0.0450 c1        1 HNH      0.128000
      7 O6         -4.9630    0.2950    0.0430 oh        1 HNH     -0.243000
      8 C7          0.6960    0.2880    0.0650 c2        1 HNH      0.017000
      9 C8          1.4020    1.4900   -0.1640 c1        1 HNH     -0.229000
     10 C9          2.7220    1.3400   -0.1360 c2        1 HNH     -0.139000
     11 C10         2.8230   -0.3140    0.1780 c3        1 HNH     -0.081000
     12 N11         1.5230   -0.8180    0.2750 n3        1 HNH     -0.211000
     13 C12         1.4430   -2.0650   -0.4070 c3        1 HNH     -0.118000
     14 H2         -1.0230    0.2880   -1.9790 ha        1 HNH      0.166000
     15 H4         -1.0120    0.2880    2.0940 ha        1 HNH      0.159000
     16 H5         -3.3540    0.2880    2.0910 ha        1 HNH      0.159000
     17 H8          0.9640    2.3470   -0.3260 ha        1 HNH      0.150000
     18 H12         2.1830   -2.6370   -0.1280 h1        1 HNH      0.077333
     19 H12A        1.4950   -1.9130   -1.3700 h1        1 HNH      0.077333
     20 H12B        0.5960   -2.4990   -0.1920 h1        1 HNH      0.077333
     21 H81        -5.2610   -0.4210   -0.3890 ho        1 HNH      0.240000
     22 H9          3.0720    1.6720   -0.9850 ha        1 HNH      0.094500
     23 H101        3.2220    1.8600    0.5220 ha        1 HNH      0.094500
     24 H10         3.2960   -0.7590   -0.5500 h1        1 HNH      0.088500
     25 H121        3.2970   -0.4610    1.0190 h1        1 HNH      0.088500
@<TRIPOS>BOND
     1    1    6 1   
     2    2    3 1   
     3    2   14 1   
     4    3    8 1   
     5    4    5 1   
     6    4   15 1   
     7    5   16 1   
     8    6    7 1   
     9    7   21 1   
    10    8    9 1   
    11    8   12 1   
    12    9   17 1   
    13   10   11 1   
    14   10   22 1   
    15   10   23 1   
    16   11   12 1   
    17   11   24 1   
    18   11   25 1   
    19   12   13 1   
    20   13   18 1   
    21   13   19 1   
    22   13   20 1   
@<TRIPOS>SUBSTRUCTURE
     1 HNH         1 TEMP              0 ****  ****    0 ROOT
