@<TRIPOS>MOLECULE
HNH
   25    26     1     0     0
SMALL
bcc


@<TRIPOS>ATOM
      1 N1         -0.0590    0.2620   -0.0810 nb        1 HNH     -0.740000
      2 C2          1.2820    0.2450   -0.0030 ca        1 HNH      0.457200
      3 C3          2.0000    0.1200    1.2060 ca        1 HNH     -0.193100
      4 C4          1.2710    0.0100    2.4000 ca        1 HNH     -0.054000
      5 C5         -0.1190    0.0220    2.3610 ca        1 HNH     -0.265300
      6 C6         -0.7390    0.1510    1.0930 ca        1 HNH      0.628600
      7 O6         -2.1140    0.1610    1.0920 oh        1 HNH     -0.615300
      8 C7          3.4570    0.0810    1.1850 ce        1 HNH      0.110800
      9 C8          4.2120   -0.8930    0.6010 c2        1 HNH     -0.234200
     10 C9          5.6700   -0.6000    0.7780 c3        1 HNH     -0.054200
     11 C10         5.6630    0.7290    1.5750 c3        1 HNH      0.159800
     12 N11         4.2550    1.1510    1.7130 nh        1 HNH     -0.612400
     13 C12         3.8990    1.6840    2.9990 c3        1 HNH      0.163100
     14 H2          1.8170    0.3390   -0.9670 h4        1 HNH      0.034100
     15 H4          1.7970   -0.0920    3.3620 ha        1 HNH      0.144000
     16 H5         -0.7330   -0.0640    3.2650 ha        1 HNH      0.161000
     17 H8          3.8530   -1.7640    0.0590 ha        1 HNH      0.151000
     18 H12         4.5640    2.5630    3.2080 h1        1 HNH      0.037033
     19 H12A        2.8330    2.0330    2.9680 h1        1 HNH      0.037033
     20 H12B        4.0120    0.9460    3.8410 h1        1 HNH      0.037033
     21 H81        -2.4370    0.2560    0.1800 ho        1 HNH      0.441000
     22 H9          6.1800   -0.4680   -0.2070 hc        1 HNH      0.054700
     23 H101        6.1900   -1.4140    1.3380 hc        1 HNH      0.054700
     24 H10         6.2000    1.5380    1.0130 h1        1 HNH      0.047200
     25 H121        6.1600    0.5950    2.5720 h1        1 HNH      0.047200
@<TRIPOS>BOND
     1    1    2 ar  
     2    1    6 ar  
     3    2    3 ar  
     4    2   14 1   
     5    3    4 ar  
     6    3    8 1   
     7    4    5 ar  
     8    4   15 1   
     9    5    6 ar  
    10    5   16 1   
    11    6    7 1   
    12    7   21 1   
    13    8    9 2   
    14    8   12 1   
    15    9   10 1   
    16    9   17 1   
    17   10   11 1   
    18   10   22 1   
    19   10   23 1   
    20   11   12 1   
    21   11   24 1   
    22   11   25 1   
    23   12   13 1   
    24   13   18 1   
    25   13   19 1   
    26   13   20 1   
@<TRIPOS>SUBSTRUCTURE
     1 HNH         1 TEMP              0 ****  ****    0 ROOT
