@<TRIPOS>MOLECULE
HNK
   27    28     1     0     0
SMALL
bcc


@<TRIPOS>ATOM
      1 N1         -0.0560   -0.1870    0.0300 nb        1 HNK     -0.743000
      2 C2          1.2880   -0.1750    0.0270 ca        1 HNK      0.460200
      3 C3          2.0780   -0.0610    1.1890 ca        1 HNK     -0.227600
      4 C4          1.4240    0.0540    2.4230 ca        1 HNK     -0.066000
      5 C5          0.0330    0.0430    2.4710 ca        1 HNK     -0.265300
      6 C6         -0.6630   -0.0800    1.2440 ca        1 HNK      0.621600
      7 O6         -2.0370   -0.0860    1.3260 oh        1 HNK     -0.618300
      8 C7          3.5770   -0.0770    1.1240 c3        1 HNK      0.229800
      9 C8          4.1010   -1.5160    0.8900 c3        1 HNK     -0.084400
     10 C9          5.2180   -1.3960   -0.1350 c3        1 HNK     -0.093400
     11 C10         5.1620    0.0460   -0.6570 c3        1 HNK      0.161800
     12 N11         4.1070    0.7780    0.0430 n3        1 HNK     -0.730600
     13 C12         4.4880    2.0970    0.4790 c3        1 HNK      0.159100
     14 H2          1.7600   -0.2550   -0.9710 h4        1 HNK      0.038100
     15 H4          2.0020    0.1530    3.3540 ha        1 HNK      0.138000
     16 H5         -0.5230    0.1280    3.4120 ha        1 HNK      0.158000
     17 H7          3.9680    0.2790    2.1270 h1        1 HNK      0.035700
     18 H8          4.4680   -1.9500    1.8510 hc        1 HNK      0.053200
     19 H8A         3.2800   -2.1710    0.5070 hc        1 HNK      0.053200
     20 H9          6.2130   -1.6030    0.3310 hc        1 HNK      0.048700
     21 H9A         5.0770   -2.1220   -0.9720 hc        1 HNK      0.048700
     22 H10         6.1680    0.5380   -0.5410 h1        1 HNK      0.042200
     23 H10A        4.9000    0.0600   -1.7510 h1        1 HNK      0.042200
     24 H12         4.8080    2.6880   -0.4190 h1        1 HNK      0.033367
     25 H12A        5.3290    2.1030    1.2260 h1        1 HNK      0.033367
     26 H12B        3.5960    2.5940    0.9420 h1        1 HNK      0.033367
     27 HO6        -2.4130   -0.1670    0.4340 ho        1 HNK      0.439000
@<TRIPOS>BOND
     1    1    2 ar  
     2    1    6 ar  
     3    2    3 ar  
     4    2   14 1   
     5    3    4 ar  
     6    3    8 1   
     7    4    5 ar  
     8    4   15 1   
     9    5    6 ar  
    10    5   16 1   
    11    6    7 1   
    12    7   27 1   
    13    8    9 1   
    14    8   12 1   
    15    8   17 1   
    16    9   10 1   
    17    9   18 1   
    18    9   19 1   
    19   10   11 1   
    20   10   20 1   
    21   10   21 1   
    22   11   12 1   
    23   11   22 1   
    24   11   23 1   
    25   12   13 1   
    26   13   24 1   
    27   13   25 1   
    28   13   26 1   
@<TRIPOS>SUBSTRUCTURE
     1 HNK         1 TEMP              0 ****  ****    0 ROOT
