@<TRIPOS>MOLECULE
HNK
   27    25     1     0     0
SMALL
bcc


@<TRIPOS>ATOM
      1 N1         -2.8290    0.7620   -0.4150 n1        1 HNK     -0.542800
      2 C2         -1.4610    0.7730   -0.5060 c1        1 HNK      0.052500
      3 C3         -0.6960    0.1860    0.4880 c1        1 HNK     -0.128100
      4 C4         -1.3070   -0.4060    1.5630 c1        1 HNK     -0.075500
      5 C5         -2.6730   -0.4160    1.6530 c1        1 HNK     -0.075500
      6 C6         -3.4380    0.1720    0.6580 c1        1 HNK      0.477400
      7 O6         -4.8590    0.2320    0.7950 oh        1 HNK     -0.476600
      8 C7          0.8370    0.2980    0.4420 c3        1 HNK      0.195600
      9 C8          1.5020   -1.1880    0.3050 c3        1 HNK     -0.084400
     10 C9          1.4360   -1.4970   -0.9430 c3        1 HNK     -0.093400
     11 C10         1.4390   -0.1440   -1.6910 c3        1 HNK      0.161800
     12 N11         1.1980    0.9490   -0.5870 n3        1 HNK     -0.730600
     13 C12         2.4280    1.6380   -0.3110 c3        1 HNK      0.159100
     14 H2         -1.0300    1.1910   -1.2640 ha        1 HNK      0.117500
     15 H4         -0.7660   -0.8230    2.2670 ha        1 HNK      0.090500
     16 H5         -3.1110   -0.8400    2.4240 ha        1 HNK      0.090500
     17 H7          1.1690    0.7430    1.2600 h1        1 HNK      0.035700
     18 H8          0.9970   -1.8340    0.8390 hc        1 HNK      0.053200
     19 H8A         2.4380   -1.1670    0.5970 hc        1 HNK      0.053200
     20 H9          0.5960   -1.9940   -1.1310 hc        1 HNK      0.048700
     21 H9A         2.2320   -2.0450   -1.2100 hc        1 HNK      0.048700
     22 H10         2.3070   -0.0020   -2.1290 h1        1 HNK      0.042200
     23 H10A        0.7220   -0.1210   -2.3480 h1        1 HNK      0.042200
     24 H12         2.2890    2.2720    0.4410 h1        1 HNK      0.033367
     25 H12A        3.1110    0.9940   -0.0690 h1        1 HNK      0.033367
     26 H12B        2.7130    2.1360   -1.1120 h1        1 HNK      0.033367
     27 HO6        -5.2440    0.1320   -0.0150 ho        1 HNK      0.439000
@<TRIPOS>BOND
     1    1    6 3   
     2    2    3 3   
     3    2   14 1   
     4    3    8 1   
     5    4    5 3   
     6    4   15 1   
     7    5   16 1   
     8    6    7 1   
     9    7   27 1   
    10    8    9 1   
    11    8   12 1   
    12    8   17 1   
    13    9   10 1   
    14    9   18 1   
    15    9   19 1   
    16   10   11 1   
    17   10   20 1   
    18   10   21 1   
    19   11   12 1   
    20   11   22 1   
    21   11   23 1   
    22   12   13 1   
    23   13   24 1   
    24   13   25 1   
    25   13   26 1   
@<TRIPOS>SUBSTRUCTURE
     1 HNK         1 TEMP              0 ****  ****    0 ROOT
