@<TRIPOS>MOLECULE
HNK
   27    28     1     0     0
SMALL
bcc


@<TRIPOS>ATOM
      1 N1         -0.0600   -0.1860    0.0470 nb        1 HNK     -0.743000
      2 C2          1.2840   -0.1740    0.0350 ca        1 HNK      0.460200
      3 C3          2.0810   -0.0610    1.1940 ca        1 HNK     -0.227600
      4 C4          1.4330    0.0530    2.4310 ca        1 HNK     -0.066000
      5 C5          0.0430    0.0410    2.4870 ca        1 HNK     -0.265300
      6 C6         -0.6600   -0.0810    1.2630 ca        1 HNK      0.621600
      7 O6         -2.0340   -0.0890    1.3540 oh        1 HNK     -0.618300
      8 C7          3.5790   -0.0760    1.1200 c3        1 HNK      0.229800
      9 C8          4.1020   -1.5150    0.8840 c3        1 HNK     -0.084400
     10 C9          5.2140   -1.3950   -0.1480 c3        1 HNK     -0.093400
     11 C10         5.1540    0.0480   -0.6700 c3        1 HNK      0.161800
     12 N11         4.1020    0.7790    0.0360 n3        1 HNK     -0.730600
     13 C12         4.4860    2.0980    0.4690 c3        1 HNK      0.159100
     14 H2          1.7500   -0.2530   -0.9650 h4        1 HNK      0.038100
     15 H4          2.0170    0.1510    3.3590 ha        1 HNK      0.138000
     16 H5         -0.5080    0.1240    3.4310 ha        1 HNK      0.158000
     17 H7          3.9750    0.2810    2.1210 h1        1 HNK      0.035700
     18 H8          4.4760   -1.9480    1.8430 hc        1 HNK      0.053200
     19 H8A         3.2800   -2.1710    0.5060 hc        1 HNK      0.053200
     20 H9          5.0690   -2.1220   -0.9830 hc        1 HNK      0.048700
     21 H9A         6.2110   -1.6010    0.3130 hc        1 HNK      0.048700
     22 H10         6.1600    0.5400   -0.5600 h1        1 HNK      0.042200
     23 H10A        4.8860    0.0600   -1.7620 h1        1 HNK      0.042200
     24 H12         5.3310    2.1040    1.2120 h1        1 HNK      0.033367
     25 H12A        4.8000    2.6890   -0.4310 h1        1 HNK      0.033367
     26 H12B        3.5970    2.5950    0.9380 h1        1 HNK      0.033367
     27 HO6        -2.4150   -0.1690    0.4640 ho        1 HNK      0.439000
@<TRIPOS>BOND
     1    1    2 ar  
     2    1    6 ar  
     3    2    3 ar  
     4    2   14 1   
     5    3    4 ar  
     6    3    8 1   
     7    4    5 ar  
     8    4   15 1   
     9    5    6 ar  
    10    5   16 1   
    11    6    7 1   
    12    7   27 1   
    13    8    9 1   
    14    8   12 1   
    15    8   17 1   
    16    9   10 1   
    17    9   18 1   
    18    9   19 1   
    19   10   11 1   
    20   10   20 1   
    21   10   21 1   
    22   11   12 1   
    23   11   22 1   
    24   11   23 1   
    25   12   13 1   
    26   13   24 1   
    27   13   25 1   
    28   13   26 1   
@<TRIPOS>SUBSTRUCTURE
     1 HNK         1 TEMP              0 ****  ****    0 ROOT
