@<TRIPOS>MOLECULE
HNK
   27    28     1     0     0
SMALL
bcc


@<TRIPOS>ATOM
      1 N1          2.0840   -1.0710   -0.3470 nb        1 HNK     -0.743000
      2 C2          0.7630   -0.8290   -0.3190 ca        1 HNK      0.460200
      3 C3          0.1990    0.4270   -0.0130 ca        1 HNK     -0.227600
      4 C4          1.0670    1.4850    0.2870 ca        1 HNK     -0.066000
      5 C5          2.4420    1.2770    0.2660 ca        1 HNK     -0.265300
      6 C6          2.9030   -0.0230   -0.0580 ca        1 HNK      0.621600
      7 O6          4.2680   -0.1950   -0.0700 oh        1 HNK     -0.618300
      8 C7         -1.2860    0.6430   -0.0200 c3        1 HNK      0.229800
      9 C8         -1.8200    0.7390   -1.4700 c3        1 HNK     -0.084400
     10 C9         -3.1100   -0.0680   -1.4990 c3        1 HNK     -0.093400
     11 C10        -3.1750   -0.8120   -0.1570 c3        1 HNK      0.161800
     12 N11        -2.0200   -0.4420    0.6610 n3        1 HNK     -0.730600
     13 C12        -2.3360   -0.1570    2.0370 c3        1 HNK      0.159100
     14 H2          0.1170   -1.6970   -0.5490 h4        1 HNK      0.038100
     15 H4          0.6680    2.4800    0.5390 ha        1 HNK      0.138000
     16 H5          3.1610    2.0730    0.4900 ha        1 HNK      0.158000
     17 H7         -1.4920    1.6320    0.4950 h1        1 HNK      0.035700
     18 H8         -1.9980    1.8070   -1.7420 hc        1 HNK      0.053200
     19 H8A        -1.0730    0.3190   -2.1880 hc        1 HNK      0.053200
     20 H9         -3.9980    0.6000   -1.6170 hc        1 HNK      0.048700
     21 H9A        -3.1130   -0.7920   -2.3500 hc        1 HNK      0.048700
     22 H10        -4.1490   -0.5920    0.3600 h1        1 HNK      0.042200
     23 H10A       -3.1180   -1.9230   -0.3200 h1        1 HNK      0.042200
     24 H12        -3.0250    0.7220    2.1720 h1        1 HNK      0.033367
     25 H12A       -2.8250   -1.0630    2.4840 h1        1 HNK      0.033367
     26 H12B       -1.3830    0.0500    2.5900 h1        1 HNK      0.033367
     27 HO6         4.4750   -1.1170   -0.2950 ho        1 HNK      0.439000
@<TRIPOS>BOND
     1    1    2 ar  
     2    1    6 ar  
     3    2    3 ar  
     4    2   14 1   
     5    3    4 ar  
     6    3    8 1   
     7    4    5 ar  
     8    4   15 1   
     9    5    6 ar  
    10    5   16 1   
    11    6    7 1   
    12    7   27 1   
    13    8    9 1   
    14    8   12 1   
    15    8   17 1   
    16    9   10 1   
    17    9   18 1   
    18    9   19 1   
    19   10   11 1   
    20   10   20 1   
    21   10   21 1   
    22   11   12 1   
    23   11   22 1   
    24   11   23 1   
    25   12   13 1   
    26   13   24 1   
    27   13   25 1   
    28   13   26 1   
@<TRIPOS>SUBSTRUCTURE
     1 HNK         1 TEMP              0 ****  ****    0 ROOT
