@<TRIPOS>MOLECULE
HNK
   27    28     1     0     0
SMALL
bcc


@<TRIPOS>ATOM
      1 N1         -0.0600   -0.1790    0.0480 nb        1 HNK     -0.743000
      2 C2          1.2830   -0.1670    0.0350 ca        1 HNK      0.460200
      3 C3          2.0810   -0.0650    1.1940 ca        1 HNK     -0.227600
      4 C4          1.4350    0.0370    2.4330 ca        1 HNK     -0.066000
      5 C5          0.0450    0.0260    2.4900 ca        1 HNK     -0.265300
      6 C6         -0.6600   -0.0840    1.2660 ca        1 HNK      0.621600
      7 O6         -2.0330   -0.0920    1.3580 oh        1 HNK     -0.618300
      8 C7          3.5790   -0.0810    1.1190 c3        1 HNK      0.229800
      9 C8          4.1010   -1.5170    0.8680 c3        1 HNK     -0.084400
     10 C9          5.2130   -1.3870   -0.1630 c3        1 HNK     -0.093400
     11 C10         5.1530    0.0600   -0.6720 c3        1 HNK      0.161800
     12 N11         4.1020    0.7850    0.0430 n3        1 HNK     -0.730600
     13 C12         4.4870    2.0990    0.4880 c3        1 HNK      0.159100
     14 H2          1.7480   -0.2370   -0.9660 h4        1 HNK      0.038100
     15 H4          2.0200    0.1260    3.3610 ha        1 HNK      0.138000
     16 H5         -0.5060    0.1010    3.4350 ha        1 HNK      0.158000
     17 H7          3.9770    0.2660    2.1220 h1        1 HNK      0.035700
     18 H8          4.4760   -1.9600    1.8220 hc        1 HNK      0.053200
     19 H8A         3.2780   -2.1680    0.4840 hc        1 HNK      0.053200
     20 H9          6.2100   -1.5990    0.2940 hc        1 HNK      0.048700
     21 H9A         5.0660   -2.1060   -1.0060 hc        1 HNK      0.048700
     22 H10         4.8830    0.0840   -1.7630 h1        1 HNK      0.042200
     23 H10A        6.1590    0.5510   -0.5580 h1        1 HNK      0.042200
     24 H12         3.5980    2.5920    0.9620 h1        1 HNK      0.033367
     25 H12A        5.3330    2.0990    1.2300 h1        1 HNK      0.033367
     26 H12B        4.8000    2.6990   -0.4060 h1        1 HNK      0.033367
     27 HO6        -2.4150   -0.1630    0.4680 ho        1 HNK      0.439000
@<TRIPOS>BOND
     1    1    2 ar  
     2    1    6 ar  
     3    2    3 ar  
     4    2   14 1   
     5    3    4 ar  
     6    3    8 1   
     7    4    5 ar  
     8    4   15 1   
     9    5    6 ar  
    10    5   16 1   
    11    6    7 1   
    12    7   27 1   
    13    8    9 1   
    14    8   12 1   
    15    8   17 1   
    16    9   10 1   
    17    9   18 1   
    18    9   19 1   
    19   10   11 1   
    20   10   20 1   
    21   10   21 1   
    22   11   12 1   
    23   11   22 1   
    24   11   23 1   
    25   12   13 1   
    26   13   24 1   
    27   13   25 1   
    28   13   26 1   
@<TRIPOS>SUBSTRUCTURE
     1 HNK         1 TEMP              0 ****  ****    0 ROOT
