@<TRIPOS>MOLECULE
HNL
   27    28     1     0     0
SMALL
bcc


@<TRIPOS>ATOM
      1 N1         -0.0550    0.1850    0.0280 nb        1 HNL     -0.743000
      2 C2          1.4230   -0.0530    2.4220 ca        1 HNL     -0.066000
      3 C3          2.0780    0.0610    1.1880 ca        1 HNL     -0.227600
      4 C4          1.2880    0.1730    0.0250 ca        1 HNL      0.460200
      5 C5          0.0320   -0.0430    2.4690 ca        1 HNL     -0.265300
      6 C6         -0.6640    0.0780    1.2410 ca        1 HNL      0.621600
      7 O6         -2.0370    0.0850    1.3230 oh        1 HNL     -0.618300
      8 C7          3.5770    0.0780    1.1240 c3        1 HNL      0.229800
      9 C8          4.1000    1.5170    0.8890 c3        1 HNL     -0.084400
     10 C9          5.2180    1.3960   -0.1350 c3        1 HNL     -0.093400
     11 C10         5.1640   -0.0470   -0.6560 c3        1 HNL      0.161800
     12 N11         4.1070   -0.7780    0.0450 n3        1 HNL     -0.730600
     13 C12         4.4890   -2.0960    0.4820 c3        1 HNL      0.159100
     14 H2          2.0010   -0.1510    3.3530 ha        1 HNL      0.138000
     15 H4          1.7610    0.2530   -0.9720 h4        1 HNL      0.038100
     16 H5         -0.5250   -0.1280    3.4090 ha        1 HNL      0.158000
     17 H7          3.9670   -0.2770    2.1280 h1        1 HNL      0.035700
     18 H8          3.2790    2.1710    0.5050 hc        1 HNL      0.053200
     19 H8A         4.4670    1.9520    1.8500 hc        1 HNL      0.053200
     20 H9          6.2130    1.6050    0.3310 hc        1 HNL      0.048700
     21 H9A         5.0770    2.1220   -0.9730 hc        1 HNL      0.048700
     22 H10         6.1690   -0.5380   -0.5380 h1        1 HNL      0.042200
     23 H10A        4.9020   -0.0610   -1.7490 h1        1 HNL      0.042200
     24 H12         5.3300   -2.1010    1.2300 h1        1 HNL      0.033367
     25 H12A        4.8100   -2.6880   -0.4160 h1        1 HNL      0.033367
     26 H12B        3.5970   -2.5940    0.9450 h1        1 HNL      0.033367
     27 H16        -2.4130    0.1650    0.4300 ho        1 HNL      0.439000
@<TRIPOS>BOND
     1    1    4 ar  
     2    1    6 ar  
     3    2    3 ar  
     4    2    5 ar  
     5    2   14 1   
     6    3    4 ar  
     7    3    8 1   
     8    4   15 1   
     9    5    6 ar  
    10    5   16 1   
    11    6    7 1   
    12    7   27 1   
    13    8    9 1   
    14    8   12 1   
    15    8   17 1   
    16    9   10 1   
    17    9   18 1   
    18    9   19 1   
    19   10   11 1   
    20   10   20 1   
    21   10   21 1   
    22   11   12 1   
    23   11   22 1   
    24   11   23 1   
    25   12   13 1   
    26   13   24 1   
    27   13   25 1   
    28   13   26 1   
@<TRIPOS>SUBSTRUCTURE
     1 HNL         1 TEMP              0 ****  ****    0 ROOT
