@<TRIPOS>MOLECULE
HNL
   27    28     1     0     0
SMALL
bcc


@<TRIPOS>ATOM
      1 N1         -0.0580    0.1840    0.0360 nb        1 HNL     -0.743000
      2 C2          1.4270   -0.0470    2.4260 ca        1 HNL     -0.066000
      3 C3          2.0790    0.0620    1.1910 ca        1 HNL     -0.227600
      4 C4          1.2860    0.1710    0.0290 ca        1 HNL      0.460200
      5 C5          0.0370   -0.0350    2.4770 ca        1 HNL     -0.265300
      6 C6         -0.6620    0.0830    1.2510 ca        1 HNL      0.621600
      7 O6         -2.0350    0.0910    1.3370 oh        1 HNL     -0.618300
      8 C7          3.5780    0.0770    1.1220 c3        1 HNL      0.229800
      9 C8          4.1020    1.5150    0.8840 c3        1 HNL     -0.084400
     10 C9          5.2170    1.3920   -0.1430 c3        1 HNL     -0.093400
     11 C10         5.1600   -0.0510   -0.6620 c3        1 HNL      0.161800
     12 N11         4.1050   -0.7810    0.0420 n3        1 HNL     -0.730600
     13 C12         4.4860   -2.0990    0.4790 c3        1 HNL      0.159100
     14 H2          2.0080   -0.1420    3.3570 ha        1 HNL      0.138000
     15 H4          1.7560    0.2470   -0.9700 h4        1 HNL      0.038100
     16 H5         -0.5170   -0.1150    3.4200 ha        1 HNL      0.158000
     17 H7          3.9710   -0.2780    2.1250 h1        1 HNL      0.035700
     18 H8          4.4720    1.9500    1.8430 hc        1 HNL      0.053200
     19 H8A         3.2810    2.1700    0.5010 hc        1 HNL      0.053200
     20 H9          5.0750    2.1170   -0.9810 hc        1 HNL      0.048700
     21 H9A         6.2130    1.6000    0.3200 hc        1 HNL      0.048700
     22 H10         4.8950   -0.0670   -1.7550 h1        1 HNL      0.042200
     23 H10A        6.1650   -0.5440   -0.5470 h1        1 HNL      0.042200
     24 H12         4.8030   -2.6920   -0.4180 h1        1 HNL      0.033367
     25 H12A        3.5950   -2.5950    0.9460 h1        1 HNL      0.033367
     26 H12B        5.3290   -2.1040    1.2250 h1        1 HNL      0.033367
     27 H16        -2.4140    0.1690    0.4460 ho        1 HNL      0.439000
@<TRIPOS>BOND
     1    1    4 ar  
     2    1    6 ar  
     3    2    3 ar  
     4    2    5 ar  
     5    2   14 1   
     6    3    4 ar  
     7    3    8 1   
     8    4   15 1   
     9    5    6 ar  
    10    5   16 1   
    11    6    7 1   
    12    7   27 1   
    13    8    9 1   
    14    8   12 1   
    15    8   17 1   
    16    9   10 1   
    17    9   18 1   
    18    9   19 1   
    19   10   11 1   
    20   10   20 1   
    21   10   21 1   
    22   11   12 1   
    23   11   22 1   
    24   11   23 1   
    25   12   13 1   
    26   13   24 1   
    27   13   25 1   
    28   13   26 1   
@<TRIPOS>SUBSTRUCTURE
     1 HNL         1 TEMP              0 ****  ****    0 ROOT
