@<TRIPOS>MOLECULE
HNL
   27    28     1     0     0
SMALL
bcc


@<TRIPOS>ATOM
      1 N1          2.0810   -0.9470    0.6090 nb        1 HNL     -0.743000
      2 C2          1.0680    1.1730   -0.9570 ca        1 HNL     -0.066000
      3 C3          0.2000    0.3390   -0.2390 ca        1 HNL     -0.227600
      4 C4          0.7620   -0.7060    0.5230 ca        1 HNL      0.460200
      5 C5          2.4410    0.9590   -0.8930 ca        1 HNL     -0.265300
      6 C6          2.9000   -0.1170   -0.0930 ca        1 HNL      0.621600
      7 O6          4.2630   -0.3010   -0.0520 oh        1 HNL     -0.618300
      8 C7         -1.2820    0.5730   -0.2780 c3        1 HNL      0.229800
      9 C8         -1.7650    1.2470    1.0300 c3        1 HNL     -0.084400
     10 C9         -3.0610    0.5460    1.4110 c3        1 HNL     -0.093400
     11 C10        -3.1790   -0.6660    0.4760 c3        1 HNL      0.161800
     12 N11        -2.0490   -0.6760   -0.4540 n3        1 HNL     -0.730600
     13 C12        -2.4090   -0.9510   -1.8210 c3        1 HNL      0.159100
     14 H2          0.6700    1.9950   -1.5710 ha        1 HNL      0.138000
     15 H4          0.1160   -1.3980    1.0960 h4        1 HNL      0.038100
     16 H5          3.1600    1.5850   -1.4340 ha        1 HNL      0.158000
     17 H7         -1.4950    1.2820   -1.1370 h1        1 HNL      0.035700
     18 H8         -0.9990    1.1280    1.8350 hc        1 HNL      0.053200
     19 H8A        -1.9230    2.3390    0.8620 hc        1 HNL      0.053200
     20 H9         -3.0420    0.2170    2.4790 hc        1 HNL      0.048700
     21 H9A        -3.9380    1.2260    1.2800 hc        1 HNL      0.048700
     22 H10        -3.1270   -1.6240    1.0640 h1        1 HNL      0.042200
     23 H10A       -4.1680   -0.6460   -0.0590 h1        1 HNL      0.042200
     24 H12        -1.4730   -1.0000   -2.4360 h1        1 HNL      0.033367
     25 H12A       -2.9220   -1.9480   -1.8590 h1        1 HNL      0.033367
     26 H12B       -3.0930   -0.1810   -2.2740 h1        1 HNL      0.033367
     27 H16         4.4680   -1.0640    0.5140 ho        1 HNL      0.439000
@<TRIPOS>BOND
     1    1    4 ar  
     2    1    6 ar  
     3    2    3 ar  
     4    2    5 ar  
     5    2   14 1   
     6    3    4 ar  
     7    3    8 1   
     8    4   15 1   
     9    5    6 ar  
    10    5   16 1   
    11    6    7 1   
    12    7   27 1   
    13    8    9 1   
    14    8   12 1   
    15    8   17 1   
    16    9   10 1   
    17    9   18 1   
    18    9   19 1   
    19   10   11 1   
    20   10   20 1   
    21   10   21 1   
    22   11   12 1   
    23   11   22 1   
    24   11   23 1   
    25   12   13 1   
    26   13   24 1   
    27   13   25 1   
    28   13   26 1   
@<TRIPOS>SUBSTRUCTURE
     1 HNL         1 TEMP              0 ****  ****    0 ROOT
