@<TRIPOS>MOLECULE
HNL
   27    28     1     0     0
SMALL
bcc


@<TRIPOS>ATOM
      1 N1         -0.0590    0.1830    0.0440 nb        1 HNL     -0.743000
      2 C2          1.4320   -0.0450    2.4300 ca        1 HNL     -0.066000
      3 C3          2.0800    0.0630    1.1930 ca        1 HNL     -0.227600
      4 C4          1.2840    0.1700    0.0330 ca        1 HNL      0.460200
      5 C5          0.0420   -0.0340    2.4850 ca        1 HNL     -0.265300
      6 C6         -0.6610    0.0820    1.2610 ca        1 HNL      0.621600
      7 O6         -2.0340    0.0900    1.3500 oh        1 HNL     -0.618300
      8 C7          3.5790    0.0780    1.1200 c3        1 HNL      0.229800
      9 C8          4.1010    1.5160    0.8770 c3        1 HNL     -0.084400
     10 C9          5.2140    1.3910   -0.1530 c3        1 HNL     -0.093400
     11 C10         5.1560   -0.0530   -0.6680 c3        1 HNL      0.161800
     12 N11         4.1030   -0.7810    0.0410 n3        1 HNL     -0.730600
     13 C12         4.4870   -2.0990    0.4800 c3        1 HNL      0.159100
     14 H2          2.0150   -0.1390    3.3590 ha        1 HNL      0.138000
     15 H4          1.7510    0.2450   -0.9670 h4        1 HNL      0.038100
     16 H5         -0.5100   -0.1140    3.4290 ha        1 HNL      0.158000
     17 H7          3.9750   -0.2740    2.1230 h1        1 HNL      0.035700
     18 H8          4.4740    1.9540    1.8340 hc        1 HNL      0.053200
     19 H8A         3.2790    2.1700    0.4950 hc        1 HNL      0.053200
     20 H9          5.0690    2.1140   -0.9920 hc        1 HNL      0.048700
     21 H9A         6.2110    1.6000    0.3070 hc        1 HNL      0.048700
     22 H10         6.1620   -0.5450   -0.5550 h1        1 HNL      0.042200
     23 H10A        4.8880   -0.0710   -1.7600 h1        1 HNL      0.042200
     24 H12         5.3310   -2.1020    1.2230 h1        1 HNL      0.033367
     25 H12A        4.8010   -2.6940   -0.4170 h1        1 HNL      0.033367
     26 H12B        3.5970   -2.5940    0.9500 h1        1 HNL      0.033367
     27 H16        -2.4140    0.1660    0.4600 ho        1 HNL      0.439000
@<TRIPOS>BOND
     1    1    4 ar  
     2    1    6 ar  
     3    2    3 ar  
     4    2    5 ar  
     5    2   14 1   
     6    3    4 ar  
     7    3    8 1   
     8    4   15 1   
     9    5    6 ar  
    10    5   16 1   
    11    6    7 1   
    12    7   27 1   
    13    8    9 1   
    14    8   12 1   
    15    8   17 1   
    16    9   10 1   
    17    9   18 1   
    18    9   19 1   
    19   10   11 1   
    20   10   20 1   
    21   10   21 1   
    22   11   12 1   
    23   11   22 1   
    24   11   23 1   
    25   12   13 1   
    26   13   24 1   
    27   13   25 1   
    28   13   26 1   
@<TRIPOS>SUBSTRUCTURE
     1 HNL         1 TEMP              0 ****  ****    0 ROOT
