@<TRIPOS>MOLECULE
HNL
   27    25     1     0     0
SMALL
bcc


@<TRIPOS>ATOM
      1 N1         -2.8730    0.7580    0.2200 n1        1 HNL     -0.542800
      2 C2         -1.4630   -1.5570   -0.2420 c1        1 HNL     -0.075500
      3 C3         -0.7990   -0.3830   -0.0360 c1        1 HNL     -0.128100
      4 C4         -1.5110    0.7840    0.1970 c1        1 HNL      0.052500
      5 C5         -2.8280   -1.5810   -0.2190 c1        1 HNL     -0.075500
      6 C6         -3.5370   -0.4140    0.0140 c1        1 HNL      0.477400
      7 O6         -4.9430   -0.4440    0.0680 oh        1 HNL     -0.476600
      8 C7          0.7450   -0.3530   -0.0630 c3        1 HNL      0.195600
      9 C8          1.3220   -0.4160    1.4130 c3        1 HNL     -0.084400
     10 C9          2.3340    0.6960    1.4980 c3        1 HNL     -0.093400
     11 C10         2.5140    1.0890    0.2490 c3        1 HNL      0.161800
     12 N11         1.1540    0.7490   -0.5320 n3        1 HNL     -0.730600
     13 C12         1.4290    0.6020   -1.9230 c3        1 HNL      0.159100
     14 H2         -0.9630   -2.3790   -0.4060 ha        1 HNL      0.090500
     15 H4         -1.0360    1.6240    0.3450 ha        1 HNL      0.117500
     16 H5         -3.3030   -2.4210   -0.3660 ha        1 HNL      0.090500
     17 H7          1.0900   -1.0980   -0.5950 h1        1 HNL      0.035700
     18 H8          1.7540   -1.2800    1.5710 hc        1 HNL      0.053200
     19 H8A         0.6050   -0.2720    2.0630 hc        1 HNL      0.053200
     20 H9          3.1740    0.3630    1.8750 hc        1 HNL      0.048700
     21 H9A         1.9840    1.4330    2.0400 hc        1 HNL      0.048700
     22 H10         2.6860    2.0540    0.2210 h1        1 HNL      0.042200
     23 H10A        3.2630    0.6020   -0.1530 h1        1 HNL      0.042200
     24 H12         0.6200    0.8070   -2.4400 h1        1 HNL      0.033367
     25 H12A        1.7080   -0.3210   -2.1050 h1        1 HNL      0.033367
     26 H12B        2.1480    1.2180   -2.1820 h1        1 HNL      0.033367
     27 H16        -5.2740    0.1420   -0.5130 ho        1 HNL      0.439000
@<TRIPOS>BOND
     1    1    6 3   
     2    2    5 3   
     3    2   14 1   
     4    3    4 3   
     5    3    8 1   
     6    4   15 1   
     7    5   16 1   
     8    6    7 1   
     9    7   27 1   
    10    8    9 1   
    11    8   12 1   
    12    8   17 1   
    13    9   10 1   
    14    9   18 1   
    15    9   19 1   
    16   10   11 1   
    17   10   20 1   
    18   10   21 1   
    19   11   12 1   
    20   11   22 1   
    21   11   23 1   
    22   12   13 1   
    23   13   24 1   
    24   13   25 1   
    25   13   26 1   
@<TRIPOS>SUBSTRUCTURE
     1 HNL         1 TEMP              0 ****  ****    0 ROOT
