@<TRIPOS>MOLECULE
HNM
   29    29     1     0     0
SMALL
bcc


@<TRIPOS>ATOM
      1 N1          0.0080   -0.1410   -0.0480 nb        1 HNM     -0.745000
      2 C2          1.3440   -0.1000    0.0360 ca        1 HNM      0.482200
      3 C3          2.0580   -0.0240    1.2510 ca        1 HNM     -0.355900
      4 C4          1.3160    0.0120    2.4510 ca        1 HNM      0.001000
      5 C5         -0.0680   -0.0290    2.4060 ca        1 HNM     -0.269300
      6 C6         -0.6860   -0.1060    1.1270 ca        1 HNM      0.675600
      7 O6         -2.0500   -0.1440    1.1200 oh        1 HNM     -0.590300
      8 C7          3.5180    0.0200    1.3120 c         1 HNM      0.599700
      9 O7          4.1470    0.0870    2.3760 o         1 HNM     -0.539100
     10 C8          4.2610   -0.0210   -0.0060 c3        1 HNM     -0.183400
     11 C9          5.7570    0.0320    0.2310 c3        1 HNM     -0.108400
     12 C10         6.4950   -0.0100   -1.0990 c3        1 HNM      0.101800
     13 N11         7.9810    0.0400   -0.9150 n4        1 HNM     -0.758000
     14 C12         8.7060    0.0000   -2.2040 c3        1 HNM      0.077100
     15 H2          1.8650   -0.1310   -0.9390 h4        1 HNM      0.016100
     16 H4          1.8490    0.0710    3.4150 ha        1 HNM      0.170000
     17 H5         -0.6900   -0.0040    3.3110 ha        1 HNM      0.180000
     18 H8          3.9340    0.8510   -0.6320 hc        1 HNM      0.079700
     19 H8A         3.9840   -0.9640   -0.5470 hc        1 HNM      0.079700
     20 H9          6.0030    0.9710    0.7970 hc        1 HNM      0.084700
     21 H9A         6.0530   -0.8360    0.8810 hc        1 HNM      0.084700
     22 H10         6.1990    0.8700   -1.7400 hx        1 HNM      0.106700
     23 H10A        6.2500   -0.9600   -1.6550 hx        1 HNM      0.106700
     24 HN11        8.2230    0.9010   -0.4080 hn        1 HNM      0.456800
     25 H12         9.8120    0.0400   -2.0080 hx        1 HNM      0.112033
     26 H12A        8.4550   -0.9500   -2.7480 hx        1 HNM      0.112033
     27 H12B        8.4040    0.8800   -2.8340 hx        1 HNM      0.112033
     28 H14        -2.3820   -0.1960    0.2050 ho        1 HNM      0.456000
     29 H112        8.2700   -0.7560   -0.3310 hn        1 HNM      0.456800
@<TRIPOS>BOND
     1    1    2 ar  
     2    1    6 ar  
     3    2    3 ar  
     4    2   15 1   
     5    3    4 ar  
     6    3    8 1   
     7    4    5 ar  
     8    4   16 1   
     9    5    6 ar  
    10    5   17 1   
    11    6    7 1   
    12    7   28 1   
    13    8    9 2   
    14    8   10 1   
    15   10   11 1   
    16   10   18 1   
    17   10   19 1   
    18   11   12 1   
    19   11   20 1   
    20   11   21 1   
    21   12   13 1   
    22   12   22 1   
    23   12   23 1   
    24   13   14 1   
    25   13   24 1   
    26   13   29 1   
    27   14   25 1   
    28   14   26 1   
    29   14   27 1   
@<TRIPOS>SUBSTRUCTURE
     1 HNM         1 TEMP              0 ****  ****    0 ROOT
