@<TRIPOS>MOLECULE
HNM
   29    29     1     0     0
SMALL
bcc


@<TRIPOS>ATOM
      1 N1          0.0080   -0.1360   -0.0510 nb        1 HNM     -0.745000
      2 C2          1.3440   -0.0970    0.0350 ca        1 HNM      0.482200
      3 C3          2.0580   -0.0210    1.2500 ca        1 HNM     -0.355900
      4 C4          1.3140    0.0160    2.4490 ca        1 HNM      0.001000
      5 C5         -0.0700   -0.0220    2.4030 ca        1 HNM     -0.269300
      6 C6         -0.6870   -0.0980    1.1240 ca        1 HNM      0.675600
      7 O6         -2.0510   -0.1340    1.1150 oh        1 HNM     -0.590300
      8 C7          3.5170    0.0200    1.3110 c         1 HNM      0.599700
      9 O7          4.1460    0.0860    2.3760 o         1 HNM     -0.539100
     10 C8          4.2610   -0.0220   -0.0060 c3        1 HNM     -0.183400
     11 C9          5.7570    0.0280    0.2320 c3        1 HNM     -0.108400
     12 C10         6.4960   -0.0130   -1.0970 c3        1 HNM      0.101800
     13 N11         7.9820    0.0340   -0.9120 n4        1 HNM     -0.758000
     14 C12         8.7080   -0.0040   -2.2010 c3        1 HNM      0.077100
     15 H2          1.8660   -0.1300   -0.9400 h4        1 HNM      0.016100
     16 H4          1.8470    0.0760    3.4140 ha        1 HNM      0.170000
     17 H5         -0.6930    0.0050    3.3080 ha        1 HNM      0.180000
     18 H8          3.9360    0.8500   -0.6320 hc        1 HNM      0.079700
     19 H8A         3.9830   -0.9650   -0.5470 hc        1 HNM      0.079700
     20 H9          6.0040    0.9660    0.8000 hc        1 HNM      0.084700
     21 H9A         6.0510   -0.8410    0.8820 hc        1 HNM      0.084700
     22 H10         6.2490   -0.9620   -1.6550 hx        1 HNM      0.106700
     23 H10A        6.2010    0.8670   -1.7380 hx        1 HNM      0.106700
     24 HN11        8.2250    0.8940   -0.4040 hn        1 HNM      0.456800
     25 H12         8.4080    0.8780   -2.8290 hx        1 HNM      0.112033
     26 H12A        8.4560   -0.9530   -2.7470 hx        1 HNM      0.112033
     27 H12B        9.8140    0.0330   -2.0040 hx        1 HNM      0.112033
     28 H14        -2.3820   -0.1860    0.2010 ho        1 HNM      0.456000
     29 H112        8.2690   -0.7630   -0.3300 hn        1 HNM      0.456800
@<TRIPOS>BOND
     1    1    2 ar  
     2    1    6 ar  
     3    2    3 ar  
     4    2   15 1   
     5    3    4 ar  
     6    3    8 1   
     7    4    5 ar  
     8    4   16 1   
     9    5    6 ar  
    10    5   17 1   
    11    6    7 1   
    12    7   28 1   
    13    8    9 2   
    14    8   10 1   
    15   10   11 1   
    16   10   18 1   
    17   10   19 1   
    18   11   12 1   
    19   11   20 1   
    20   11   21 1   
    21   12   13 1   
    22   12   22 1   
    23   12   23 1   
    24   13   14 1   
    25   13   24 1   
    26   13   29 1   
    27   14   25 1   
    28   14   26 1   
    29   14   27 1   
@<TRIPOS>SUBSTRUCTURE
     1 HNM         1 TEMP              0 ****  ****    0 ROOT
