@<TRIPOS>MOLECULE
HNM
   28    25     1     0     0
SMALL
bcc


@<TRIPOS>ATOM
      1 N1         -2.4600   -2.8670   -0.4970 n1        1 HNM     -0.549800
      2 C2         -1.8690   -1.6920   -0.1060 c1        1 HNM      0.066500
      3 C3         -1.9040   -0.5830   -0.9490 cg        1 HNM     -0.217200
      4 C4         -2.5240   -0.6660   -2.1580 c1        1 HNM     -0.053000
      5 C5         -3.1130   -1.8380   -2.5470 c1        1 HNM     -0.053000
      6 C6         -3.0800   -2.9480   -1.7070 c1        1 HNM      0.507400
      7 O6         -3.8040   -4.1080   -2.0500 oh        1 HNM     -0.466600
      8 C7         -1.0580    0.6710   -0.6040 c         1 HNM      0.536300
      9 O7         -1.0870    1.6810   -1.3680 o         1 HNM     -0.535100
     10 C8         -0.2680    0.7340    0.7510 c3        1 HNM     -0.175400
     11 C9          0.8320    1.7660    0.6460 c3        1 HNM     -0.081400
     12 C10         1.9730    1.4030    1.6080 c3        1 HNM      0.163800
     13 N11         3.2170    1.9440    1.1150 n3        1 HNM     -0.826200
     14 C12         4.2920    1.4530    1.9140 c3        1 HNM      0.153100
     15 H2         -1.4440   -1.6350    0.7230 ha        1 HNM      0.106500
     16 H4         -2.5480    0.1000   -2.7410 ha        1 HNM      0.109000
     17 H5         -3.5630   -1.8960   -3.4260 ha        1 HNM      0.109000
     18 H8          0.1190   -0.1340    0.9400 hc        1 HNM      0.066700
     19 H8A        -0.8880    0.9880    1.4840 hc        1 HNM      0.066700
     20 H9          0.4830    2.6240    0.8790 hc        1 HNM      0.062700
     21 H9A         1.1630    1.7900   -0.2480 hc        1 HNM      0.062700
     22 H10         2.0440    0.4530    1.6800 h1        1 HNM      0.025700
     23 H10A        1.7910    1.7700    2.4610 h1        1 HNM      0.025700
     24 HN11        3.3400    1.6900    0.2590 hn        1 HNM      0.360800
     25 H12         5.1300    1.8100    1.5870 h1        1 HNM      0.029700
     26 H12A        4.1540    1.7370    2.8700 h1        1 HNM      0.029700
     27 H12B        4.3140    0.4780    1.8650 h1        1 HNM      0.029700
     28 H14        -3.2430   -4.7230   -2.3820 ho        1 HNM      0.445000
@<TRIPOS>BOND
     1    1    6 3   
     2    2    3 3   
     3    2   15 1   
     4    3    8 1   
     5    4    5 3   
     6    4   16 1   
     7    5   17 1   
     8    6    7 1   
     9    7   28 1   
    10    8    9 2   
    11    8   10 1   
    12   10   11 1   
    13   10   18 1   
    14   10   19 1   
    15   11   12 1   
    16   11   20 1   
    17   11   21 1   
    18   12   13 1   
    19   12   22 1   
    20   12   23 1   
    21   13   14 1   
    22   13   24 1   
    23   14   25 1   
    24   14   26 1   
    25   14   27 1   
@<TRIPOS>SUBSTRUCTURE
     1 HNM         1 TEMP              0 ****  ****    0 ROOT
