@<TRIPOS>MOLECULE
HNM
   28    28     1     0     0
SMALL
bcc


@<TRIPOS>ATOM
      1 N1          2.7950   -1.3900   -0.2080 nb        1 HNM     -0.750000
      2 C2          1.5410   -0.9180   -0.1200 ca        1 HNM      0.474200
      3 C3          1.2200    0.4470    0.0220 ca        1 HNM     -0.333900
      4 C4          2.2800    1.3710    0.0760 ca        1 HNM     -0.012000
      5 C5          3.5910    0.9250   -0.0120 ca        1 HNM     -0.274300
      6 C6          3.8000   -0.4710   -0.1540 ca        1 HNM      0.651600
      7 O6          5.1060   -0.8820   -0.2390 oh        1 HNM     -0.608300
      8 C7         -0.1690    0.9300    0.1160 c         1 HNM      0.587700
      9 O7         -0.4200    2.1280    0.3030 o         1 HNM     -0.535100
     10 C8         -1.2550   -0.1000   -0.0250 c3        1 HNM     -0.175400
     11 C9         -2.6370    0.5160    0.0010 c3        1 HNM     -0.081400
     12 C10        -3.6970   -0.5810   -0.0570 c3        1 HNM      0.163800
     13 N11        -5.0480   -0.0640   -0.1450 n3        1 HNM     -0.826200
     14 C12        -6.0620   -1.0630    0.0540 c3        1 HNM      0.153100
     15 H2          0.7530   -1.6940   -0.1670 h4        1 HNM      0.027100
     16 H4          2.0540    2.4450    0.1900 ha        1 HNM      0.167000
     17 H5          4.4500    1.6060    0.0250 ha        1 HNM      0.166000
     18 H8         -1.1050   -0.6530   -0.9900 hc        1 HNM      0.066700
     19 H8A        -1.1500   -0.8400    0.8140 hc        1 HNM      0.066700
     20 H9         -2.7560    1.1280    0.9340 hc        1 HNM      0.062700
     21 H9A        -2.7500    1.2170   -0.8680 hc        1 HNM      0.062700
     22 H10        -3.5250   -1.2140   -0.9740 h1        1 HNM      0.025700
     23 H10A       -3.5590   -1.2560    0.8410 h1        1 HNM      0.025700
     24 HN11       -5.1740    0.7040    0.4880 hn        1 HNM      0.360800
     25 H12        -5.9610   -1.8510   -0.7390 h1        1 HNM      0.029700
     26 H12A       -6.0110   -1.5720    1.0570 h1        1 HNM      0.029700
     27 H12B       -7.0680   -0.5770   -0.0480 h1        1 HNM      0.029700
     28 H14         5.1410   -1.8490   -0.3350 ho        1 HNM      0.445000
@<TRIPOS>BOND
     1    1    2 ar  
     2    1    6 ar  
     3    2    3 ar  
     4    2   15 1   
     5    3    4 ar  
     6    3    8 1   
     7    4    5 ar  
     8    4   16 1   
     9    5    6 ar  
    10    5   17 1   
    11    6    7 1   
    12    7   28 1   
    13    8    9 2   
    14    8   10 1   
    15   10   11 1   
    16   10   18 1   
    17   10   19 1   
    18   11   12 1   
    19   11   20 1   
    20   11   21 1   
    21   12   13 1   
    22   12   22 1   
    23   12   23 1   
    24   13   14 1   
    25   13   24 1   
    26   14   25 1   
    27   14   26 1   
    28   14   27 1   
@<TRIPOS>SUBSTRUCTURE
     1 HNM         1 TEMP              0 ****  ****    0 ROOT
