@<TRIPOS>MOLECULE
HNM
   29    29     1     0     0
SMALL
bcc


@<TRIPOS>ATOM
      1 N1          0.0070   -0.1300   -0.0500 nb        1 HNM     -0.745000
      2 C2          1.3440   -0.0930    0.0360 ca        1 HNM      0.482200
      3 C3          2.0580   -0.0240    1.2510 ca        1 HNM     -0.355900
      4 C4          1.3150    0.0080    2.4510 ca        1 HNM      0.001000
      5 C5         -0.0690   -0.0280    2.4050 ca        1 HNM     -0.269300
      6 C6         -0.6860   -0.0970    1.1260 ca        1 HNM      0.675600
      7 O6         -2.0510   -0.1320    1.1180 oh        1 HNM     -0.590300
      8 C7          3.5180    0.0150    1.3120 c         1 HNM      0.599700
      9 O7          4.1470    0.0750    2.3770 o         1 HNM     -0.539100
     10 C8          4.2610   -0.0220   -0.0060 c3        1 HNM     -0.183400
     11 C9          5.7580    0.0250    0.2310 c3        1 HNM     -0.108400
     12 C10         6.4960   -0.0110   -1.0990 c3        1 HNM      0.101800
     13 N11         7.9810    0.0340   -0.9140 ny        1 HNM     -0.758000
     14 C12         8.7070    0.0000   -2.2030 c3        1 HNM      0.077100
     15 H2          1.8650   -0.1210   -0.9400 h4        1 HNM      0.016100
     16 H4          1.8490    0.0620    3.4150 ha        1 HNM      0.170000
     17 H5         -0.6910   -0.0050    3.3110 ha        1 HNM      0.180000
     18 H8          3.9370    0.8540   -0.6270 hc        1 HNM      0.079700
     19 H8A         3.9820   -0.9610   -0.5520 hc        1 HNM      0.079700
     20 H9          6.0060    0.9610    0.8030 hc        1 HNM      0.084700
     21 H9A         6.0510   -0.8460    0.8770 hc        1 HNM      0.084700
     22 H10         6.2020    0.8730   -1.7350 hx        1 HNM      0.106700
     23 H10A        6.2470   -0.9570   -1.6600 hx        1 HNM      0.106700
     24 HN11        8.2260    0.8920   -0.4020 hn        1 HNM      0.456800
     25 H12         9.8130    0.0350   -2.0070 hx        1 HNM      0.112033
     26 H12A        8.4530   -0.9460   -2.7530 hx        1 HNM      0.112033
     27 H12B        8.4070    0.8850   -2.8280 hx        1 HNM      0.112033
     28 H14        -2.3820   -0.1780    0.2030 ho        1 HNM      0.456000
     29 H112        8.2680   -0.7660   -0.3350 hn        1 HNM      0.456800
@<TRIPOS>BOND
     1    1    2 ar  
     2    1    6 ar  
     3    2    3 ar  
     4    2   15 1   
     5    3    4 ar  
     6    3    8 1   
     7    4    5 ar  
     8    4   16 1   
     9    5    6 ar  
    10    5   17 1   
    11    6    7 1   
    12    7   28 1   
    13    8    9 2   
    14    8   10 1   
    15   10   11 1   
    16   10   18 1   
    17   10   19 1   
    18   11   12 1   
    19   11   20 1   
    20   11   21 1   
    21   12   13 1   
    22   12   22 1   
    23   12   23 1   
    24   13   14 1   
    25   13   24 1   
    26   13   29 1   
    27   14   25 1   
    28   14   26 1   
    29   14   27 1   
@<TRIPOS>SUBSTRUCTURE
     1 HNM         1 TEMP              0 ****  ****    0 ROOT
