@<TRIPOS>MOLECULE
HNP
   28    29     1     0     0
SMALL
bcc


@<TRIPOS>ATOM
      1 C1          0.1770    0.8740   -0.9120 c3        1 HNP      0.233400
      2 C2          1.4910    0.1240   -0.5700 c3        1 HNP      0.063100
      3 C3          3.5460    1.1670   -0.0240 c3        1 HNP      0.178200
      4 C4          3.0880    0.4430    1.2830 c3        1 HNP      0.135100
      5 C5          1.6900   -0.1190    0.9360 c3        1 HNP      0.130100
      6 C6          4.9570    3.0270   -0.3910 c         1 HNP      0.784500
      7 C7          4.9650    0.7050   -0.5120 c         1 HNP      0.713500
      8 N1          3.7030    2.6390    0.1470 ns        1 HNP     -0.506900
      9 N2          5.7270    1.8750   -0.7040 ns        1 HNP     -0.633500
     10 O1         -2.3960    1.1190    0.3750 o         1 HNP     -0.930500
     11 O2         -0.8120   -0.0150   -1.2230 os        1 HNP     -0.555200
     12 O3         -2.9430   -1.2350   -0.5160 o         1 HNP     -0.930500
     13 O4         -0.9710   -0.8480    1.0850 o         1 HNP     -0.930500
     14 O5          2.6200    0.9010   -1.0580 os        1 HNP     -0.433600
     15 O6          1.6760   -1.4960    1.2280 oh        1 HNP     -0.675800
     16 O7          4.0370   -0.5190    1.6710 oh        1 HNP     -0.606800
     17 O8          5.3920   -0.4320   -0.7070 o         1 HNP     -0.587500
     18 O9          5.3880    4.1920   -0.5170 o         1 HNP     -0.671500
     19 P1         -1.9520   -0.2820    0.0740 p5        1 HNP      1.333900
     20 H11         0.4010    1.5260   -1.8080 h1        1 HNP      0.000200
     21 H12        -0.1210    1.5310   -0.0470 h1        1 HNP      0.000200
     22 H2          1.5290   -0.8460   -1.1350 h1        1 HNP      0.081700
     23 H4          3.0350    1.1630    2.1430 h1        1 HNP      0.081700
     24 H5          0.8930    0.4050    1.5360 h1        1 HNP      0.124700
     25 HN1         2.9160    3.1910   -0.1170 hn        1 HNP      0.325500
     26 HN2         6.6640    1.9190   -1.0020 hn        1 HNP      0.329500
     27 HO6         0.7190   -1.7400    1.2600 ho        1 HNP      0.511000
     28 HO7         3.8410   -1.3360    1.1870 ho        1 HNP      0.436000
@<TRIPOS>BOND
     1    1    2 1   
     2    1   11 1   
     3    1   20 1   
     4    1   21 1   
     5    2    5 1   
     6    2   14 1   
     7    2   22 1   
     8    3    4 1   
     9    3    7 1   
    10    3    8 1   
    11    3   14 1   
    12    4    5 1   
    13    4   16 1   
    14    4   23 1   
    15    5   15 1   
    16    5   24 1   
    17    6    8 1   
    18    6    9 1   
    19    6   18 2   
    20    7    9 1   
    21    7   17 2   
    22    8   25 1   
    23    9   26 1   
    24   10   19 1   
    25   11   19 1   
    26   12   19 1   
    27   13   19 1   
    28   15   27 1   
    29   16   28 1   
@<TRIPOS>SUBSTRUCTURE
     1 HNP         1 TEMP              0 ****  ****    0 ROOT
