@<TRIPOS>MOLECULE
HNP
   28    29     1     0     0
SMALL
bcc


@<TRIPOS>ATOM
      1 C1          0.1830    0.8040   -0.9370 c3        1 HNP      0.233400
      2 C2          1.5090    0.0940   -0.5620 c3        1 HNP      0.063100
      3 C3          3.5350    1.1960   -0.0240 c3        1 HNP      0.178200
      4 C4          3.0790    0.4980    1.2980 c3        1 HNP      0.135100
      5 C5          1.6980   -0.1040    0.9520 c3        1 HNP      0.130100
      6 C6          4.9100    3.0760   -0.4270 c         1 HNP      0.784500
      7 C7          4.9690    0.7520   -0.4850 c         1 HNP      0.713500
      8 N1          3.6590    2.6750    0.1080 n         1 HNP     -0.506900
      9 N2          5.7070    1.9330   -0.7020 n         1 HNP     -0.633500
     10 O1         -2.4090    1.0280    0.3160 o         1 HNP     -0.930500
     11 O2         -0.7830   -0.1150   -1.2340 os        1 HNP     -0.555200
     12 O3         -2.8940   -1.3610   -0.5150 o         1 HNP     -0.930500
     13 O4         -0.9490   -0.8860    1.0950 o         1 HNP     -0.930500
     14 O5          2.6250    0.8820   -1.0600 os        1 HNP     -0.433600
     15 O6          1.7100   -1.4730    1.2820 oh        1 HNP     -0.675800
     16 O7          4.0440   -0.4330    1.7210 oh        1 HNP     -0.606800
     17 O8          5.4220   -0.3810   -0.6450 o         1 HNP     -0.587500
     18 O9          5.3170    4.2460   -0.5800 o         1 HNP     -0.671500
     19 P1         -1.9310   -0.3710    0.0580 p5        1 HNP      1.333900
     20 H11        -0.1390    1.4780   -0.0940 h1        1 HNP      0.000200
     21 H12         0.4020    1.4370   -1.8490 h1        1 HNP      0.000200
     22 H2          1.5740   -0.8900   -1.0990 h1        1 HNP      0.081700
     23 H4          3.0020    1.2400    2.1370 h1        1 HNP      0.081700
     24 H5          0.8830    0.4180    1.5300 h1        1 HNP      0.124700
     25 HN1         2.8620    3.2030   -0.1780 hn        1 HNP      0.325500
     26 HN2         6.6460    1.9890   -0.9920 hn        1 HNP      0.329500
     27 HO6         0.7580   -1.7360    1.3110 ho        1 HNP      0.511000
     28 HO7         3.8720   -1.2660    1.2580 ho        1 HNP      0.436000
@<TRIPOS>BOND
     1    1    2 1   
     2    1   11 1   
     3    1   20 1   
     4    1   21 1   
     5    2    5 1   
     6    2   14 1   
     7    2   22 1   
     8    3    4 1   
     9    3    7 1   
    10    3    8 1   
    11    3   14 1   
    12    4    5 1   
    13    4   16 1   
    14    4   23 1   
    15    5   15 1   
    16    5   24 1   
    17    6    8 1   
    18    6    9 1   
    19    6   18 2   
    20    7    9 1   
    21    7   17 2   
    22    8   25 1   
    23    9   26 1   
    24   10   19 1   
    25   11   19 1   
    26   12   19 1   
    27   13   19 1   
    28   15   27 1   
    29   16   28 1   
@<TRIPOS>SUBSTRUCTURE
     1 HNP         1 TEMP              0 ****  ****    0 ROOT
