@<TRIPOS>MOLECULE
HNP
   28    29     1     0     0
SMALL
bcc


@<TRIPOS>ATOM
      1 C1          0.1630    0.8090   -0.8970 c3        1 HNP      0.233400
      2 C2          1.4850    0.0860   -0.5310 c3        1 HNP      0.063100
      3 C3          3.5420    1.1690   -0.0730 c3        1 HNP      0.178200
      4 C4          3.1060    0.5160    1.2790 c3        1 HNP      0.135100
      5 C5          1.7060   -0.0710    0.9830 c3        1 HNP      0.130100
      6 C6          4.9370    3.0120   -0.5620 c         1 HNP      0.784500
      7 C7          4.9570    0.6870   -0.5530 c         1 HNP      0.713500
      8 N1          3.6930    2.6480    0.0130 n         1 HNP     -0.506900
      9 N2          5.7090    1.8480   -0.8220 n         1 HNP     -0.633500
     10 O1         -2.3940    1.1140    0.4090 o         1 HNP     -0.930500
     11 O2         -0.8250   -0.1010   -1.1440 os        1 HNP     -0.555200
     12 O3         -2.9390   -1.2900   -0.3410 o         1 HNP     -0.930500
     13 O4         -0.9490   -0.8030    1.2090 o         1 HNP     -0.930500
     14 O5          2.6030    0.8400   -1.0770 os        1 HNP     -0.433600
     15 O6          1.7040   -1.4300    1.3520 oh        1 HNP     -0.675800
     16 O7          4.0650   -0.4170    1.7070 oh        1 HNP     -0.606800
     17 O8          5.3870   -0.4580   -0.6900 o         1 HNP     -0.587500
     18 O9          5.3600    4.1700   -0.7590 o         1 HNP     -0.671500
     19 P1         -1.9460   -0.3010    0.1810 p5        1 HNP      1.333900
     20 H11         0.3710    1.4110   -1.8310 h1        1 HNP      0.000200
     21 H12        -0.1280    1.5120   -0.0660 h1        1 HNP      0.000200
     22 H2          1.5210   -0.9140   -1.0410 h1        1 HNP      0.081700
     23 H4          3.0600    1.2840    2.0980 h1        1 HNP      0.081700
     24 H5          0.9140    0.4820    1.5640 h1        1 HNP      0.124700
     25 HN1         2.8990    3.1810   -0.2700 hn        1 HNP      0.325500
     26 HN2         6.6420    1.8800   -1.1340 hn        1 HNP      0.329500
     27 HO6         0.7490   -1.6760    1.4110 ho        1 HNP      0.511000
     28 HO7         3.8680   -1.2610    1.2730 ho        1 HNP      0.436000
@<TRIPOS>BOND
     1    1    2 1   
     2    1   11 1   
     3    1   20 1   
     4    1   21 1   
     5    2    5 1   
     6    2   14 1   
     7    2   22 1   
     8    3    4 1   
     9    3    7 1   
    10    3    8 1   
    11    3   14 1   
    12    4    5 1   
    13    4   16 1   
    14    4   23 1   
    15    5   15 1   
    16    5   24 1   
    17    6    8 1   
    18    6    9 1   
    19    6   18 2   
    20    7    9 1   
    21    7   17 2   
    22    8   25 1   
    23    9   26 1   
    24   10   19 1   
    25   11   19 1   
    26   12   19 1   
    27   13   19 1   
    28   15   27 1   
    29   16   28 1   
@<TRIPOS>SUBSTRUCTURE
     1 HNP         1 TEMP              0 ****  ****    0 ROOT
