@<TRIPOS>MOLECULE
HNP
   28    29     1     0     0
SMALL
bcc


@<TRIPOS>ATOM
      1 C1         -0.6630    0.2070    1.4290 c3        1 HNP      0.233400
      2 C2          0.1700   -0.4480    0.2970 c3        1 HNP      0.063100
      3 C3          0.0280    0.1250   -1.9970 c3        1 HNP      0.178200
      4 C4          1.4580    0.5680   -1.5460 c3        1 HNP      0.135100
      5 C5          1.4750    0.3000   -0.0230 c3        1 HNP      0.130100
      6 C6         -1.3760    0.8600   -3.7490 c         1 HNP      0.784500
      7 C7          0.0540   -0.8880   -3.1960 c         1 HNP      0.713500
      8 N1         -0.7970    1.2520   -2.5150 n         1 HNP     -0.506900
      9 N2         -0.8090   -0.3680   -4.1830 n         1 HNP     -0.633500
     10 O1         -0.0200    1.8770    3.6950 o         1 HNP     -0.930500
     11 O2         -0.3780   -0.3780    2.6300 os        1 HNP     -0.555200
     12 O3          0.8170   -0.2480    4.8850 o         1 HNP     -0.930500
     13 O4          1.8950    0.5580    2.6960 o         1 HNP     -0.930500
     14 O5         -0.6350   -0.4960   -0.9140 os        1 HNP     -0.433600
     15 O6          2.5960   -0.4970    0.2790 oh        1 HNP     -0.675800
     16 O7          2.4400   -0.1170   -2.2820 oh        1 HNP     -0.606800
     17 O8          0.6800   -1.9410   -3.3170 o         1 HNP     -0.587500
     18 O9         -2.2060    1.5040   -4.4230 o         1 HNP     -0.671500
     19 P1          0.7010    0.5620    3.6330 p5        1 HNP      1.333900
     20 H11        -0.4610    1.3150    1.4560 h1        1 HNP      0.000200
     21 H12        -1.7500    0.0380    1.1700 h1        1 HNP      0.000200
     22 H2          0.3820   -1.5200    0.5580 h1        1 HNP      0.081700
     23 H4          1.6300    1.6550   -1.7690 h1        1 HNP      0.081700
     24 H5          1.5330    1.2690    0.5490 h1        1 HNP      0.124700
     25 HN1        -1.4070    1.6810   -1.8530 hn        1 HNP      0.325500
     26 HN2        -1.0020   -0.7700   -5.0600 hn        1 HNP      0.329500
     27 HO6         2.7190   -0.4050    1.2550 ho        1 HNP      0.511000
     28 HO7         2.5990   -0.9650   -1.8420 ho        1 HNP      0.436000
@<TRIPOS>BOND
     1    1    2 1   
     2    1   11 1   
     3    1   20 1   
     4    1   21 1   
     5    2    5 1   
     6    2   14 1   
     7    2   22 1   
     8    3    4 1   
     9    3    7 1   
    10    3    8 1   
    11    3   14 1   
    12    4    5 1   
    13    4   16 1   
    14    4   23 1   
    15    5   15 1   
    16    5   24 1   
    17    6    8 1   
    18    6    9 1   
    19    6   18 2   
    20    7    9 1   
    21    7   17 2   
    22    8   25 1   
    23    9   26 1   
    24   10   19 1   
    25   11   19 1   
    26   12   19 1   
    27   13   19 1   
    28   15   27 1   
    29   16   28 1   
@<TRIPOS>SUBSTRUCTURE
     1 HNP         1 TEMP              0 ****  ****    0 ROOT
