@<TRIPOS>MOLECULE
HNP
   28    28     1     0     0
SMALL
bcc


@<TRIPOS>ATOM
      1 C1         -1.0980   -1.1670   -0.3700 c3        1 HNP      0.072000
      2 C2          0.3690   -1.1330   -0.3550 c3        1 HNP     -0.052000
      3 C3          0.8380    1.1670   -0.1840 c3        1 HNP      0.119000
      4 C4          0.9710    0.4120    1.2210 c3        1 HNP      0.031000
      5 C5          0.8140   -1.0940    0.9000 c3        1 HNP      0.019000
      6 C6         -0.1010    3.2480   -0.4960 c1        1 HNP      0.375000
      7 C7          1.9270    2.1470   -0.3570 c2        1 HNP      0.324000
      8 N1         -0.3840    1.8420   -0.2700 n2        1 HNP     -0.319000
      9 N2          1.3400    3.4110   -0.5540 n         1 HNP     -0.414000
     10 O1         -3.3460   -4.1930   -1.0100 o         1 HNP     -0.925500
     11 O2         -1.5350   -2.4880   -0.5820 os        1 HNP     -0.724000
     12 O3         -3.9710   -1.9440   -0.2130 o         1 HNP     -0.925500
     13 O4         -3.1400   -2.2490   -2.5140 o         1 HNP     -0.925500
     14 O5          0.9110    0.2390   -1.0790 os        1 HNP     -0.290000
     15 O6          2.1100   -1.7730    1.0010 oh        1 HNP     -0.411000
     16 O7          2.1520    0.6450    1.7540 oh        1 HNP     -0.333000
     17 O8          3.1130    1.8930   -0.4170 o         1 HNP     -0.311000
     18 O9         -0.9240    4.1390   -0.5680 o         1 HNP     -0.396000
     19 P1         -3.0140   -2.7210   -1.0850 p5        1 HNP      1.564500
     20 H11        -1.4410   -0.8440    0.4880 h1        1 HNP      0.042500
     21 H12        -1.4300   -0.5950   -1.0910 h1        1 HNP      0.042500
     22 H2          0.7280   -1.9200   -0.8150 h1        1 HNP      0.128000
     23 H4          0.2620    0.7030    1.8280 h1        1 HNP      0.120000
     24 H5          0.1650   -1.5050    1.5050 h1        1 HNP      0.149000
     25 HN1        -1.2110    1.4670   -0.1920 hn        1 HNP      0.243000
     26 HN2         1.7870    4.1960   -0.6860 hn        1 HNP      0.243000
     27 HO6         2.0230   -2.5040    1.4970 ho        1 HNP      0.319000
     28 HO7         2.0860    0.6200    2.6440 ho        1 HNP      0.236000
@<TRIPOS>BOND
     1    1    2 1   
     2    1   11 1   
     3    1   20 1   
     4    1   21 1   
     5    2    5 1   
     6    2   14 1   
     7    2   22 1   
     8    3    4 1   
     9    3    7 1   
    10    3    8 1   
    11    3   14 1   
    12    4    5 1   
    13    4   16 1   
    14    4   23 1   
    15    5   15 1   
    16    5   24 1   
    17    6    9 1   
    18    6   18 1   
    19    7    9 1   
    20    7   17 1   
    21    8   25 1   
    22    9   26 1   
    23   10   19 1   
    24   11   19 1   
    25   12   19 1   
    26   13   19 1   
    27   15   27 1   
    28   16   28 1   
@<TRIPOS>SUBSTRUCTURE
     1 HNP         1 TEMP              0 ****  ****    0 ROOT
