@<TRIPOS>MOLECULE
HNQ
   20    21     1     0     0
SMALL
bcc


@<TRIPOS>ATOM
      1 C1         -1.1110    0.5230    0.0210 ca        1 HNQ     -0.206200
      2 N1         -2.5430    0.1320   -0.0160 no        1 HNQ      0.318200
      3 O1         -3.3410    0.9420   -0.4100 o         1 HNQ     -0.214000
      4 C2         -0.8270    1.8860    0.0590 ca        1 HNQ     -0.012000
      5 N2          2.3670   -0.8540    0.0770 nb        1 HNQ     -0.675000
      6 O2         -2.8900   -0.9560    0.3600 o         1 HNQ     -0.214000
      7 C3          0.4940    2.3410    0.1200 ca        1 HNQ     -0.197000
      8 O3          2.7990    1.9670    0.2030 oh        1 HNQ     -0.480100
      9 C4          1.5450    1.4320    0.1350 ca        1 HNQ      0.147800
     10 C5          1.2920    0.0140    0.0760 ca        1 HNQ      0.316600
     11 C6          2.1280   -2.1490    0.0110 ca        1 HNQ      0.419200
     12 C7          0.8130   -2.7050   -0.0670 ca        1 HNQ     -0.226300
     13 C8         -0.2650   -1.8570   -0.0650 ca        1 HNQ     -0.086000
     14 C9         -0.0620   -0.4450    0.0150 ca        1 HNQ     -0.061300
     15 H2         -1.6460    2.6290    0.0420 ha        1 HNQ      0.175000
     16 H3          0.7070    3.4200    0.1580 ha        1 HNQ      0.170000
     17 HO3         3.4620    1.2570    0.2060 ho        1 HNQ      0.456000
     18 H6          3.0120   -2.8140    0.0160 h4        1 HNQ      0.032100
     19 H7          0.6890   -3.7950   -0.1260 ha        1 HNQ      0.156000
     20 H8         -1.2860   -2.2710   -0.1230 ha        1 HNQ      0.181000
@<TRIPOS>BOND
     1    1    2 1   
     2    1    4 ar  
     3    1   14 ar  
     4    2    3 1   
     5    2    6 1   
     6    4    7 ar  
     7    4   15 1   
     8    5   10 ar  
     9    5   11 ar  
    10    7    9 ar  
    11    7   16 1   
    12    8    9 1   
    13    8   17 1   
    14    9   10 ar  
    15   10   14 ar  
    16   11   12 ar  
    17   11   18 1   
    18   12   13 ar  
    19   12   19 1   
    20   13   14 ar  
    21   13   20 1   
@<TRIPOS>SUBSTRUCTURE
     1 HNQ         1 TEMP              0 ****  ****    0 ROOT
