@<TRIPOS>MOLECULE
HNQ
   20    21     1     0     0
SMALL
bcc


@<TRIPOS>ATOM
      1 C1         -0.0050    0.0110   -0.0560 ca        1 HNQ     -0.206200
      2 N1         -0.7120    0.0970   -1.3590 no        1 HNQ      0.318200
      3 O1         -0.1330   -0.2820   -2.3440 o         1 HNQ     -0.214000
      4 C2          1.3860   -0.0430   -0.0930 ca        1 HNQ     -0.012000
      5 N2         -0.5510   -0.1060    3.6430 nb        1 HNQ     -0.675000
      6 O2         -1.8230    0.5530   -1.4240 o         1 HNQ     -0.214000
      7 C3          2.1310   -0.1000    1.0890 ca        1 HNQ     -0.197000
      8 O3          2.2960   -0.1600    3.4190 oh        1 HNQ     -0.480100
      9 C4          1.4880   -0.1120    2.3210 ca        1 HNQ      0.147800
     10 C5          0.0490   -0.0760    2.3980 ca        1 HNQ      0.316600
     11 C6         -1.8680   -0.0860    3.7050 ca        1 HNQ      0.419200
     12 C7         -2.7120   -0.0410    2.5510 ca        1 HNQ     -0.226300
     13 C8         -2.1320   -0.0080    1.3090 ca        1 HNQ     -0.086000
     14 C9         -0.7080   -0.0170    1.1850 ca        1 HNQ     -0.061300
     15 H2          1.9210   -0.0410   -1.0610 ha        1 HNQ      0.175000
     16 H3          3.2310   -0.1350    1.0490 ha        1 HNQ      0.170000
     17 HO3         1.7560   -0.1670    4.2270 ho        1 HNQ      0.456000
     18 H6         -2.3130   -0.1080    4.7180 h4        1 HNQ      0.032100
     19 H7         -3.8030   -0.0330    2.6790 ha        1 HNQ      0.156000
     20 H8         -2.7700    0.0290    0.4090 ha        1 HNQ      0.181000
@<TRIPOS>BOND
     1    1    2 1   
     2    1    4 ar  
     3    1   14 ar  
     4    2    3 1   
     5    2    6 1   
     6    4    7 ar  
     7    4   15 1   
     8    5   10 ar  
     9    5   11 ar  
    10    7    9 ar  
    11    7   16 1   
    12    8    9 1   
    13    8   17 1   
    14    9   10 ar  
    15   10   14 ar  
    16   11   12 ar  
    17   11   18 1   
    18   12   13 ar  
    19   12   19 1   
    20   13   14 ar  
    21   13   20 1   
@<TRIPOS>SUBSTRUCTURE
     1 HNQ         1 TEMP              0 ****  ****    0 ROOT
