@<TRIPOS>MOLECULE
HNQ
   20    21     1     0     0
SMALL
bcc


@<TRIPOS>ATOM
      1 C1         -0.0060    0.0040   -0.0560 ca        1 HNQ     -0.206200
      2 N1         -0.7140    0.0880   -1.3590 no        1 HNQ      0.318200
      3 O1         -0.1380   -0.2990   -2.3430 o         1 HNQ     -0.214000
      4 C2          1.3850   -0.0590   -0.0940 ca        1 HNQ     -0.012000
      5 N2         -0.5500   -0.0940    3.6430 nb        1 HNQ     -0.675000
      6 O2         -1.8220    0.5510   -1.4250 o         1 HNQ     -0.214000
      7 C3          2.1310   -0.1150    1.0870 ca        1 HNQ     -0.197000
      8 O3          2.2970   -0.1660    3.4170 oh        1 HNQ     -0.480100
      9 C4          1.4880   -0.1180    2.3190 ca        1 HNQ      0.147800
     10 C5          0.0490   -0.0740    2.3980 ca        1 HNQ      0.316600
     11 C6         -1.8660   -0.0670    3.7070 ca        1 HNQ      0.419200
     12 C7         -2.7100   -0.0210    2.5540 ca        1 HNQ     -0.226300
     13 C8         -2.1320    0.0030    1.3110 ca        1 HNQ     -0.086000
     14 C9         -0.7080   -0.0150    1.1850 ca        1 HNQ     -0.061300
     15 H2          1.9190   -0.0650   -1.0630 ha        1 HNQ      0.175000
     16 H3          3.2300   -0.1570    1.0460 ha        1 HNQ      0.170000
     17 HO3         1.7580   -0.1660    4.2250 ho        1 HNQ      0.456000
     18 H6         -2.3110   -0.0820    4.7200 h4        1 HNQ      0.032100
     19 H7         -3.8020   -0.0070    2.6830 ha        1 HNQ      0.156000
     20 H8         -2.7700    0.0400    0.4110 ha        1 HNQ      0.181000
@<TRIPOS>BOND
     1    1    2 1   
     2    1    4 ar  
     3    1   14 ar  
     4    2    3 1   
     5    2    6 1   
     6    4    7 ar  
     7    4   15 1   
     8    5   10 ar  
     9    5   11 ar  
    10    7    9 ar  
    11    7   16 1   
    12    8    9 1   
    13    8   17 1   
    14    9   10 ar  
    15   10   14 ar  
    16   11   12 ar  
    17   11   18 1   
    18   12   13 ar  
    19   12   19 1   
    20   13   14 ar  
    21   13   20 1   
@<TRIPOS>SUBSTRUCTURE
     1 HNQ         1 TEMP              0 ****  ****    0 ROOT
