@<TRIPOS>MOLECULE
HNQ
   20    17     1     0     0
SMALL
bcc


@<TRIPOS>ATOM
      1 C1          0.2080   -0.0370   -1.3920 c1        1 HNQ     -0.156000
      2 N1         -0.1810    0.0090   -2.7550 n2        1 HNQ      0.463400
      3 O1          0.7440   -0.2020   -3.7370 o         1 HNQ     -0.308700
      4 C2          1.5960    0.0160   -1.4000 c1        1 HNQ     -0.007000
      5 N2         -0.4840    0.0510    2.2190 n1        1 HNQ     -0.096000
      6 O2         -1.3480    0.2240   -3.0510 o         1 HNQ     -0.308700
      7 C3          2.2980    0.0810   -0.1990 c1        1 HNQ     -0.259000
      8 O3          2.2720    0.3550    2.2210 oh        1 HNQ     -0.205000
      9 C4          1.6100    0.0930    1.0080 c2        1 HNQ      0.169000
     10 C5          0.2020    0.0390    1.0170 c2        1 HNQ     -0.030000
     11 C6         -1.8480   -0.0010    2.2290 c1        1 HNQ     -0.108500
     12 C7         -2.5520   -0.0660    1.0300 c1        1 HNQ     -0.108500
     13 C8         -1.8760   -0.0780   -0.1590 c1        1 HNQ     -0.095000
     14 C9         -0.4900   -0.0250   -0.1690 c2        1 HNQ     -0.005000
     15 H2          2.0800    0.0080   -2.2470 ha        1 HNQ      0.173000
     16 H3          3.2730    0.1190   -0.2050 ha        1 HNQ      0.152000
     17 HO3         2.7210   -0.3700    2.4760 ho        1 HNQ      0.226000
     18 H6         -2.3310    0.0080    3.0780 ha        1 HNQ      0.162000
     19 H7         -3.5270   -0.1030    1.0380 ha        1 HNQ      0.162000
     20 H8         -2.3690   -0.1230   -1.0000 ha        1 HNQ      0.178000
@<TRIPOS>BOND
     1    1    4 1   
     2    1   14 1   
     3    2    3 2   
     4    2    6 2   
     5    4   15 1   
     6    5   10 1   
     7    7    9 1   
     8    7   16 1   
     9    8    9 1   
    10    8   17 1   
    11    9   10 1   
    12   10   14 1   
    13   11   12 1   
    14   11   18 1   
    15   12   19 1   
    16   13   14 1   
    17   13   20 1   
@<TRIPOS>SUBSTRUCTURE
     1 HNQ         1 TEMP              0 ****  ****    0 ROOT
