@<TRIPOS>MOLECULE
HNQ
   20    21     1     0     0
SMALL
bcc


@<TRIPOS>ATOM
      1 C1         -0.0060   -0.0010   -0.0570 ca        1 HNQ     -0.206200
      2 N1         -0.7140    0.0730   -1.3600 no        1 HNQ      0.318200
      3 O1         -0.1360   -0.3150   -2.3420 o         1 HNQ     -0.214000
      4 C2          1.3850   -0.0550   -0.0940 ca        1 HNQ     -0.012000
      5 N2         -0.5500   -0.0860    3.6430 nb        1 HNQ     -0.675000
      6 O2         -1.8250    0.5280   -1.4280 o         1 HNQ     -0.214000
      7 C3          2.1310   -0.1020    1.0880 ca        1 HNQ     -0.197000
      8 O3          2.2970   -0.1410    3.4180 oh        1 HNQ     -0.480100
      9 C4          1.4880   -0.1030    2.3200 ca        1 HNQ      0.147800
     10 C5          0.0490   -0.0680    2.3980 ca        1 HNQ      0.316600
     11 C6         -1.8670   -0.0670    3.7070 ca        1 HNQ      0.419200
     12 C7         -2.7110   -0.0320    2.5530 ca        1 HNQ     -0.226300
     13 C8         -2.1320   -0.0100    1.3100 ca        1 HNQ     -0.086000
     14 C9         -0.7090   -0.0190    1.1850 ca        1 HNQ     -0.061300
     15 H2          1.9200   -0.0620   -1.0620 ha        1 HNQ      0.175000
     16 H3          3.2310   -0.1360    1.0470 ha        1 HNQ      0.170000
     17 HO3         1.7580   -0.1410    4.2260 ho        1 HNQ      0.456000
     18 H6         -2.3110   -0.0810    4.7200 h4        1 HNQ      0.032100
     19 H7         -3.8020   -0.0240    2.6820 ha        1 HNQ      0.156000
     20 H8         -2.7700    0.0190    0.4110 ha        1 HNQ      0.181000
@<TRIPOS>BOND
     1    1    2 1   
     2    1    4 ar  
     3    1   14 ar  
     4    2    3 1   
     5    2    6 1   
     6    4    7 ar  
     7    4   15 1   
     8    5   10 ar  
     9    5   11 ar  
    10    7    9 ar  
    11    7   16 1   
    12    8    9 1   
    13    8   17 1   
    14    9   10 ar  
    15   10   14 ar  
    16   11   12 ar  
    17   11   18 1   
    18   12   13 ar  
    19   12   19 1   
    20   13   14 ar  
    21   13   20 1   
@<TRIPOS>SUBSTRUCTURE
     1 HNQ         1 TEMP              0 ****  ****    0 ROOT
