@<TRIPOS>MOLECULE
HNR
   46    47     1     0     0
SMALL
bcc


@<TRIPOS>ATOM
      1 CAW         0.2310   -0.1340   -0.6120 c3        1 HNR     -0.105100
      2 CAX         1.6770    0.1090   -0.2620 c3        1 HNR     -0.081400
      3 CAV         1.8450    0.3590    1.2240 c3        1 HNR     -0.126400
      4 CAU         3.3100    0.6520    1.5550 c3        1 HNR      0.045000
      5 NAQ         3.7990    0.0490    2.7950 n         1 HNR     -0.351400
      6 CAR         3.9380   -1.3250    2.9530 cc        1 HNR      0.333800
      7 NAS         3.5970   -2.2270    1.8260 nz        1 HNR     -0.795600
      8 CAP         4.1250    0.9210    3.8800 c         1 HNR      0.809500
      9 OAO         3.9720    2.1420    3.8010 o         1 HNR     -0.482500
     10 NAG         4.6550    0.3420    5.0690 ns        1 HNR     -0.436100
     11 CAH         4.7970   -1.0010    5.2290 cd        1 HNR      0.502700
     12 OAA         5.2540   -1.4420    6.3480 os        1 HNR     -0.441800
     13 CAI         4.3910   -1.9160    4.1360 cc        1 HNR     -0.100600
     14 NAJ         4.5230   -3.3140    4.2380 nu        1 HNR     -0.738000
     15 CAB         3.3890   -4.0210    4.7940 c3        1 HNR      0.145100
     16 SAK         6.8350   -2.1400    7.1310 sy        1 HNR      1.742800
     17 OAT         6.6850   -3.2890    6.4070 o         1 HNR     -0.597300
     18 OAC         7.5610   -1.0950    6.6520 o         1 HNR     -0.597300
     19 CAL         6.5350   -2.1930    8.6640 ca        1 HNR     -0.579500
     20 CAM         5.9670   -3.3430    9.2730 ca        1 HNR      0.029000
     21 CAN         5.7530   -3.4040   10.6390 ca        1 HNR     -0.148000
     22 CAF         6.0960   -2.3170   11.4530 ca        1 HNR      0.035000
     23 CAE         6.6550   -1.1670   10.8810 ca        1 HNR     -0.148000
     24 CAD         6.8690   -1.1060    9.5150 ca        1 HNR      0.029000
     25 HAW1       -0.1720   -1.0190   -0.0620 hc        1 HNR      0.058700
     26 HAW2       -0.3920    0.7560   -0.3530 hc        1 HNR      0.058700
     27 HAW3        0.1300   -0.3230   -1.7090 hc        1 HNR      0.058700
     28 HAX1        2.0570    0.9960   -0.8380 hc        1 HNR      0.042700
     29 HAX2        2.2960   -0.7750   -0.5760 hc        1 HNR      0.042700
     30 HAV1        1.2220    1.2490    1.5180 hc        1 HNR      0.070700
     31 HAV2        1.4380   -0.5080    1.8060 hc        1 HNR      0.070700
     32 HAU1        3.4400    1.7760    1.6450 h1        1 HNR      0.110700
     33 HAU2        3.9930    0.3210    0.7170 h1        1 HNR      0.110700
     34 HAS1        3.2840   -1.7150    0.9840 hn        1 HNR      0.496133
     35 HAS2        4.4340   -2.7900    1.5990 hn        1 HNR      0.496133
     36 HAG         4.9180    0.9890    5.8000 hn        1 HNR      0.405500
     37 HAB1        2.4710   -3.8090    4.1850 h1        1 HNR      0.064367
     38 HAB2        3.1760   -3.7480    5.8630 h1        1 HNR      0.064367
     39 HAB3        3.6210   -5.1200    4.7400 h1        1 HNR      0.064367
     40 HAM         5.7050   -4.2100    8.6380 ha        1 HNR      0.167000
     41 HAD         7.3220   -0.1980    9.0720 ha        1 HNR      0.167000
     42 HAN         5.3190   -4.3140   11.0910 ha        1 HNR      0.185000
     43 HAF         5.9300   -2.3690   12.5450 ha        1 HNR      0.185000
     44 HAE         6.9310   -0.3120   11.5230 ha        1 HNR      0.185000
     45 HAS3        2.8430   -2.8630    2.1310 hn        1 HNR      0.496133
     46 HAJ1        5.3880   -3.5760    4.6920 hn        1 HNR      0.453800
@<TRIPOS>BOND
     1    1    2 1   
     2    1   25 1   
     3    1   26 1   
     4    1   27 1   
     5    2    3 1   
     6    2   28 1   
     7    2   29 1   
     8    3    4 1   
     9    3   30 1   
    10    3   31 1   
    11    4    5 1   
    12    4   32 1   
    13    4   33 1   
    14    5    6 2   
    15    5    8 1   
    16    6    7 1   
    17    6   13 1   
    18    7   34 1   
    19    7   35 1   
    20    7   45 1   
    21    8    9 2   
    22    8   10 1   
    23   10   11 1   
    24   10   36 1   
    25   11   12 1   
    26   11   13 2   
    27   12   16 1   
    28   13   14 1   
    29   14   15 1   
    30   14   46 1   
    31   15   37 1   
    32   15   38 1   
    33   15   39 1   
    34   16   17 2   
    35   16   18 2   
    36   16   19 1   
    37   19   20 ar  
    38   19   24 ar  
    39   20   21 ar  
    40   20   40 1   
    41   21   22 ar  
    42   21   42 1   
    43   22   23 ar  
    44   22   43 1   
    45   23   24 ar  
    46   23   44 1   
    47   24   41 1   
@<TRIPOS>SUBSTRUCTURE
     1 HNR         1 TEMP              0 ****  ****    0 ROOT
