@<TRIPOS>MOLECULE
HNR
   46    47     1     0     0
SMALL
bcc


@<TRIPOS>ATOM
      1 CAW         0.2190   -0.1760   -0.6110 c3        1 HNR     -0.105100
      2 CAX         1.6650    0.0740   -0.2650 c3        1 HNR     -0.081400
      3 CAV         1.8340    0.3330    1.2190 c3        1 HNR     -0.126400
      4 CAU         3.2990    0.6320    1.5450 c3        1 HNR      0.045000
      5 NAQ         3.7920    0.0370    2.7880 n         1 HNR     -0.351400
      6 CAR         3.9350   -1.3350    2.9540 cc        1 HNR      0.333800
      7 NAS         3.5950   -2.2440    1.8320 n4        1 HNR     -0.795600
      8 CAP         4.1180    0.9160    3.8670 c         1 HNR      0.809500
      9 OAO         3.9610    2.1360    3.7830 o         1 HNR     -0.482500
     10 NAG         4.6520    0.3460    5.0590 n         1 HNR     -0.436100
     11 CAH         4.7980   -0.9960    5.2260 cd        1 HNR      0.502700
     12 OAA         5.2590   -1.4290    6.3460 os        1 HNR     -0.441800
     13 CAI         4.3920   -1.9190    4.1390 cc        1 HNR     -0.100600
     14 NAJ         4.5290   -3.3150    4.2480 nh        1 HNR     -0.738000
     15 CAB         3.3970   -4.0220    4.8090 c3        1 HNR      0.145100
     16 SAK         6.8430   -2.1200    7.1300 sy        1 HNR      1.742800
     17 OAT         6.6930   -3.2730    6.4130 o         1 HNR     -0.597300
     18 OAC         7.5660   -1.0760    6.6430 o         1 HNR     -0.597300
     19 CAL         6.5470   -2.1630    8.6640 ca        1 HNR     -0.579500
     20 CAM         5.9810   -3.3090    9.2820 ca        1 HNR      0.029000
     21 CAN         5.7700   -3.3620   10.6490 ca        1 HNR     -0.148000
     22 CAF         6.1140   -2.2690   11.4550 ca        1 HNR      0.035000
     23 CAE         6.6700   -1.1230   10.8740 ca        1 HNR     -0.148000
     24 CAD         6.8810   -1.0700    9.5070 ca        1 HNR      0.029000
     25 HAW1       -0.1800   -1.0590   -0.0560 hc        1 HNR      0.058700
     26 HAW2       -0.4070    0.7130   -0.3560 hc        1 HNR      0.058700
     27 HAW3        0.1170   -0.3710   -1.7070 hc        1 HNR      0.058700
     28 HAX1        2.0400    0.9590   -0.8470 hc        1 HNR      0.043200
     29 HAX2        2.2860   -0.8100   -0.5760 hc        1 HNR      0.043200
     30 HAV1        1.2090    1.2220    1.5090 hc        1 HNR      0.070700
     31 HAV2        1.4300   -0.5320    1.8060 hc        1 HNR      0.070700
     32 HAU1        3.9810    0.2990    0.7090 h1        1 HNR      0.110700
     33 HAU2        3.4260    1.7560    1.6300 h1        1 HNR      0.110700
     34 HAS1        4.4330   -2.8070    1.6070 hn        1 HNR      0.496133
     35 HAS2        3.2790   -1.7380    0.9880 hn        1 HNR      0.496133
     36 HAG         4.9140    0.9970    5.7850 hn        1 HNR      0.405500
     37 HAB1        3.1850   -3.7450    5.8770 h1        1 HNR      0.064367
     38 HAB2        3.6320   -5.1210    4.7610 h1        1 HNR      0.064367
     39 HAB3        2.4780   -3.8170    4.2010 h1        1 HNR      0.064367
     40 HAM         5.7180   -4.1810    8.6530 ha        1 HNR      0.167000
     41 HAD         7.3330   -0.1650    9.0570 ha        1 HNR      0.167000
     42 HAN         5.3370   -4.2690   11.1070 ha        1 HNR      0.185000
     43 HAF         5.9500   -2.3130   12.5480 ha        1 HNR      0.185000
     44 HAE         6.9470   -0.2630   11.5100 ha        1 HNR      0.185000
     45 HAS3        2.8430   -2.8810    2.1420 hn        1 HNR      0.496133
     46 HAJ1        5.3950   -3.5720    4.7030 hn        1 HNR      0.453800
@<TRIPOS>BOND
     1    1    2 1   
     2    1   25 1   
     3    1   26 1   
     4    1   27 1   
     5    2    3 1   
     6    2   28 1   
     7    2   29 1   
     8    3    4 1   
     9    3   30 1   
    10    3   31 1   
    11    4    5 1   
    12    4   32 1   
    13    4   33 1   
    14    5    6 2   
    15    5    8 1   
    16    6    7 1   
    17    6   13 1   
    18    7   34 1   
    19    7   35 1   
    20    7   45 1   
    21    8    9 2   
    22    8   10 1   
    23   10   11 1   
    24   10   36 1   
    25   11   12 1   
    26   11   13 2   
    27   12   16 1   
    28   13   14 1   
    29   14   15 1   
    30   14   46 1   
    31   15   37 1   
    32   15   38 1   
    33   15   39 1   
    34   16   17 2   
    35   16   18 2   
    36   16   19 1   
    37   19   20 ar  
    38   19   24 ar  
    39   20   21 ar  
    40   20   40 1   
    41   21   22 ar  
    42   21   42 1   
    43   22   23 ar  
    44   22   43 1   
    45   23   24 ar  
    46   23   44 1   
    47   24   41 1   
@<TRIPOS>SUBSTRUCTURE
     1 HNR         1 TEMP              0 ****  ****    0 ROOT
