@<TRIPOS>MOLECULE
HNR
   44    42     1     0     0
SMALL
bcc


@<TRIPOS>ATOM
      1 CAW        -5.3790   -1.0060   -4.1420 c3        1 HNR     -0.212000
      2 CAX        -4.0380   -0.2430   -4.0140 c3        1 HNR     -0.158000
      3 CAV        -3.6700   -0.1220   -2.5540 c3        1 HNR     -0.185000
      4 CAU        -2.3810    0.7640   -2.4100 c3        1 HNR     -0.032000
      5 NAQ        -1.9050    0.7100   -1.0500 n         1 HNR     -0.281000
      6 CAR        -0.6310    0.1490   -0.7680 c2        1 HNR      0.287000
      7 NAS         0.2230   -0.3210   -1.8670 nh        1 HNR     -0.366000
      8 CAP        -2.6880    1.3460    0.0290 c2        1 HNR      0.412000
      9 OAO        -3.7070    1.9640   -0.2420 o         1 HNR     -0.364000
     10 NAG        -2.1970    1.3210    1.4010 n         1 HNR     -0.357000
     11 CAH        -0.9320    0.7420    1.6930 c2        1 HNR      0.382000
     12 OAA        -0.5770    0.6430    2.8120 o         1 HNR     -0.366000
     13 CAI        -0.1270    0.1350    0.6030 c2        1 HNR     -0.258000
     14 NAJ         1.1850   -0.4130    0.8850 nh        1 HNR     -0.743000
     15 CAB         1.3080   -1.7380    1.3140 c3        1 HNR     -0.056000
     16 SAK         2.5660    0.5870    0.8030 s4        1 HNR      2.056800
     17 OAT         3.2620    0.4350   -0.4660 o         1 HNR     -0.547900
     18 OAC         2.1930    2.0100    0.7530 o         1 HNR     -0.547900
     19 CAL         3.6330    0.2550    2.1540 c1        1 HNR     -0.834000
     20 CAM         4.5930   -0.7700    2.0540 c2        1 HNR     -0.020000
     21 CAN         5.5260   -0.9480    3.0700 c1        1 HNR     -0.162000
     22 CAF         5.5100   -0.1020    4.1990 c1        1 HNR     -0.111000
     23 CAE         4.5540    0.9180    4.2980 c1        1 HNR     -0.111000
     24 CAD         3.6190    1.0980    3.2820 c1        1 HNR     -0.005000
     25 HAW1       -5.4970   -1.2950   -5.0420 hc        1 HNR      0.077000
     26 HAW2       -5.3670   -1.7460   -3.5780 hc        1 HNR      0.077000
     27 HAW3       -6.1220   -0.4110   -3.8850 hc        1 HNR      0.077000
     28 HAX1       -3.3630   -0.7160   -4.4690 hc        1 HNR      0.082500
     29 HAX2       -4.1290    0.6220   -4.3900 hc        1 HNR      0.082500
     30 HAV1       -3.5030   -1.0000   -2.1900 hc        1 HNR      0.095500
     31 HAV2       -4.3730    0.2770   -2.0900 hc        1 HNR      0.095500
     32 HAU1       -1.6840    0.4270   -3.0170 h1        1 HNR      0.115500
     33 HAU2       -2.6040    1.7230   -2.6510 h1        1 HNR      0.115500
     34 HAS1        0.0230   -0.0810   -2.7570 hn        1 HNR      0.245000
     35 HAS2        0.9280   -0.8790   -1.6910 hn        1 HNR      0.245000
     36 HAG        -2.6740    1.7060    2.0530 hn        1 HNR      0.271000
     37 HAB1        2.0380   -2.1580    0.8500 h1        1 HNR      0.082333
     38 HAB2        0.4570   -2.2320    1.1160 h1        1 HNR      0.082333
     39 HAB3        1.4770   -1.7550    2.2530 h1        1 HNR      0.082333
     40 HAM         4.6040   -1.3590    1.2660 ha        1 HNR      0.159000
     41 HAD         2.9300    1.8350    3.3540 ha        1 HNR      0.172000
     42 HAN         6.2150   -1.6810    2.9990 ha        1 HNR      0.140000
     43 HAF         6.1620   -0.2290    4.9090 ha        1 HNR      0.140000
     44 HAE         4.5430    1.5380    5.1240 ha        1 HNR      0.140000
@<TRIPOS>BOND
     1    1    2 1   
     2    1   25 1   
     3    1   26 1   
     4    1   27 1   
     5    2    3 1   
     6    2   28 1   
     7    2   29 1   
     8    3    4 1   
     9    3   30 1   
    10    3   31 1   
    11    4    5 1   
    12    4   32 1   
    13    4   33 1   
    14    5    6 1   
    15    5    8 1   
    16    6    7 1   
    17    6   13 1   
    18    7   34 1   
    19    7   35 1   
    20    8    9 1   
    21    8   10 1   
    22   10   11 1   
    23   10   36 1   
    24   11   12 1   
    25   11   13 1   
    26   13   14 1   
    27   14   15 1   
    28   14   16 1   
    29   15   37 1   
    30   15   38 1   
    31   15   39 1   
    32   16   17 1   
    33   16   18 1   
    34   19   20 1   
    35   19   24 1   
    36   20   21 1   
    37   20   40 1   
    38   21   42 1   
    39   22   23 1   
    40   22   43 1   
    41   23   44 1   
    42   24   41 1   
@<TRIPOS>SUBSTRUCTURE
     1 HNR         1 TEMP              0 ****  ****    0 ROOT
