@<TRIPOS>MOLECULE
HNR
   44    45     1     0     0
SMALL
bcc


@<TRIPOS>ATOM
      1 CAW         7.0470    1.7270    0.9250 c3        1 HNR     -0.094100
      2 CAX         6.1600    1.1230   -0.1330 c3        1 HNR     -0.079400
      3 CAV         4.8820    0.5770    0.4690 c3        1 HNR     -0.106400
      4 CAU         4.0150   -0.0320   -0.6320 c3        1 HNR      0.084000
      5 NAQ         2.7430   -0.5720   -0.1880 n         1 HNR     -0.388000
      6 CAR         1.6400    0.2520    0.1060 cc        1 HNR      0.371600
      7 NAS         1.7780    1.6260    0.0580 nh        1 HNR     -0.857600
      8 CAP         2.6640   -1.9810    0.0080 c         1 HNR      0.821500
      9 OAO         3.6720   -2.6980   -0.1730 o         1 HNR     -0.639500
     10 NAG         1.4500   -2.5460    0.3900 n         1 HNR     -0.577500
     11 CAH         0.2820   -1.7940    0.5950 c         1 HNR      0.743700
     12 OAA        -0.7630   -2.4070    0.8860 o         1 HNR     -0.641500
     13 CAI         0.4010   -0.3370    0.4560 cd        1 HNR     -0.195200
     14 NAJ        -0.7330    0.4440    0.7260 nh        1 HNR     -0.647300
     15 CAB        -1.0390    0.6800    2.1070 c3        1 HNR      0.220100
     16 SAK        -1.6680    0.9430   -0.5270 sy        1 HNR      1.501200
     17 OAT        -1.4970    2.3460   -0.6510 o         1 HNR     -0.660300
     18 OAC        -1.3770    0.2280   -1.7040 o         1 HNR     -0.660300
     19 CAL        -3.2310    0.6100   -0.0120 ca        1 HNR     -0.389500
     20 CAM        -4.1780    1.6370    0.0970 ca        1 HNR     -0.012500
     21 CAN        -5.4930    1.3580    0.4580 ca        1 HNR     -0.160000
     22 CAF        -5.8780    0.0420    0.7190 ca        1 HNR     -0.064000
     23 CAE        -4.9450   -0.9900    0.6210 ca        1 HNR     -0.160000
     24 CAD        -3.6300   -0.7060    0.2590 ca        1 HNR     -0.012500
     25 HAW1        6.5270    2.5680    1.4450 hc        1 HNR      0.037700
     26 HAW2        7.3250    0.9620    1.6900 hc        1 HNR      0.037700
     27 HAW3        7.9840    2.1230    0.4640 hc        1 HNR      0.037700
     28 HAX1        5.9120    1.8990   -0.9050 hc        1 HNR      0.043200
     29 HAX2        6.7100    0.2970   -0.6580 hc        1 HNR      0.043200
     30 HAV1        5.1310   -0.2100    1.2290 hc        1 HNR      0.056200
     31 HAV2        4.3400    1.3970    1.0070 hc        1 HNR      0.056200
     32 HAU1        3.8240    0.7330   -1.4390 h1        1 HNR      0.076200
     33 HAU2        4.5970   -0.8760   -1.1120 h1        1 HNR      0.076200
     34 HAS1        2.5790    2.0370   -0.3600 hn        1 HNR      0.449800
     35 HAS2        0.9540    2.1850    0.0900 hn        1 HNR      0.449800
     36 HAG         1.4160   -3.5410    0.4720 hn        1 HNR      0.357500
     37 HAB1       -1.9730    1.3000    2.1780 h1        1 HNR      0.043033
     38 HAB2       -1.2010   -0.2920    2.6480 h1        1 HNR      0.043033
     39 HAB3       -0.1970    1.2310    2.6060 h1        1 HNR      0.043033
     40 HAM        -3.8700    2.6770   -0.1130 ha        1 HNR      0.165500
     41 HAD        -2.8900   -1.5280    0.1920 ha        1 HNR      0.165500
     42 HAN        -6.2270    2.1740    0.5360 ha        1 HNR      0.142000
     43 HAF        -6.9190   -0.1810    1.0020 ha        1 HNR      0.136000
     44 HAE        -5.2440   -2.0290    0.8270 ha        1 HNR      0.142000
@<TRIPOS>BOND
     1    1    2 1   
     2    1   25 1   
     3    1   26 1   
     4    1   27 1   
     5    2    3 1   
     6    2   28 1   
     7    2   29 1   
     8    3    4 1   
     9    3   30 1   
    10    3   31 1   
    11    4    5 1   
    12    4   32 1   
    13    4   33 1   
    14    5    6 1   
    15    5    8 1   
    16    6    7 1   
    17    6   13 2   
    18    7   34 1   
    19    7   35 1   
    20    8    9 2   
    21    8   10 1   
    22   10   11 1   
    23   10   36 1   
    24   11   12 2   
    25   11   13 1   
    26   13   14 1   
    27   14   15 1   
    28   14   16 1   
    29   15   37 1   
    30   15   38 1   
    31   15   39 1   
    32   16   17 2   
    33   16   18 2   
    34   16   19 1   
    35   19   20 ar  
    36   19   24 ar  
    37   20   21 ar  
    38   20   40 1   
    39   21   22 ar  
    40   21   42 1   
    41   22   23 ar  
    42   22   43 1   
    43   23   24 ar  
    44   23   44 1   
    45   24   41 1   
@<TRIPOS>SUBSTRUCTURE
     1 HNR         1 TEMP              0 ****  ****    0 ROOT
