@<TRIPOS>MOLECULE
HNR
   46    47     1     0     0
SMALL
bcc


@<TRIPOS>ATOM
      1 CAW         0.1990   -0.1570   -0.5920 c3        1 HNR     -0.105100
      2 CAX         1.6450    0.0930   -0.2510 c3        1 HNR     -0.081400
      3 CAV         1.8200    0.3460    1.2340 c3        1 HNR     -0.126400
      4 CAU         3.2860    0.6450    1.5560 c3        1 HNR      0.045000
      5 NAQ         3.7840    0.0450    2.7940 n         1 HNR     -0.351400
      6 CAR         3.9290   -1.3270    2.9540 cc        1 HNR      0.333800
      7 NAS         3.5860   -2.2320    1.8300 n4        1 HNR     -0.795600
      8 CAP         4.1130    0.9200    3.8760 c         1 HNR      0.809500
      9 OAO         3.9540    2.1400    3.7980 o         1 HNR     -0.482500
     10 NAG         4.6510    0.3450    5.0640 n         1 HNR     -0.436100
     11 CAH         4.7990   -0.9970    5.2250 cd        1 HNR      0.502700
     12 OAA         5.2640   -1.4350    6.3410 os        1 HNR     -0.441800
     13 CAI         4.3910   -1.9160    4.1350 cc        1 HNR     -0.100600
     14 NAJ         4.5300   -3.3120    4.2380 nh        1 HNR     -0.738000
     15 CAB         3.4010   -4.0230    4.8000 c3        1 HNR      0.145100
     16 SAK         6.8510   -2.1270    7.1180 sy        1 HNR      1.742800
     17 OAT         6.7020   -3.2760    6.3950 o         1 HNR     -0.597300
     18 OAC         7.5710   -1.0780    6.6340 o         1 HNR     -0.597300
     19 CAL         6.5600   -2.1780    8.6520 ca        1 HNR     -0.579500
     20 CAM         5.9990   -3.3290    9.2650 ca        1 HNR      0.029000
     21 CAN         5.7920   -3.3890   10.6330 ca        1 HNR     -0.148000
     22 CAF         6.1350   -2.3000   11.4440 ca        1 HNR      0.035000
     23 CAE         6.6860   -1.1490   10.8670 ca        1 HNR     -0.148000
     24 CAD         6.8930   -1.0880    9.5000 ca        1 HNR      0.029000
     25 HAW1       -0.1980   -1.0420   -0.0390 hc        1 HNR      0.058700
     26 HAW2       -0.4280    0.7310   -0.3310 hc        1 HNR      0.058700
     27 HAW3        0.0920   -0.3470   -1.6890 hc        1 HNR      0.058700
     28 HAX1        2.0180    0.9800   -0.8300 hc        1 HNR      0.042700
     29 HAX2        2.2660   -0.7890   -0.5670 hc        1 HNR      0.042700
     30 HAV1        1.1940    1.2330    1.5310 hc        1 HNR      0.070700
     31 HAV2        1.4190   -0.5230    1.8190 hc        1 HNR      0.070700
     32 HAU1        3.4120    1.7690    1.6450 h1        1 HNR      0.110700
     33 HAU2        3.9650    0.3160    0.7160 h1        1 HNR      0.110700
     34 HAS1        3.2670   -1.7220    0.9890 hn        1 HNR      0.496133
     35 HAS2        4.4240   -2.7920    1.5980 hn        1 HNR      0.496133
     36 HAG         4.9150    0.9940    5.7920 hn        1 HNR      0.405500
     37 HAB1        2.4790   -3.8160    4.1960 h1        1 HNR      0.064367
     38 HAB2        3.1930   -3.7500    5.8700 h1        1 HNR      0.064367
     39 HAB3        3.6380   -5.1220    4.7460 h1        1 HNR      0.064367
     40 HAM         5.7370   -4.1980    8.6330 ha        1 HNR      0.167000
     41 HAD         7.3410   -0.1800    9.0530 ha        1 HNR      0.167000
     42 HAN         5.3630   -4.3000   11.0880 ha        1 HNR      0.185000
     43 HAF         5.9750   -2.3500   12.5370 ha        1 HNR      0.185000
     44 HAE         6.9630   -0.2910   11.5070 ha        1 HNR      0.185000
     45 HAS3        2.8370   -2.8710    2.1390 hn        1 HNR      0.496133
     46 HAJ1        5.3980   -3.5700    4.6880 hn        1 HNR      0.453800
@<TRIPOS>BOND
     1    1    2 1   
     2    1   25 1   
     3    1   26 1   
     4    1   27 1   
     5    2    3 1   
     6    2   28 1   
     7    2   29 1   
     8    3    4 1   
     9    3   30 1   
    10    3   31 1   
    11    4    5 1   
    12    4   32 1   
    13    4   33 1   
    14    5    6 2   
    15    5    8 1   
    16    6    7 1   
    17    6   13 1   
    18    7   34 1   
    19    7   35 1   
    20    7   45 1   
    21    8    9 2   
    22    8   10 1   
    23   10   11 1   
    24   10   36 1   
    25   11   12 1   
    26   11   13 2   
    27   12   16 1   
    28   13   14 1   
    29   14   15 1   
    30   14   46 1   
    31   15   37 1   
    32   15   38 1   
    33   15   39 1   
    34   16   17 2   
    35   16   18 2   
    36   16   19 1   
    37   19   20 ar  
    38   19   24 ar  
    39   20   21 ar  
    40   20   40 1   
    41   21   22 ar  
    42   21   42 1   
    43   22   23 ar  
    44   22   43 1   
    45   23   24 ar  
    46   23   44 1   
    47   24   41 1   
@<TRIPOS>SUBSTRUCTURE
     1 HNR         1 TEMP              0 ****  ****    0 ROOT
