@<TRIPOS>MOLECULE
HNT
   27    28     1     0     0
SMALL
bcc


@<TRIPOS>ATOM
      1 C1          1.8340   -1.2670    0.1400 c3        1 HNT     -0.043100
      2 C2          2.7830   -0.1240   -0.2470 c3        1 HNT      0.172500
      3 O2         -4.5520   -0.5680   -0.1100 o         1 HNT     -0.210500
      4 C4          1.0990    1.5840    0.1110 c3        1 HNT      0.208100
      5 C5         -1.2890    0.8830    0.0320 ca        1 HNT     -0.066000
      6 C6         -2.2800   -0.1080   -0.0210 ca        1 HNT     -0.178200
      7 C7         -1.9380   -1.4710   -0.0300 ca        1 HNT     -0.068000
      8 C8         -0.5960   -1.8290    0.0150 ca        1 HNT     -0.142000
      9 C22         4.2260   -0.5560    0.0780 c3        1 HNT      0.129400
     10 C8A         0.4080   -0.8530    0.0690 ca        1 HNT     -0.020300
     11 N1         -3.7100    0.2890   -0.0690 no        1 HNT      0.314200
     12 O3         -3.9920    1.4580   -0.0650 o         1 HNT     -0.210500
     13 C4A         0.0550    0.5060    0.0750 ca        1 HNT     -0.085300
     14 N41         2.4290    1.1130    0.4400 n3        1 HNT     -0.815200
     15 H11         2.0200   -2.1350   -0.5460 hc        1 HNT      0.066700
     16 H12         2.0560   -1.6050    1.1890 hc        1 HNT      0.066700
     17 H2          2.7240    0.0090   -1.3730 h1        1 HNT      0.039700
     18 H41A        1.0650    2.1140   -0.8900 h1        1 HNT      0.049700
     19 H42         0.8200    2.3400    0.9030 h1        1 HNT      0.049700
     20 H5         -1.5670    1.9510    0.0420 ha        1 HNT      0.170000
     21 H7         -2.7250   -2.2430   -0.0710 ha        1 HNT      0.170000
     22 H8         -0.3190   -2.8950    0.0090 ha        1 HNT      0.147000
     23 H22         5.9760    0.2060   -0.2140 ho        1 HNT      0.407000
     24 H221        4.4150   -1.5690   -0.3660 h1        1 HNT      0.034700
     25 H222        4.3970   -0.5970    1.1860 h1        1 HNT      0.034700
     26 H41         3.1130    1.8190    0.2340 hn        1 HNT      0.385800
     27 O22         5.0840    0.3990   -0.5250 oh        1 HNT     -0.607800
@<TRIPOS>BOND
     1    1    2 1   
     2    1   10 1   
     3    1   15 1   
     4    1   16 1   
     5    2    9 1   
     6    2   14 1   
     7    2   17 1   
     8    3   11 1   
     9    4   13 1   
    10    4   14 1   
    11    4   18 1   
    12    4   19 1   
    13    5    6 ar  
    14    5   13 ar  
    15    5   20 1   
    16    6    7 ar  
    17    6   11 1   
    18    7    8 ar  
    19    7   21 1   
    20    8   10 ar  
    21    8   22 1   
    22    9   24 1   
    23    9   25 1   
    24    9   27 1   
    25   10   13 ar  
    26   11   12 1   
    27   14   26 1   
    28   23   27 1   
@<TRIPOS>SUBSTRUCTURE
     1 HNT         1 TEMP              0 ****  ****    0 ROOT
