@<TRIPOS>MOLECULE
HNT
   27    27     1     0     0
SMALL
bcc


@<TRIPOS>ATOM
      1 C1         -0.9810    0.4720   -0.2210 c3        1 HNT     -0.019200
      2 C2          0.5440    0.3840   -0.2070 cx        1 HNT      0.058500
      3 O2         -1.8280    4.9060    4.8340 o         1 HNT     -0.218500
      4 C4          1.0420    1.2990    0.9000 cx        1 HNT      0.083700
      5 C5         -0.0300    2.8460    2.5990 ce        1 HNT     -0.001000
      6 C6         -1.0570    3.4620    3.2210 c2        1 HNT     -0.244100
      7 C7         -3.7840    2.1020    1.3010 c1        1 HNT     -0.098500
      8 C8         -2.6340    1.8160    1.1120 ch        1 HNT     -0.181300
      9 C22         3.6350   -2.1070   -0.8060 c3        1 HNT      0.111700
     10 C8A        -1.3040    1.4670    0.8760 cf        1 HNT      0.091100
     11 N1         -0.8540    4.4120    4.3270 no        1 HNT      0.282100
     12 O3          0.2600    4.6800    4.6970 o         1 HNT     -0.218500
     13 C4A        -0.1820    1.9170    1.5190 ce        1 HNT     -0.075200
     14 N41         1.1330   -0.1620    1.0170 n3        1 HNT     -0.730200
     15 H11         3.7790   -2.5810   -1.8090 h1        1 HNT      0.035700
     16 H12        -1.4580   -0.5160   -0.0080 hc        1 HNT      0.077200
     17 H2         -1.3420    0.8450   -1.2120 hc        1 HNT      0.077200
     18 H41A        1.0440    0.2440   -1.1820 h1        1 HNT      0.108700
     19 H42         1.9460    1.9300    0.8600 h1        1 HNT      0.101700
     20 H5          1.0150    3.0410    2.9170 ha        1 HNT      0.164000
     21 H7         -2.1260    3.3260    2.9830 h4        1 HNT      0.191000
     22 H8         -4.8010    2.3560    1.4690 ha        1 HNT      0.175500
     23 H22         4.1340   -0.3250   -1.3660 ho        1 HNT      0.405000
     24 H221        4.5410   -2.2780   -0.1730 h1        1 HNT      0.035700
     25 H222        2.7290   -2.5330   -0.3050 h1        1 HNT      0.035700
     26 H41         2.0650   -0.5170    0.8880 hn        1 HNT      0.373800
     27 O22         3.3690   -0.7260   -0.9380 oh        1 HNT     -0.622800
@<TRIPOS>BOND
     1    1    2 1   
     2    1   10 1   
     3    1   16 1   
     4    1   17 1   
     5    2    4 1   
     6    2   14 1   
     7    2   18 1   
     8    3   11 1   
     9    4   13 1   
    10    4   14 1   
    11    4   19 1   
    12    5    6 2   
    13    5   13 1   
    14    5   20 1   
    15    6   11 1   
    16    6   21 1   
    17    7    8 3   
    18    7   22 1   
    19    8   10 1   
    20    9   15 1   
    21    9   24 1   
    22    9   25 1   
    23    9   27 1   
    24   10   13 2   
    25   11   12 1   
    26   14   26 1   
    27   23   27 1   
@<TRIPOS>SUBSTRUCTURE
     1 HNT         1 TEMP              0 ****  ****    0 ROOT
