@<TRIPOS>MOLECULE
HNT
   27    26     1     0     0
SMALL
bcc


@<TRIPOS>ATOM
      1 C1         -0.1800   -0.8760   -1.2550 c3        1 HNT     -0.129000
      2 C2          1.2680   -0.8430   -1.2920 c3        1 HNT     -0.025000
      3 O2         -3.6490    2.2080    3.4060 o         1 HNT     -0.492200
      4 C4          1.5710    0.2780    0.7840 c3        1 HNT     -0.036000
      5 C5         -0.5400    1.4880    1.7610 c1        1 HNT     -0.066000
      6 C6         -1.9310    1.7090    1.7900 c1        1 HNT     -0.133000
      7 C7         -2.7780    1.0670    0.8350 c1        1 HNT     -0.068000
      8 C8         -2.2250    0.2130   -0.1370 c1        1 HNT     -0.142000
      9 O22         3.0330   -1.9650   -2.5890 oh        1 HNT     -0.335000
     10 C22         1.7710   -2.1870   -2.0010 c3        1 HNT     -0.021000
     11 C8A        -0.8600   -0.0070   -0.1680 c2        1 HNT     -0.013000
     12 N1         -2.4920    2.5630    2.7740 no        1 HNT      0.832400
     13 O3         -1.9400    3.6160    3.0560 o         1 HNT     -0.492200
     14 C4A         0.0070    0.6500    0.8090 c2        1 HNT     -0.078000
     15 N41         1.9360   -0.7350   -0.0470 n3        1 HNT     -0.294000
     16 H11        -0.4590   -1.8050   -1.1190 hc        1 HNT      0.106000
     17 H12        -0.5110   -0.5820   -2.1290 hc        1 HNT      0.106000
     18 H2          1.5400   -0.0850   -1.8480 h1        1 HNT      0.079000
     19 H41A        2.0590    1.0800    0.5020 h1        1 HNT      0.089000
     20 H42         1.8270    0.0190    1.6930 h1        1 HNT      0.089000
     21 H5          0.0370    1.9270    2.4150 ha        1 HNT      0.170000
     22 H7         -3.7410    1.2220    0.8560 ha        1 HNT      0.170000
     23 H8         -2.8040   -0.2250   -0.7880 ha        1 HNT      0.147000
     24 H22         3.2480   -2.6600   -3.1000 ho        1 HNT      0.206000
     25 H221        1.8420   -2.9010   -1.3340 h1        1 HNT      0.074000
     26 H222        1.1300   -2.4500   -2.6930 h1        1 HNT      0.074000
     27 H41         2.8410   -0.7180   -0.1810 hn        1 HNT      0.181000
@<TRIPOS>BOND
     1    1    2 1   
     2    1   11 1   
     3    1   16 1   
     4    1   17 1   
     5    2   10 1   
     6    2   15 1   
     7    2   18 1   
     8    3   12 2   
     9    4   14 1   
    10    4   15 1   
    11    4   19 1   
    12    4   20 1   
    13    5   14 1   
    14    5   21 1   
    15    6    7 1   
    16    6   12 1   
    17    7   22 1   
    18    8   11 1   
    19    8   23 1   
    20    9   10 1   
    21    9   24 1   
    22   10   25 1   
    23   10   26 1   
    24   11   14 1   
    25   12   13 2   
    26   15   27 1   
@<TRIPOS>SUBSTRUCTURE
     1 HNT         1 TEMP              0 ****  ****    0 ROOT
