@<TRIPOS>MOLECULE
HNT
   27    26     1     0     0
SMALL
bcc


@<TRIPOS>ATOM
      1 C1         -1.4490   -0.0900    1.2310 c2        1 HNT     -0.186000
      2 C2          1.5390   -0.2960   -0.2070 c3        1 HNT      0.156800
      3 O2         -2.8770    4.2590    4.1900 o         1 HNT     -0.230500
      4 C4          1.5900    1.2090    1.7560 c2        1 HNT      0.169000
      5 C5         -0.1090    2.5000    2.8780 ce        1 HNT      0.025000
      6 C6         -1.3720    2.9520    3.0500 c2        1 HNT     -0.283100
      7 C7         -1.3490    2.5090   -1.1270 c1        1 HNT     -0.135500
      8 C8         -1.0920    1.8350   -0.1710 cg        1 HNT     -0.175300
      9 C22         2.4990   -1.1290   -1.0670 c3        1 HNT      0.112400
     10 C8A        -0.7880    1.0480    0.9640 ce        1 HNT      0.076300
     11 N1         -1.7300    3.9050    4.1040 no        1 HNT      0.288100
     12 O3         -0.8850    4.3170    4.8600 o         1 HNT     -0.230500
     13 C4A         0.2660    1.5620    1.8510 ce        1 HNT     -0.233000
     14 N41         2.1900    0.3240    0.9160 nu        1 HNT     -0.746000
     15 H11         0.7200   -0.9730    0.1750 h1        1 HNT      0.060700
     16 H12        -2.2510   -0.4690    0.5840 ha        1 HNT      0.125500
     17 H2         -1.2240   -0.6970    2.1170 ha        1 HNT      0.125500
     18 H41A        1.0520    0.4930   -0.8530 h1        1 HNT      0.060700
     19 H42         2.3030    1.6620    2.4830 h4        1 HNT      0.143000
     20 H5          0.7000    2.8540    3.5500 ha        1 HNT      0.148000
     21 H7         -2.2380    2.6640    2.4320 h4        1 HNT      0.187000
     22 H8         -1.5830    3.1100   -1.9690 ha        1 HNT      0.169500
     23 H22         3.2710    0.3140   -2.1020 ho        1 HNT      0.405000
     24 H221        1.9250   -1.5460   -1.9360 h1        1 HNT      0.062200
     25 H222        2.9530   -1.9710   -0.4770 h1        1 HNT      0.062200
     26 H41         3.1870    0.3230    0.8860 hn        1 HNT      0.443800
     27 O22         3.6060   -0.3700   -1.5090 oh        1 HNT     -0.598800
@<TRIPOS>BOND
     1    1   10 2   
     2    1   16 1   
     3    1   17 1   
     4    2    9 1   
     5    2   14 1   
     6    2   15 1   
     7    2   18 1   
     8    3   11 1   
     9    4   13 2   
    10    4   14 1   
    11    4   19 1   
    12    5    6 2   
    13    5   13 1   
    14    5   20 1   
    15    6   11 1   
    16    6   21 1   
    17    7    8 3   
    18    7   22 1   
    19    8   10 1   
    20    9   24 1   
    21    9   25 1   
    22    9   27 1   
    23   10   13 1   
    24   11   12 1   
    25   14   26 1   
    26   23   27 1   
@<TRIPOS>SUBSTRUCTURE
     1 HNT         1 TEMP              0 ****  ****    0 ROOT
