@<TRIPOS>MOLECULE
HNT
   27    27     1     0     0
SMALL
bcc


@<TRIPOS>ATOM
      1 C1         -0.0690   -0.1460   -0.0020 c3        1 HNT     -0.041200
      2 C2          1.4550   -0.1160   -0.1770 c3        1 HNT      0.139500
      3 O2         -2.3380    5.3030    3.1790 o         1 HNT     -0.214000
      4 C4          1.7610    1.2340    1.8120 c3        1 HNT      0.207000
      5 C5         -0.0710    2.6480    2.6630 ce        1 HNT     -0.024000
      6 C6         -1.0800    3.5160    2.4630 c2        1 HNT     -0.233100
      7 C7         -3.1110    1.3960    0.7200 c1        1 HNT     -0.099500
      8 C8         -1.9300    1.2110    0.8130 ch        1 HNT     -0.197300
      9 C22         1.9040   -1.3950   -0.9100 c3        1 HNT      0.125400
     10 C8A        -0.5490    0.9490    0.8970 cf        1 HNT      0.091100
     11 N1         -1.4070    4.5830    3.4280 no        1 HNT      0.280100
     12 O3         -0.7500    4.7130    4.4280 o         1 HNT     -0.214000
     13 C4A         0.2970    1.5910    1.7420 ce        1 HNT     -0.101200
     14 N41         2.1220    0.0210    1.1100 n3        1 HNT     -0.818200
     15 H11         1.7020    0.7620   -0.8540 h1        1 HNT      0.017700
     16 H12        -0.5490   -0.0490   -1.0110 hc        1 HNT      0.071200
     17 H2         -0.3840   -1.1320    0.4360 hc        1 HNT      0.071200
     18 H41A        2.3380    2.1360    1.4420 h1        1 HNT      0.048700
     19 H42         2.0430    1.0710    2.8940 h1        1 HNT      0.048700
     20 H5          0.5610    2.7270    3.5720 ha        1 HNT      0.165000
     21 H7         -1.7560    3.5330    1.5900 h4        1 HNT      0.192000
     22 H8         -4.1560    1.5660    0.6440 ha        1 HNT      0.176500
     23 H22         3.3510   -0.6130   -1.9290 ho        1 HNT      0.397000
     24 H221        1.2560   -1.5430   -1.8130 h1        1 HNT      0.059200
     25 H222        1.8380   -2.2960   -0.2430 h1        1 HNT      0.059200
     26 H41         3.1160   -0.0480    0.9950 hn        1 HNT      0.386800
     27 O22         3.2660   -1.3190   -1.2770 oh        1 HNT     -0.593800
@<TRIPOS>BOND
     1    1    2 1   
     2    1   10 1   
     3    1   16 1   
     4    1   17 1   
     5    2    9 1   
     6    2   14 1   
     7    2   15 1   
     8    3   11 1   
     9    4   13 1   
    10    4   14 1   
    11    4   18 1   
    12    4   19 1   
    13    5    6 2   
    14    5   13 1   
    15    5   20 1   
    16    6   11 1   
    17    6   21 1   
    18    7    8 3   
    19    7   22 1   
    20    8   10 1   
    21    9   24 1   
    22    9   25 1   
    23    9   27 1   
    24   10   13 2   
    25   11   12 1   
    26   14   26 1   
    27   23   27 1   
@<TRIPOS>SUBSTRUCTURE
     1 HNT         1 TEMP              0 ****  ****    0 ROOT
