@<TRIPOS>MOLECULE
HNV
   43    44     1     0     0
SMALL
bcc


@<TRIPOS>ATOM
      1 O6         -0.2510   -0.6200    0.2360 oh        1 HNV     -0.591800
      2 C6          1.1330   -0.3950    0.0870 c3        1 HNV      0.135400
      3 C5          1.7900   -0.0490    1.4270 c3        1 HNV      0.072100
      4 O5          1.5590   -1.1890    2.2610 os        1 HNV     -0.443600
      5 C4          3.2970    0.1920    1.2810 c3        1 HNV      0.080100
      6 O4          3.5750    1.3500    0.5100 oh        1 HNV     -0.601800
      7 C3          3.8950    0.4630    2.6720 c3        1 HNV      0.116100
      8 O3          5.3060    0.5790    2.5980 oh        1 HNV     -0.612800
      9 C2          3.6010   -0.7100    3.6170 c3        1 HNV      0.136100
     10 O2          4.3370   -1.8730    3.2790 oh        1 HNV     -0.598800
     11 C1          2.1160   -1.1190    3.5560 c3        1 HNV      0.333900
     12 O1          1.3930   -0.1210    4.2510 os        1 HNV     -0.442600
     13 C7          0.0430   -0.5140    4.5530 c3        1 HNV      0.223500
     14 C8         -0.6100    0.5840    5.2070 c1        1 HNV     -0.138100
     15 C9         -1.1720    1.4910    5.7520 cg        1 HNV     -0.077000
     16 C10        -1.8450    2.5460    6.3930 ca        1 HNV     -0.020000
     17 C15        -2.9230    3.1900    5.7580 ca        1 HNV     -0.069000
     18 C14        -3.5910    4.2320    6.3840 ca        1 HNV     -0.186000
     19 C13        -3.1800    4.6440    7.6670 ca        1 HNV      0.136100
     20 O7         -3.9100    5.6860    8.2010 os        1 HNV     -0.324900
     21 C16        -3.5170    6.1330    9.4940 c3        1 HNV      0.112700
     22 C12        -2.1090    4.0130    8.3100 ca        1 HNV     -0.186000
     23 C11        -1.4470    2.9680    7.6700 ca        1 HNV     -0.069000
     24 H6         -0.3560   -1.3190    0.8950 ho        1 HNV      0.415000
     25 H61C        1.6290   -1.2970   -0.3600 h1        1 HNV      0.051200
     26 H62C        1.2120    0.4800   -0.6110 h1        1 HNV      0.051200
     27 H5          1.2940    0.8500    1.8880 h1        1 HNV      0.082700
     28 H4          3.7930   -0.7100    0.8270 h1        1 HNV      0.067700
     29 H1          1.9650   -2.1530    3.9820 h2        1 HNV      0.097700
     30 HA          3.2730    1.1700   -0.3880 ho        1 HNV      0.411000
     31 H3          3.4530    1.4080    3.0940 h1        1 HNV      0.076700
     32 HB          5.4930    1.2530    1.9310 ho        1 HNV      0.431000
     33 H2          3.8530   -0.4010    4.6700 h1        1 HNV      0.073700
     34 HC          5.2540   -1.5920    3.1450 ho        1 HNV      0.431000
     35 H71C       -0.4840   -0.7760    3.5920 h1        1 HNV      0.055200
     36 H72C        0.0700   -1.4170    5.2260 h1        1 HNV      0.055200
     37 H15        -3.2360    2.8630    4.7540 ha        1 HNV      0.142000
     38 H11        -0.6030    2.4700    8.1720 ha        1 HNV      0.142000
     39 H14        -4.4340    4.7420    5.8970 ha        1 HNV      0.146500
     40 H12        -1.7820    4.3300    9.3100 ha        1 HNV      0.146500
     41 H161       -2.4660    6.5110    9.4780 h1        1 HNV      0.046033
     42 H162       -3.6270    5.3130   10.2440 h1        1 HNV      0.046033
     43 H163       -4.2340    6.9650    9.7090 h1        1 HNV      0.046033
@<TRIPOS>BOND
     1    1    2 1   
     2    1   24 1   
     3    2    3 1   
     4    2   25 1   
     5    2   26 1   
     6    3    4 1   
     7    3    5 1   
     8    3   27 1   
     9    4   11 1   
    10    5    6 1   
    11    5    7 1   
    12    5   28 1   
    13    6   30 1   
    14    7    8 1   
    15    7    9 1   
    16    7   31 1   
    17    8   32 1   
    18    9   10 1   
    19    9   11 1   
    20    9   33 1   
    21   10   34 1   
    22   11   12 1   
    23   11   29 1   
    24   12   13 1   
    25   13   14 1   
    26   13   35 1   
    27   13   36 1   
    28   14   15 3   
    29   15   16 1   
    30   16   17 ar  
    31   16   23 ar  
    32   17   18 ar  
    33   17   37 1   
    34   18   19 ar  
    35   18   39 1   
    36   19   20 1   
    37   19   22 ar  
    38   20   21 1   
    39   21   41 1   
    40   21   42 1   
    41   21   43 1   
    42   22   23 ar  
    43   22   40 1   
    44   23   38 1   
@<TRIPOS>SUBSTRUCTURE
     1 HNV         1 TEMP              0 ****  ****    0 ROOT
