@<TRIPOS>MOLECULE
HNV
   43    41     1     0     0
SMALL
bcc


@<TRIPOS>ATOM
      1 O6          4.1420    1.7910   -4.6470 oh        1 HNV     -0.333000
      2 C6          3.1150    1.2890   -3.8580 c3        1 HNV     -0.058000
      3 C5          3.5200    1.3410   -2.4280 c3        1 HNV      0.011000
      4 O5          2.3480    1.1230   -1.6100 os        1 HNV     -0.286000
      5 C4          4.6130    0.2920   -2.1820 c3        1 HNV      0.006000
      6 O4          5.1470    0.4840   -0.8610 oh        1 HNV     -0.322000
      7 C3          4.1050   -1.0740   -2.2850 c3        1 HNV      0.042000
      8 O3          3.7500   -1.3560   -3.7210 oh        1 HNV     -0.337000
      9 C2          2.9250   -1.2850   -1.4580 c3        1 HNV     -0.019000
     10 O2          2.3800   -2.5990   -1.7430 oh        1 HNV     -0.337000
     11 C1          1.8390   -0.2260   -1.7060 c3        1 HNV      0.113000
     12 O1          0.8210   -0.3940   -0.7600 os        1 HNV     -0.268000
     13 C7         -0.2680    0.5680   -0.8870 c3        1 HNV      0.093000
     14 C8         -1.3370    0.2840    0.1970 c1        1 HNV     -0.201000
     15 C9         -2.1750    0.0660    1.0380 c1        1 HNV     -0.088000
     16 C10        -3.2300   -0.2080    2.0980 c1        1 HNV     -0.018000
     17 C15        -4.5410    0.1720    1.8790 c2        1 HNV     -0.069000
     18 C14        -5.4790    0.0370    2.8930 c1        1 HNV     -0.209000
     19 C13        -5.0960   -0.4830    4.1340 c1        1 HNV      0.091000
     20 O7         -6.0620   -0.7180    5.1260 os        1 HNV     -0.208000
     21 C16        -6.6710    0.4500    5.6130 c3        1 HNV     -0.077000
     22 C12        -3.7840   -0.8620    4.3480 c1        1 HNV     -0.160000
     23 C11        -2.8510   -0.7270    3.3370 c1        1 HNV     -0.073000
     24 H6          3.8080    2.2030   -5.3290 ho        1 HNV      0.207000
     25 H61C        2.9250    0.3310   -4.1200 h1        1 HNV      0.088000
     26 H62C        2.3090    1.8290   -3.9890 h1        1 HNV      0.088000
     27 H5          3.8820    2.2230   -2.2350 h1        1 HNV      0.131000
     28 H4          5.3050    0.4130   -2.8150 h1        1 HNV      0.115000
     29 H1          1.4620   -0.3580   -2.6060 h2        1 HNV      0.104000
     30 HA          6.0080    0.7450   -0.9190 ho        1 HNV      0.210000
     31 H3          4.7880   -1.6810   -2.0100 h1        1 HNV      0.112000
     32 HB          4.2650   -2.0350   -4.0320 ho        1 HNV      0.228000
     33 H2          3.1890   -1.2500   -0.5190 h1        1 HNV      0.125000
     34 HC          2.5420   -3.1490   -1.0460 ho        1 HNV      0.226000
     35 H71C        0.0840    1.4770   -0.7710 h1        1 HNV      0.119500
     36 H72C       -0.6720    0.4850   -1.7720 h1        1 HNV      0.119500
     37 H15        -4.8110    0.5390    1.0050 ha        1 HNV      0.140000
     38 H11        -1.9290   -0.9940    3.4900 ha        1 HNV      0.143000
     39 H14        -6.4200    0.3080    2.7400 ha        1 HNV      0.141000
     40 H12        -3.5120   -1.2310    5.2270 ha        1 HNV      0.153000
     41 H161       -6.9870    0.2960    6.5400 h1        1 HNV      0.085333
     42 H162       -6.0070    1.2000    5.6080 h1        1 HNV      0.085333
     43 H163       -7.4390    0.6840    5.0370 h1        1 HNV      0.085333
@<TRIPOS>BOND
     1    1    2 1   
     2    1   24 1   
     3    2    3 1   
     4    2   25 1   
     5    2   26 1   
     6    3    4 1   
     7    3    5 1   
     8    3   27 1   
     9    4   11 1   
    10    5    6 1   
    11    5    7 1   
    12    5   28 1   
    13    6   30 1   
    14    7    8 1   
    15    7    9 1   
    16    7   31 1   
    17    8   32 1   
    18    9   10 1   
    19    9   11 1   
    20    9   33 1   
    21   10   34 1   
    22   11   12 1   
    23   11   29 1   
    24   12   13 1   
    25   13   14 1   
    26   13   35 1   
    27   13   36 1   
    28   14   15 1   
    29   16   17 1   
    30   16   23 1   
    31   17   18 1   
    32   17   37 1   
    33   18   39 1   
    34   19   20 1   
    35   19   22 1   
    36   20   21 1   
    37   21   41 1   
    38   21   42 1   
    39   21   43 1   
    40   22   40 1   
    41   23   38 1   
@<TRIPOS>SUBSTRUCTURE
     1 HNV         1 TEMP              0 ****  ****    0 ROOT
