@<TRIPOS>MOLECULE
HNV
   43    44     1     0     0
SMALL
bcc


@<TRIPOS>ATOM
      1 O6         -0.0260   -0.3870    0.1840 oh        1 HNV     -0.598800
      2 C6          1.3140   -0.8430    0.0970 c3        1 HNV      0.135400
      3 C5          2.0240   -0.3730    1.3660 c3        1 HNV      0.139100
      4 O5          1.7170   -1.3390    2.3790 os        1 HNV     -0.444600
      5 C4          3.5470   -0.3240    1.1700 c3        1 HNV      0.087100
      6 O4          3.8240    0.6270    0.1580 oh        1 HNV     -0.592800
      7 C3          4.2160    0.0680    2.5000 c3        1 HNV      0.075100
      8 O3          5.6190    0.0960    2.3340 oh        1 HNV     -0.594800
      9 C2          3.7930   -0.8900    3.6220 c3        1 HNV      0.094100
     10 O2          4.4120   -2.1520    3.4620 oh        1 HNV     -0.592800
     11 C1          2.2600   -1.0530    3.6520 c3        1 HNV      0.299900
     12 O1          1.7130    0.1690    4.0960 os        1 HNV     -0.437600
     13 C7          0.2900    0.1050    4.3100 c3        1 HNV      0.218500
     14 C8         -0.1290    1.3470    4.8940 c1        1 HNV     -0.135100
     15 C9         -0.4990    2.3790    5.3780 cg        1 HNV     -0.080000
     16 C10        -0.9480    3.5840    5.9470 ca        1 HNV     -0.018000
     17 C15        -0.3650    4.0720    7.1260 ca        1 HNV     -0.069500
     18 C14        -0.8040    5.2660    7.6930 ca        1 HNV     -0.186000
     19 C13        -1.8380    5.9790    7.0760 ca        1 HNV      0.135100
     20 O7         -2.3570    7.1690    7.5450 os        1 HNV     -0.324900
     21 C16        -1.7710    7.6850    8.7350 c3        1 HNV      0.112700
     22 C12        -2.4330    5.5020    5.8920 ca        1 HNV     -0.186000
     23 C11        -1.9850    4.3130    5.3360 ca        1 HNV     -0.069500
     24 H6         -0.4670   -0.6810   -0.6220 ho        1 HNV      0.403000
     25 H61C        1.8250   -0.3850   -0.7940 h1        1 HNV      0.045700
     26 H62C        1.3390   -1.9620    0.0240 h1        1 HNV      0.045700
     27 H5          1.6380    0.6360    1.6800 h1        1 HNV      0.093700
     28 H4          3.9290   -1.3310    0.8360 h1        1 HNV      0.037700
     29 H1          1.9530   -1.9270    4.2950 h2        1 HNV      0.089700
     30 HA          4.7470    0.8940    0.2740 ho        1 HNV      0.424000
     31 H3          3.9280    1.1220    2.7730 h1        1 HNV      0.110700
     32 HB          5.9400   -0.8140    2.4040 ho        1 HNV      0.417000
     33 H2          4.1630   -0.5090    4.6140 h1        1 HNV      0.111700
     34 HC          3.9810   -2.5940    2.7170 ho        1 HNV      0.411000
     35 H71C        0.0590   -0.7550    5.0000 h1        1 HNV      0.064200
     36 H72C       -0.2120   -0.0620    3.3140 h1        1 HNV      0.064200
     37 H15         0.4490    3.5070    7.6070 ha        1 HNV      0.142500
     38 H11        -2.4430    3.9340    4.4100 ha        1 HNV      0.142500
     39 H14        -0.3350    5.6320    8.6160 ha        1 HNV      0.146000
     40 H12        -3.2430    6.0800    5.4240 ha        1 HNV      0.146000
     41 H161       -2.3370    8.6340    8.9130 h1        1 HNV      0.045700
     42 H162       -0.6850    7.8980    8.5800 h1        1 HNV      0.045700
     43 H163       -1.9140    6.9750    9.5850 h1        1 HNV      0.045700
@<TRIPOS>BOND
     1    1    2 1   
     2    1   24 1   
     3    2    3 1   
     4    2   25 1   
     5    2   26 1   
     6    3    4 1   
     7    3    5 1   
     8    3   27 1   
     9    4   11 1   
    10    5    6 1   
    11    5    7 1   
    12    5   28 1   
    13    6   30 1   
    14    7    8 1   
    15    7    9 1   
    16    7   31 1   
    17    8   32 1   
    18    9   10 1   
    19    9   11 1   
    20    9   33 1   
    21   10   34 1   
    22   11   12 1   
    23   11   29 1   
    24   12   13 1   
    25   13   14 1   
    26   13   35 1   
    27   13   36 1   
    28   14   15 3   
    29   15   16 1   
    30   16   17 ar  
    31   16   23 ar  
    32   17   18 ar  
    33   17   37 1   
    34   18   19 ar  
    35   18   39 1   
    36   19   20 1   
    37   19   22 ar  
    38   20   21 1   
    39   21   41 1   
    40   21   42 1   
    41   21   43 1   
    42   22   23 ar  
    43   22   40 1   
    44   23   38 1   
@<TRIPOS>SUBSTRUCTURE
     1 HNV         1 TEMP              0 ****  ****    0 ROOT
