@<TRIPOS>MOLECULE
HNV
   43    44     1     0     0
SMALL
bcc


@<TRIPOS>ATOM
      1 O6          3.9620    3.2250    0.9820 oh        1 HNV     -0.600800
      2 C6          4.4380    2.2330    0.0860 c3        1 HNV      0.134400
      3 C5          3.7610    0.9190    0.4790 c3        1 HNV      0.145100
      4 O5          2.4970    0.9050   -0.1950 os        1 HNV     -0.427600
      5 C4          4.5870   -0.2920    0.0210 c3        1 HNV      0.086100
      6 O4          5.8480   -0.2280    0.6620 oh        1 HNV     -0.596800
      7 C3          3.8380   -1.5810    0.4030 c3        1 HNV      0.116100
      8 O3          4.5880   -2.7120    0.0120 oh        1 HNV     -0.596800
      9 C2          2.4330   -1.5830   -0.2110 c3        1 HNV      0.095100
     10 O2          2.5970   -1.8100   -1.6020 oh        1 HNV     -0.601800
     11 C1          1.7110   -0.2420    0.0310 c3        1 HNV      0.297900
     12 O1          1.3330   -0.2190    1.3960 os        1 HNV     -0.438600
     13 C7          0.4170    0.8230    1.7350 c3        1 HNV      0.212500
     14 C8         -0.9010    0.6030    1.2010 c1        1 HNV     -0.169100
     15 C9         -2.0110    0.4420    0.7760 cg        1 HNV     -0.090000
     16 C10        -3.3120    0.2570    0.2770 ca        1 HNV     -0.023000
     17 C15        -3.8260    1.1270   -0.7030 ca        1 HNV     -0.070000
     18 C14        -5.1080    0.9510   -1.2010 ca        1 HNV     -0.186000
     19 C13        -5.8970   -0.1110   -0.7170 ca        1 HNV      0.137100
     20 O7         -7.1550   -0.2000   -1.2780 os        1 HNV     -0.324900
     21 C16        -7.9840   -1.2540   -0.8010 c3        1 HNV      0.112700
     22 C12        -5.3990   -0.9840    0.2580 ca        1 HNV     -0.186000
     23 C11        -4.1100   -0.7950    0.7500 ca        1 HNV     -0.070000
     24 H6          4.3500    4.0590    0.6940 ho        1 HNV      0.401000
     25 H61C        4.1770    2.5040   -0.9710 h1        1 HNV      0.047200
     26 H62C        5.5500    2.1170    0.1940 h1        1 HNV      0.047200
     27 H5          3.5930    0.8820    1.5900 h1        1 HNV      0.084700
     28 H4          4.7340   -0.2620   -1.0950 h1        1 HNV      0.059700
     29 H1          0.8260   -0.1170   -0.6560 h2        1 HNV      0.084700
     30 HA          6.2220   -1.1210    0.6270 ho        1 HNV      0.421000
     31 H3          3.7530   -1.6600    1.5240 h1        1 HNV      0.103700
     32 HB          4.5480   -2.7700   -0.9520 ho        1 HNV      0.421000
     33 H2          1.8230   -2.4130    0.2440 h1        1 HNV      0.072700
     34 HC          1.7140   -1.8650   -1.9880 ho        1 HNV      0.415000
     35 H71C        0.4000    0.7920    2.8630 h1        1 HNV      0.084200
     36 H72C        0.8240    1.8120    1.3810 h1        1 HNV      0.084200
     37 H15        -3.2040    1.9560   -1.0750 ha        1 HNV      0.142000
     38 H11        -3.7150   -1.4770    1.5180 ha        1 HNV      0.142000
     39 H14        -5.5200    1.6240   -1.9660 ha        1 HNV      0.147000
     40 H12        -6.0100   -1.8130    0.6410 ha        1 HNV      0.147000
     41 H161       -8.1750   -1.1410    0.2930 h1        1 HNV      0.046367
     42 H162       -8.9320   -1.1210   -1.3830 h1        1 HNV      0.046367
     43 H163       -7.5230   -2.2480   -1.0190 h1        1 HNV      0.046367
@<TRIPOS>BOND
     1    1    2 1   
     2    1   24 1   
     3    2    3 1   
     4    2   25 1   
     5    2   26 1   
     6    3    4 1   
     7    3    5 1   
     8    3   27 1   
     9    4   11 1   
    10    5    6 1   
    11    5    7 1   
    12    5   28 1   
    13    6   30 1   
    14    7    8 1   
    15    7    9 1   
    16    7   31 1   
    17    8   32 1   
    18    9   10 1   
    19    9   11 1   
    20    9   33 1   
    21   10   34 1   
    22   11   12 1   
    23   11   29 1   
    24   12   13 1   
    25   13   14 1   
    26   13   35 1   
    27   13   36 1   
    28   14   15 3   
    29   15   16 1   
    30   16   17 ar  
    31   16   23 ar  
    32   17   18 ar  
    33   17   37 1   
    34   18   19 ar  
    35   18   39 1   
    36   19   20 1   
    37   19   22 ar  
    38   20   21 1   
    39   21   41 1   
    40   21   42 1   
    41   21   43 1   
    42   22   23 ar  
    43   22   40 1   
    44   23   38 1   
@<TRIPOS>SUBSTRUCTURE
     1 HNV         1 TEMP              0 ****  ****    0 ROOT
