@<TRIPOS>MOLECULE
HNW
   40    38     1     0     0
SMALL
bcc


@<TRIPOS>ATOM
      1 O6         -0.9230    3.1110   -4.4210 oh        1 HNW     -0.322000
      2 C6         -0.2800    1.8790   -4.1290 c3        1 HNW     -0.009000
      3 C5          0.2120    1.8960   -2.7100 c3        1 HNW     -0.010000
      4 O5          0.3610    0.5310   -2.2500 os        1 HNW     -0.303000
      5 C4          1.5250    2.6810   -2.6490 c3        1 HNW     -0.021000
      6 O4          1.2540    4.0600   -2.9480 oh        1 HNW     -0.318000
      7 C3          2.1740    2.5960   -1.3110 c3        1 HNW     -0.037000
      8 O3          3.5090    3.2110   -1.3920 oh        1 HNW     -0.320000
      9 C2          2.3200    1.2240   -0.8590 c3        1 HNW     -0.021000
     10 O2          3.3090    0.5580   -1.6880 oh        1 HNW     -0.318000
     11 O7         -2.5500   -6.2820    4.7240 oh        1 HNW     -0.316000
     12 C7         -3.0670   -5.0140    5.0930 c3        1 HNW      0.092000
     13 C8         -2.4890   -3.9410    4.1710 c1        1 HNW     -0.143000
     14 C9         -2.0340   -3.0980    3.4450 c1        1 HNW     -0.099000
     15 C10        -1.4620   -2.0350    2.5320 c1        1 HNW      0.019000
     16 C15        -0.1210   -1.6940    2.6210 c2        1 HNW     -0.086000
     17 C14         0.4140   -0.7390    1.7580 c1        1 HNW     -0.169000
     18 C13        -0.3930   -0.1330    0.8130 c1        1 HNW      0.065000
     19 O1          0.1170    0.9400    0.0290 os        1 HNW     -0.245000
     20 C1          0.9960    0.4390   -0.9330 c3        1 HNW      0.120000
     21 C12        -1.7420   -0.4780    0.7250 c1        1 HNW     -0.135000
     22 C11        -2.2730   -1.4260    1.5830 c1        1 HNW     -0.092000
     23 H6         -1.6880    2.9530   -4.8520 ho        1 HNW      0.209000
     24 H61C       -0.9250    1.1320   -4.2470 h1        1 HNW      0.102500
     25 H62C        0.4700    1.7560   -4.7290 h1        1 HNW      0.102500
     26 H5         -0.4490    2.3450   -2.1530 h1        1 HNW      0.126000
     27 H4          2.1400    2.3230   -3.3250 h1        1 HNW      0.079000
     28 H1          1.1760   -0.4980   -0.7360 h2        1 HNW      0.141000
     29 HA          1.9780    4.5460   -2.7820 ho        1 HNW      0.223000
     30 H3          1.6330    3.0920   -0.6600 h1        1 HNW      0.149000
     31 HB          3.6320    3.7490   -0.6910 ho        1 HNW      0.216000
     32 H2          2.6370    1.2290    0.0730 h1        1 HNW      0.151000
     33 HC          3.9290    0.1600   -1.1580 ho        1 HNW      0.211000
     34 HD         -2.7810   -6.8930    5.3440 ho        1 HNW      0.203000
     35 H71C       -2.8180   -4.8170    6.0160 h1        1 HNW      0.082000
     36 H72C       -4.0340   -5.0230    5.0140 h1        1 HNW      0.082000
     37 H15         0.4370   -2.1130    3.2760 ha        1 HNW      0.148000
     38 H11        -3.2250   -1.6700    1.5200 ha        1 HNW      0.145000
     39 H14         1.3430   -0.5030    1.8200 ha        1 HNW      0.141000
     40 H12        -2.3090   -0.0540    0.0630 ha        1 HNW      0.155000
@<TRIPOS>BOND
     1    1    2 1   
     2    1   23 1   
     3    2    3 1   
     4    2   24 1   
     5    2   25 1   
     6    3    4 1   
     7    3    5 1   
     8    3   26 1   
     9    4   20 1   
    10    5    6 1   
    11    5    7 1   
    12    5   27 1   
    13    6   29 1   
    14    7    8 1   
    15    7    9 1   
    16    7   30 1   
    17    8   31 1   
    18    9   10 1   
    19    9   20 1   
    20    9   32 1   
    21   10   33 1   
    22   11   12 1   
    23   11   34 1   
    24   12   13 1   
    25   12   35 1   
    26   12   36 1   
    27   13   14 1   
    28   15   16 1   
    29   15   22 1   
    30   16   17 1   
    31   16   37 1   
    32   17   39 1   
    33   18   19 1   
    34   18   21 1   
    35   19   20 1   
    36   20   28 1   
    37   21   40 1   
    38   22   38 1   
@<TRIPOS>SUBSTRUCTURE
     1 HNW         1 TEMP              0 ****  ****    0 ROOT
