@<TRIPOS>MOLECULE
HNW
   40    41     1     0     0
SMALL
bcc


@<TRIPOS>ATOM
      1 O6         -1.5760    3.4900   -0.2360 oh        1 HNW     -0.595800
      2 C6         -2.6980    2.7980    0.2860 c3        1 HNW      0.134400
      3 C5         -2.5660    1.3390   -0.1540 c3        1 HNW      0.147100
      4 O5         -1.7490    0.7000    0.8360 os        1 HNW     -0.421600
      5 C4         -3.9390    0.6500   -0.1960 c3        1 HNW      0.085100
      6 O4         -4.7350    1.3250   -1.1540 oh        1 HNW     -0.594800
      7 C3         -3.7500   -0.8270   -0.5780 c3        1 HNW      0.115100
      8 O3         -5.0020   -1.4780   -0.6470 oh        1 HNW     -0.595800
      9 C2         -2.8030   -1.5140    0.4130 c3        1 HNW      0.091100
     10 O2         -3.5180   -1.6570    1.6290 oh        1 HNW     -0.597800
     11 O7          7.8540    0.1420    1.1540 oh        1 HNW     -0.588800
     12 C7          7.4330   -0.1660   -0.1720 c3        1 HNW      0.217500
     13 C8          6.0000   -0.2700   -0.1970 c1        1 HNW     -0.127100
     14 C10         3.4040   -0.4640   -0.2910 ca        1 HNW     -0.001000
     15 C15         2.7920   -1.3090   -1.2320 ca        1 HNW     -0.083000
     16 C14         1.4080   -1.4240   -1.2840 ca        1 HNW     -0.165000
     17 C13         0.6260   -0.6760   -0.3870 ca        1 HNW      0.121100
     18 O1         -0.7460   -0.8050   -0.5410 os        1 HNW     -0.361900
     19 C1         -1.5280   -0.6740    0.6430 c3        1 HNW      0.304900
     20 C12         1.2190    0.1800    0.5480 ca        1 HNW     -0.165000
     21 C11         2.6060    0.2800    0.5940 ca        1 HNW     -0.083000
     22 H6         -1.6480    4.4000    0.0750 ho        1 HNW      0.401000
     23 H61C       -2.7140    2.8670    1.4060 h1        1 HNW      0.046200
     24 H62C       -3.6460    3.2220   -0.1410 h1        1 HNW      0.046200
     25 H5         -2.0590    1.2740   -1.1560 h1        1 HNW      0.091700
     26 H4         -4.4360    0.7150    0.8130 h1        1 HNW      0.059700
     27 H1         -0.9740   -1.0070    1.5670 h2        1 HNW      0.086700
     28 HA         -5.4480    0.7180   -1.3990 ho        1 HNW      0.421000
     29 H3         -3.3210   -0.9070   -1.6180 h1        1 HNW      0.105700
     30 HB         -5.3370   -1.5610    0.2570 ho        1 HNW      0.421000
     31 H2         -2.5080   -2.5250    0.0150 h1        1 HNW      0.071700
     32 HC         -2.9670   -2.1780    2.2260 ho        1 HNW      0.415000
     33 HD          8.8130    0.2320    1.1120 ho        1 HNW      0.402000
     34 H71C        7.7690    0.6490   -0.8760 h1        1 HNW      0.040700
     35 H72C        7.8940   -1.1430   -0.4960 h1        1 HNW      0.040700
     36 H11         3.0820    0.9510    1.3250 ha        1 HNW      0.143500
     37 H14         0.9200   -2.0780   -2.0190 ha        1 HNW      0.156000
     38 H12         0.5910    0.7840    1.2220 ha        1 HNW      0.156000
     39 H15         3.4140   -1.8870   -1.9330 ha        1 HNW      0.143500
     40 C9          4.8060   -0.3600   -0.2360 cg        1 HNW     -0.087000
@<TRIPOS>BOND
     1    1    2 1   
     2    1   22 1   
     3    2    3 1   
     4    2   23 1   
     5    2   24 1   
     6    3    4 1   
     7    3    5 1   
     8    3   25 1   
     9    4   19 1   
    10    5    6 1   
    11    5    7 1   
    12    5   26 1   
    13    6   28 1   
    14    7    8 1   
    15    7    9 1   
    16    7   29 1   
    17    8   30 1   
    18    9   10 1   
    19    9   19 1   
    20    9   31 1   
    21   10   32 1   
    22   11   12 1   
    23   11   33 1   
    24   12   13 1   
    25   12   34 1   
    26   12   35 1   
    27   13   40 3   
    28   14   15 ar  
    29   14   21 ar  
    30   14   40 1   
    31   15   16 ar  
    32   15   39 1   
    33   16   17 ar  
    34   16   37 1   
    35   17   18 1   
    36   17   20 ar  
    37   18   19 1   
    38   19   27 1   
    39   20   21 ar  
    40   20   38 1   
    41   21   36 1   
@<TRIPOS>SUBSTRUCTURE
     1 HNW         1 TEMP              0 ****  ****    0 ROOT
