@<TRIPOS>MOLECULE
HO2
   52    52     1     0     0
SMALL
bcc


@<TRIPOS>ATOM
      1 C18         0.9280    1.7930    1.0310 c3        1 HO2     -0.092100
      2 C17         2.1500    1.6790    1.9060 c3        1 HO2     -0.080400
      3 C16         2.6200    0.2450    2.0200 c3        1 HO2     -0.078400
      4 C15         3.8500    0.1380    2.8960 c3        1 HO2     -0.079400
      5 C14         4.3120   -1.2970    3.0180 c3        1 HO2     -0.070400
      6 C13         5.5820   -1.3990    3.8610 c3        1 HO2      0.170100
      7 O21         6.6210   -0.7830    3.1090 oh        1 HO2     -0.604800
      8 C12         5.8830   -2.8370    4.2080 cx        1 HO2     -0.116500
      9 C11         6.8250   -3.6640    3.3520 cx        1 HO2     -0.081200
     10 C10         7.2110   -3.2350    4.6970 cu        1 HO2     -0.218400
     11 C09         8.1050   -3.2450    5.6620 c2        1 HO2     -0.083200
     12 C08         7.9360   -2.5600    6.9660 c3        1 HO2     -0.053200
     13 C07         8.4150   -3.4240    8.1160 c3        1 HO2     -0.076400
     14 C06         8.2620   -2.7070    9.4400 c3        1 HO2     -0.079400
     15 C05         8.7460   -3.5640   10.5900 c3        1 HO2     -0.079400
     16 C04         8.5970   -2.8490   11.9160 c3        1 HO2     -0.078400
     17 C03         9.0750   -3.7100   13.0660 c3        1 HO2     -0.065400
     18 C02         8.9470   -3.0000   14.3920 c3        1 HO2     -0.194400
     19 C01         9.2550   -3.9480   15.5650 c         1 HO2      0.907600
     20 O20         8.7310   -5.1000   15.5640 o         1 HO2     -0.852800
     21 O19        10.0070   -3.5180   16.4870 o         1 HO2     -0.852800
     22 H18         0.5980    2.8570    0.9610 hc        1 HO2      0.030367
     23 H18A        1.1450    1.4230    0.0000 hc        1 HO2      0.030367
     24 H18B        0.0860    1.1890    1.4490 hc        1 HO2      0.030367
     25 H17         1.9190    2.0790    2.9290 hc        1 HO2      0.039200
     26 H17A        2.9760    2.3100    1.4840 hc        1 HO2      0.039200
     27 H16         1.7970   -0.3880    2.4460 hc        1 HO2      0.037200
     28 H16A        2.8510   -0.1570    0.9980 hc        1 HO2      0.037200
     29 H15         4.6820    0.7560    2.4650 hc        1 HO2      0.047700
     30 H15A        3.6230    0.5500    3.9150 hc        1 HO2      0.047700
     31 H14         4.5160   -1.7180    2.0000 hc        1 HO2      0.048200
     32 H14A        3.5120   -1.9180    3.4980 hc        1 HO2      0.048200
     33 H13         5.4470   -0.8240    4.8240 h1        1 HO2      0.039700
     34 HO21        7.4440   -0.9500    3.5850 ho        1 HO2      0.406000
     35 H12         4.9970   -3.3420    4.6480 hc        1 HO2      0.089700
     36 H11         7.2980   -3.1820    2.4760 hc        1 HO2      0.077200
     37 H10         6.5870   -4.7280    3.1660 hc        1 HO2      0.077200
     38 H09         9.0610   -3.7830    5.5280 ha        1 HO2      0.129000
     39 H08         8.5280   -1.6040    6.9480 hc        1 HO2      0.049200
     40 H08A        6.8610   -2.2790    7.1300 hc        1 HO2      0.049200
     41 H07         7.8300   -4.3810    8.1360 hc        1 HO2      0.041200
     42 H07A        9.4920   -3.6980    7.9590 hc        1 HO2      0.041200
     43 H06         7.1850   -2.4380    9.5990 hc        1 HO2      0.035200
     44 H06A        8.8420   -1.7470    9.4170 hc        1 HO2      0.035200
     45 H05         8.1640   -4.5230   10.6160 hc        1 HO2      0.037200
     46 H05A        9.8220   -3.8350   10.4300 hc        1 HO2      0.037200
     47 H04         9.1810   -1.8910   11.8930 hc        1 HO2      0.026700
     48 H04A        7.5210   -2.5740   12.0750 hc        1 HO2      0.026700
     49 H03         8.4810   -4.6620   13.1100 hc        1 HO2      0.044200
     50 H03A       10.1460   -3.9970   12.8980 hc        1 HO2      0.044200
     51 H02         7.9020   -2.6210   14.5240 hc        1 HO2      0.018700
     52 H02A        9.6390   -2.1220   14.4330 hc        1 HO2      0.018700
@<TRIPOS>BOND
     1    1    2 1   
     2    1   22 1   
     3    1   23 1   
     4    1   24 1   
     5    2    3 1   
     6    2   25 1   
     7    2   26 1   
     8    3    4 1   
     9    3   27 1   
    10    3   28 1   
    11    4    5 1   
    12    4   29 1   
    13    4   30 1   
    14    5    6 1   
    15    5   31 1   
    16    5   32 1   
    17    6    7 1   
    18    6    8 1   
    19    6   33 1   
    20    7   34 1   
    21    8    9 1   
    22    8   10 1   
    23    8   35 1   
    24    9   10 1   
    25    9   36 1   
    26    9   37 1   
    27   10   11 2   
    28   11   12 1   
    29   11   38 1   
    30   12   13 1   
    31   12   39 1   
    32   12   40 1   
    33   13   14 1   
    34   13   41 1   
    35   13   42 1   
    36   14   15 1   
    37   14   43 1   
    38   14   44 1   
    39   15   16 1   
    40   15   45 1   
    41   15   46 1   
    42   16   17 1   
    43   16   47 1   
    44   16   48 1   
    45   17   18 1   
    46   17   49 1   
    47   17   50 1   
    48   18   19 1   
    49   18   51 1   
    50   18   52 1   
    51   19   20 1   
    52   19   21 1   
@<TRIPOS>SUBSTRUCTURE
     1 HO2         1 TEMP              0 ****  ****    0 ROOT
