@<TRIPOS>MOLECULE
HO2
   52    51     1     0     0
SMALL
bcc


@<TRIPOS>ATOM
      1 C18         0.5200    0.2930    0.0320 c3        1 HO2     -0.092100
      2 C17         2.0220    0.1900    0.0910 c3        1 HO2     -0.079400
      3 C16         2.5280    0.2390    1.5170 c3        1 HO2     -0.078400
      4 C15         4.0360    0.1310    1.5700 c3        1 HO2     -0.078400
      5 C14         4.5400    0.1920    2.9950 c3        1 HO2     -0.073400
      6 C13         6.0590    0.0250    3.0550 c3        1 HO2      0.180300
      7 O21         6.3490   -1.3150    2.6630 oh        1 HO2     -0.607800
      8 C12         6.5800    0.3940    4.4040 c2        1 HO2     -0.228200
      9 C11         6.6640   -0.3860    5.4900 ce        1 HO2     -0.098000
     10 C10         6.2400   -1.7660    5.5800 ce        1 HO2     -0.187000
     11 C09         6.5040   -2.5720    6.6200 c2        1 HO2     -0.122200
     12 C08         7.2770   -2.1840    7.8220 c3        1 HO2     -0.061200
     13 C07         7.4340   -3.3310    8.8010 c3        1 HO2     -0.078400
     14 C06         8.2260   -2.9050   10.0190 c3        1 HO2     -0.079400
     15 C05         8.3880   -4.0460   11.0000 c3        1 HO2     -0.079400
     16 C04         9.1770   -3.6210   12.2200 c3        1 HO2     -0.078400
     17 C03         9.3480   -4.7660   13.1960 c3        1 HO2     -0.065400
     18 C02        10.1180   -4.3480   14.4240 c3        1 HO2     -0.194400
     19 C01        10.4540   -5.5580   15.3140 c         1 HO2      0.907600
     20 O20        10.9170   -6.6010   14.7660 o         1 HO2     -0.852800
     21 O19        10.2660   -5.4420   16.5590 o         1 HO2     -0.852800
     22 H18         0.1690    0.2550   -1.0270 hc        1 HO2      0.030700
     23 H18A        0.0450   -0.5490    0.5920 hc        1 HO2      0.030700
     24 H18B        0.1720    1.2530    0.4850 hc        1 HO2      0.030700
     25 H17         2.3540   -0.7690   -0.3890 hc        1 HO2      0.038200
     26 H17A        2.4810    1.0280   -0.4970 hc        1 HO2      0.038200
     27 H16         2.2010    1.1990    1.9980 hc        1 HO2      0.038700
     28 H16A        2.0700   -0.5990    2.1060 hc        1 HO2      0.038700
     29 H15         4.3670   -0.8360    1.1060 hc        1 HO2      0.046200
     30 H15A        4.4950    0.9610    0.9710 hc        1 HO2      0.046200
     31 H14         4.0620   -0.6200    3.6030 hc        1 HO2      0.050700
     32 H14A        4.2710    1.1770    3.4570 hc        1 HO2      0.050700
     33 H13         6.5390    0.7040    2.2870 h1        1 HO2      0.033700
     34 HO21        7.1920   -1.5540    3.0650 ho        1 HO2      0.409000
     35 H12         6.9090    1.4450    4.4700 ha        1 HO2      0.122000
     36 H11         7.0880    0.0410    6.4200 ha        1 HO2      0.124000
     37 H10         5.6510   -2.1470    4.7250 ha        1 HO2      0.139000
     38 H09         6.1310   -3.6110    6.6090 ha        1 HO2      0.126000
     39 H08         6.7640   -1.3250    8.3370 hc        1 HO2      0.051700
     40 H08A        8.2940   -1.8170    7.5150 hc        1 HO2      0.051700
     41 H07         6.4230   -3.6960    9.1190 hc        1 HO2      0.041200
     42 H07A        7.9530   -4.1880    8.2970 hc        1 HO2      0.041200
     43 H06         7.7070   -2.0470   10.5240 hc        1 HO2      0.035200
     44 H06A        9.2370   -2.5370    9.7010 hc        1 HO2      0.035200
     45 H05         7.3770   -4.4160   11.3170 hc        1 HO2      0.037700
     46 H05A        8.9090   -4.9030   10.4980 hc        1 HO2      0.037700
     47 H04         8.6520   -2.7690   12.7270 hc        1 HO2      0.026700
     48 H04A       10.1840   -3.2450   11.9020 hc        1 HO2      0.026700
     49 H03         8.3410   -5.1530   13.5010 hc        1 HO2      0.044200
     50 H03A        9.8930   -5.6160   12.7030 hc        1 HO2      0.044200
     51 H02         9.5310   -3.6030   15.0180 hc        1 HO2      0.018700
     52 H02A       11.0830   -3.8660   14.1250 hc        1 HO2      0.018700
@<TRIPOS>BOND
     1    1    2 1   
     2    1   22 1   
     3    1   23 1   
     4    1   24 1   
     5    2    3 1   
     6    2   25 1   
     7    2   26 1   
     8    3    4 1   
     9    3   27 1   
    10    3   28 1   
    11    4    5 1   
    12    4   29 1   
    13    4   30 1   
    14    5    6 1   
    15    5   31 1   
    16    5   32 1   
    17    6    7 1   
    18    6    8 1   
    19    6   33 1   
    20    7   34 1   
    21    8    9 2   
    22    8   35 1   
    23    9   10 1   
    24    9   36 1   
    25   10   11 2   
    26   10   37 1   
    27   11   12 1   
    28   11   38 1   
    29   12   13 1   
    30   12   39 1   
    31   12   40 1   
    32   13   14 1   
    33   13   41 1   
    34   13   42 1   
    35   14   15 1   
    36   14   43 1   
    37   14   44 1   
    38   15   16 1   
    39   15   45 1   
    40   15   46 1   
    41   16   17 1   
    42   16   47 1   
    43   16   48 1   
    44   17   18 1   
    45   17   49 1   
    46   17   50 1   
    47   18   19 1   
    48   18   51 1   
    49   18   52 1   
    50   19   20 1   
    51   19   21 1   
@<TRIPOS>SUBSTRUCTURE
     1 HO2         1 TEMP              0 ****  ****    0 ROOT
