@<TRIPOS>MOLECULE
HO2
   52    49     1     0     0
SMALL
bcc


@<TRIPOS>ATOM
      1 C18        -7.4670   -5.5210    0.4410 c3        1 HO2     -0.210000
      2 C17        -6.3570   -4.9230   -0.3960 c3        1 HO2     -0.159000
      3 C16        -6.0650   -3.5190    0.0830 c3        1 HO2     -0.157000
      4 C15        -4.8120   -3.0060   -0.5940 c3        1 HO2     -0.158000
      5 C14        -4.5100   -1.6070   -0.1010 c3        1 HO2     -0.151000
      6 C13        -3.1800   -1.1530   -0.6590 c3        1 HO2      0.061000
      7 O21        -2.1630   -2.0170   -0.2090 oh        1 HO2     -0.333000
      8 C12        -2.8910    0.2540   -0.1900 c2        1 HO2     -0.212000
      9 C11        -1.8230    0.9200   -0.6730 c1        1 HO2     -0.108000
     10 C10        -0.9150    0.2580   -1.6860 c1        1 HO2     -0.149500
     11 C09         0.3760    0.6340   -1.7800 c1        1 HO2     -0.149500
     12 C08         0.9160    1.7170   -0.8720 c2        1 HO2     -0.145000
     13 C07         2.3700    1.9740   -1.2040 c3        1 HO2     -0.158000
     14 C06         3.0240    2.7180   -0.0600 c3        1 HO2     -0.158000
     15 C05         4.5280    2.6500   -0.2090 c3        1 HO2     -0.158000
     16 C04         5.1840    3.1270    1.0680 c3        1 HO2     -0.157000
     17 C03         6.6840    2.9710    0.9530 c3        1 HO2     -0.144000
     18 C02         7.3060    3.0580    2.3300 c3        1 HO2     -0.223000
     19 C01         8.8090    2.9220    2.2130 c2        1 HO2      0.327000
     20 O20         9.3330    1.7800    2.1330 o         1 HO2     -0.587500
     21 O19         9.5340    3.9510    2.1980 o         1 HO2     -0.587500
     22 H18        -7.7420   -6.3790    0.0550 hc        1 HO2      0.070000
     23 H18A       -8.2320   -4.9080    0.4550 hc        1 HO2      0.070000
     24 H18B       -7.1450   -5.6630    1.3560 hc        1 HO2      0.070000
     25 H17        -6.6350   -4.8970   -1.3340 hc        1 HO2      0.078500
     26 H17A       -5.5520   -5.4720   -0.3100 hc        1 HO2      0.078500
     27 H16        -6.8180   -2.9350   -0.1390 hc        1 HO2      0.077000
     28 H16A       -5.9320   -3.5260    1.0520 hc        1 HO2      0.077000
     29 H15        -4.9490   -2.9880   -1.5620 hc        1 HO2      0.086500
     30 H15A       -4.0620   -3.5960   -0.3810 hc        1 HO2      0.086500
     31 H14        -4.4710   -1.6070    0.8760 hc        1 HO2      0.087000
     32 H14A       -5.2140   -0.9970   -0.4000 hc        1 HO2      0.087000
     33 H13        -3.2140   -1.1710   -1.6360 h1        1 HO2      0.077000
     34 HO21       -1.9050   -2.5440   -0.8770 ho        1 HO2      0.206000
     35 H12        -3.4770    0.6810    0.4640 ha        1 HO2      0.128000
     36 H11        -1.6370    1.8290   -0.3700 ha        1 HO2      0.128000
     37 H10        -1.2630   -0.4410   -2.2710 ha        1 HO2      0.121500
     38 H09         0.9620    0.2070   -2.4330 ha        1 HO2      0.121500
     39 H08         0.4020    2.5390   -1.0030 ha        1 HO2      0.092500
     40 H08A        0.8410    1.4300    0.0600 ha        1 HO2      0.092500
     41 H07         2.4280    2.5130   -2.0190 hc        1 HO2      0.080500
     42 H07A        2.8280    1.1220   -1.3430 hc        1 HO2      0.080500
     43 H06         2.7620    2.3080    0.7880 hc        1 HO2      0.074500
     44 H06A        2.7370    3.6530   -0.0730 hc        1 HO2      0.074500
     45 H05         4.7960    1.7260   -0.3880 hc        1 HO2      0.077000
     46 H05A        4.8080    3.2200   -0.9530 hc        1 HO2      0.077000
     47 H04         4.8570    2.5950    1.8210 hc        1 HO2      0.066000
     48 H04A        4.9640    4.0690    1.2140 hc        1 HO2      0.066000
     49 H03         7.0440    3.6830    0.3880 hc        1 HO2      0.083500
     50 H03A        6.8920    2.1020    0.5560 hc        1 HO2      0.083500
     51 H02         7.0870    3.9220    2.7330 hc        1 HO2      0.058000
     52 H02A        6.9570    2.3380    2.8920 hc        1 HO2      0.058000
@<TRIPOS>BOND
     1    1    2 1   
     2    1   22 1   
     3    1   23 1   
     4    1   24 1   
     5    2    3 1   
     6    2   25 1   
     7    2   26 1   
     8    3    4 1   
     9    3   27 1   
    10    3   28 1   
    11    4    5 1   
    12    4   29 1   
    13    4   30 1   
    14    5    6 1   
    15    5   31 1   
    16    5   32 1   
    17    6    7 1   
    18    6    8 1   
    19    6   33 1   
    20    7   34 1   
    21    8    9 1   
    22    8   35 1   
    23    9   36 1   
    24   10   11 1   
    25   10   37 1   
    26   11   38 1   
    27   12   13 1   
    28   12   39 1   
    29   12   40 1   
    30   13   14 1   
    31   13   41 1   
    32   13   42 1   
    33   14   15 1   
    34   14   43 1   
    35   14   44 1   
    36   15   16 1   
    37   15   45 1   
    38   15   46 1   
    39   16   17 1   
    40   16   47 1   
    41   16   48 1   
    42   17   18 1   
    43   17   49 1   
    44   17   50 1   
    45   18   19 1   
    46   18   51 1   
    47   18   52 1   
    48   19   20 1   
    49   19   21 1   
@<TRIPOS>SUBSTRUCTURE
     1 HO2         1 TEMP              0 ****  ****    0 ROOT
