@<TRIPOS>MOLECULE
HO2
   52    51     1     0     0
SMALL
bcc


@<TRIPOS>ATOM
      1 C18       -10.4100    2.7490   -0.3980 c3        1 HO2     -0.092100
      2 C17        -9.6510    1.5600    0.1300 c3        1 HO2     -0.080400
      3 C16        -8.2350    1.5210   -0.4050 c3        1 HO2     -0.078400
      4 C15        -7.4760    0.3280    0.1330 c3        1 HO2     -0.079400
      5 C14        -6.0660    0.2800   -0.4130 c3        1 HO2     -0.106400
      6 C13        -5.2690   -0.8640    0.2150 c3        1 HO2      0.173300
      7 O21        -5.1650   -0.6970    1.6220 oh        1 HO2     -0.597800
      8 C12        -3.9410   -1.0010   -0.4550 c2        1 HO2     -0.224200
      9 C11        -2.7930   -1.2260    0.1970 ce        1 HO2     -0.105000
     10 C10        -1.5170   -1.3660   -0.4720 ce        1 HO2     -0.167000
     11 C09        -0.3660   -1.5690    0.1860 c2        1 HO2     -0.128200
     12 C08         0.9440   -1.7300   -0.4870 c3        1 HO2     -0.057200
     13 C07         2.0360   -0.9490    0.2180 c3        1 HO2     -0.076400
     14 C06         3.3710   -1.1370   -0.4690 c3        1 HO2     -0.079400
     15 C05         4.4650   -0.3560    0.2280 c3        1 HO2     -0.079400
     16 C04         5.8020   -0.5410   -0.4580 c3        1 HO2     -0.078400
     17 C03         6.8930    0.2520    0.2310 c3        1 HO2     -0.065400
     18 C02         8.2330    0.0610   -0.4350 c3        1 HO2     -0.194400
     19 C01         9.2890    1.0180    0.1480 c         1 HO2      0.907600
     20 O20         8.9800    2.2340    0.3070 o         1 HO2     -0.852800
     21 O19        10.4270    0.5390    0.4240 o         1 HO2     -0.852800
     22 H18       -11.4500    2.7580    0.0070 hc        1 HO2      0.031367
     23 H18A       -9.9070    3.7010   -0.1010 hc        1 HO2      0.031367
     24 H18B      -10.4660    2.7180   -1.5130 hc        1 HO2      0.031367
     25 H17        -9.6250    1.5960    1.2510 hc        1 HO2      0.038700
     26 H17A      -10.1840    0.6150   -0.1570 hc        1 HO2      0.038700
     27 H16        -8.2580    1.4790   -1.5260 hc        1 HO2      0.038700
     28 H16A       -7.7010    2.4660   -0.1210 hc        1 HO2      0.038700
     29 H15        -7.4350    0.3720    1.2540 hc        1 HO2      0.047200
     30 H15A       -8.0170   -0.6170   -0.1390 hc        1 HO2      0.047200
     31 H14        -6.0920    0.1410   -1.5240 hc        1 HO2      0.045700
     32 H14A       -5.5450    1.2510   -0.2050 hc        1 HO2      0.045700
     33 H13        -5.8420   -1.8330    0.1090 h1        1 HO2      0.078700
     34 HO21       -4.6530    0.1060    1.7770 ho        1 HO2      0.399000
     35 H12        -3.9730   -0.9190   -1.5530 ha        1 HO2      0.126000
     36 H11        -2.7850   -1.3180    1.2990 ha        1 HO2      0.129000
     37 H10        -1.5310   -1.2930   -1.5730 ha        1 HO2      0.122000
     38 H09        -0.3430   -1.6360    1.2870 ha        1 HO2      0.122000
     39 H08         1.2120   -2.8230   -0.4890 hc        1 HO2      0.049200
     40 H08A        0.8840   -1.4040   -1.5600 hc        1 HO2      0.049200
     41 H07         1.7700    0.1410    0.2320 hc        1 HO2      0.041200
     42 H07A        2.1120   -1.2850    1.2860 hc        1 HO2      0.041200
     43 H06         3.6380   -2.2260   -0.4830 hc        1 HO2      0.034700
     44 H06A        3.2950   -0.8020   -1.5380 hc        1 HO2      0.034700
     45 H05         4.2000    0.7340    0.2410 hc        1 HO2      0.037200
     46 H05A        4.5430   -0.6890    1.2960 hc        1 HO2      0.037200
     47 H04         6.0730   -1.6290   -0.4640 hc        1 HO2      0.026700
     48 H04A        5.7210   -0.2150   -1.5290 hc        1 HO2      0.026700
     49 H03         6.6400    1.3460    0.2220 hc        1 HO2      0.044200
     50 H03A        6.9620   -0.0620    1.3050 hc        1 HO2      0.044200
     51 H02         8.5820   -0.9950   -0.3150 hc        1 HO2      0.018700
     52 H02A        8.1500    0.2740   -1.5310 hc        1 HO2      0.018700
@<TRIPOS>BOND
     1    1    2 1   
     2    1   22 1   
     3    1   23 1   
     4    1   24 1   
     5    2    3 1   
     6    2   25 1   
     7    2   26 1   
     8    3    4 1   
     9    3   27 1   
    10    3   28 1   
    11    4    5 1   
    12    4   29 1   
    13    4   30 1   
    14    5    6 1   
    15    5   31 1   
    16    5   32 1   
    17    6    7 1   
    18    6    8 1   
    19    6   33 1   
    20    7   34 1   
    21    8    9 2   
    22    8   35 1   
    23    9   10 1   
    24    9   36 1   
    25   10   11 2   
    26   10   37 1   
    27   11   12 1   
    28   11   38 1   
    29   12   13 1   
    30   12   39 1   
    31   12   40 1   
    32   13   14 1   
    33   13   41 1   
    34   13   42 1   
    35   14   15 1   
    36   14   43 1   
    37   14   44 1   
    38   15   16 1   
    39   15   45 1   
    40   15   46 1   
    41   16   17 1   
    42   16   47 1   
    43   16   48 1   
    44   17   18 1   
    45   17   49 1   
    46   17   50 1   
    47   18   19 1   
    48   18   51 1   
    49   18   52 1   
    50   19   20 1   
    51   19   21 1   
@<TRIPOS>SUBSTRUCTURE
     1 HO2         1 TEMP              0 ****  ****    0 ROOT
