@<TRIPOS>MOLECULE
HO4
   35    37     1     0     0
SMALL
bcc


@<TRIPOS>ATOM
      1 C11        -0.9300   -0.8000   -2.1510 c1        1 HO4     -0.150500
      2 C10        -0.3310   -0.6670   -1.1210 cg        1 HO4     -0.137300
      3 C7          0.3600   -0.5090    0.0760 cc        1 HO4      0.038100
      4 C8          1.6860   -0.8750    0.3240 cd        1 HO4     -0.098100
      5 C5         -0.1540    0.0630    1.3000 ca        1 HO4     -0.370400
      6 C6         -1.4000    0.6200    1.7290 ca        1 HO4      0.746200
      7 N6         -2.4760    0.6390    0.8750 nh        1 HO4     -0.959500
      8 N1         -1.5170    1.0990    3.0140 nb        1 HO4     -0.791000
      9 C2         -0.4250    0.9900    3.8170 ca        1 HO4      0.687900
     10 N3          0.8000    0.4820    3.5530 nb        1 HO4     -0.739000
     11 C4          0.9230    0.0180    2.2710 ca        1 HO4      0.496800
     12 N9          2.0330   -0.5920    1.6540 na        1 HO4     -0.186100
     13 C1'         3.3450   -0.6920    2.2480 c3        1 HO4      0.248800
     14 O4'         4.1710    0.4290    1.8920 os        1 HO4     -0.415600
     15 C4'         5.1980    0.0580    0.9650 c3        1 HO4      0.054100
     16 C5'         4.8760    0.6380   -0.4120 c3        1 HO4      0.121400
     17 O5'         4.8500    2.0470   -0.3750 oh        1 HO4     -0.589800
     18 C3'         5.3010   -1.4760    0.9520 c3        1 HO4      0.087100
     19 O3'         6.5290   -1.9420    1.4630 oh        1 HO4     -0.585800
     20 C2'         4.1200   -1.9770    1.8180 c3        1 HO4      0.076100
     21 O2'         4.5880   -2.5640    3.0160 oh        1 HO4     -0.585800
     22 H1         -1.4540   -0.9220   -3.0640 ha        1 HO4      0.170500
     23 H2          2.4060   -1.3410   -0.3520 h4        1 HO4      0.171000
     24 H3         -2.3160    0.4200   -0.0780 hn        1 HO4      0.442300
     25 H4         -3.3030    1.1210    1.1280 hn        1 HO4      0.442300
     26 H5         -0.5650    1.3850    4.8470 h5        1 HO4      0.053100
     27 H6          3.2370   -0.6340    3.3740 h2        1 HO4      0.146700
     28 H7          6.1380    0.5310    1.3660 h1        1 HO4      0.098700
     29 H8          3.8910    0.2420   -0.7780 h1        1 HO4      0.051200
     30 H9          5.6900    0.3780   -1.1400 h1        1 HO4      0.051200
     31 H10         4.2180    2.3030    0.3100 ho        1 HO4      0.418000
     32 H11         5.2530   -1.8890   -0.0920 h1        1 HO4      0.095700
     33 H12         6.6290   -1.5850    2.3570 ho        1 HO4      0.421000
     34 H13         3.4810   -2.7070    1.2570 h1        1 HO4      0.071700
     35 H14         5.1180   -3.3330    2.7600 ho        1 HO4      0.424000
@<TRIPOS>BOND
     1    1    2 3   
     2    1   22 1   
     3    2    3 1   
     4    3    4 2   
     5    3    5 1   
     6    4   12 1   
     7    4   23 1   
     8    5    6 ar  
     9    5   11 ar  
    10    6    7 1   
    11    6    8 ar  
    12    7   24 1   
    13    7   25 1   
    14    8    9 ar  
    15    9   10 ar  
    16    9   26 1   
    17   10   11 ar  
    18   11   12 1   
    19   12   13 1   
    20   13   14 1   
    21   13   20 1   
    22   13   27 1   
    23   14   15 1   
    24   15   16 1   
    25   15   18 1   
    26   15   28 1   
    27   16   17 1   
    28   16   29 1   
    29   16   30 1   
    30   17   31 1   
    31   18   19 1   
    32   18   20 1   
    33   18   32 1   
    34   19   33 1   
    35   20   21 1   
    36   20   34 1   
    37   21   35 1   
@<TRIPOS>SUBSTRUCTURE
     1 HO4         1 TEMP              0 ****  ****    0 ROOT
