@<TRIPOS>MOLECULE
HO4
   35    37     1     0     0
SMALL
bcc


@<TRIPOS>ATOM
      1 C11        -0.9650    1.3150   -2.0880 c1        1 HO4     -0.158500
      2 C10        -0.3400    0.9730   -1.1250 cg        1 HO4     -0.130300
      3 C7          0.3800    0.5750   -0.0040 cc        1 HO4      0.011100
      4 C8          1.7580    0.7330    0.2000 cd        1 HO4     -0.065100
      5 C5         -0.1470   -0.0760    1.1730 ca        1 HO4     -0.358400
      6 C6         -1.4340   -0.5140    1.6210 ca        1 HO4      0.746200
      7 N6         -2.5260   -0.3920    0.7960 nv        1 HO4     -0.958500
      8 N1         -1.5570   -1.0900    2.8640 nb        1 HO4     -0.793000
      9 C2         -0.4200   -1.2280    3.5990 ca        1 HO4      0.686900
     10 N3          0.8510   -0.8770    3.3060 nb        1 HO4     -0.768000
     11 C4          0.9700   -0.2910    2.0700 ca        1 HO4      0.466800
     12 N9          2.1240    0.2010    1.4400 na        1 HO4     -0.190100
     13 C1'         3.4300    0.2510    2.0680 c3        1 HO4      0.215800
     14 O4'         4.3970    0.8080    1.1770 os        1 HO4     -0.394600
     15 C4'         5.3170   -0.1940    0.7190 c3        1 HO4      0.092100
     16 C5'         4.9940   -0.5890   -0.7220 c3        1 HO4      0.112400
     17 O5'         5.4900    0.4450   -1.5540 oh        1 HO4     -0.590800
     18 C3'         5.2230   -1.4030    1.6750 c3        1 HO4      0.129100
     19 O3'         6.3970   -1.5560    2.4310 oh        1 HO4     -0.573800
     20 C2'         3.9590   -1.1480    2.5270 c3        1 HO4      0.084100
     21 O2'         4.3400   -1.0730    3.8830 oh        1 HO4     -0.592800
     22 H1         -1.5100    1.6200   -2.9450 ha        1 HO4      0.168500
     23 H2          2.5140    1.1960   -0.4420 h4        1 HO4      0.196000
     24 H3         -2.4260    0.1520   -0.0270 hn        1 HO4      0.442300
     25 H4         -3.4340   -0.5860    1.1400 hn        1 HO4      0.442300
     26 H5         -0.5680   -1.7020    4.5940 h5        1 HO4      0.050100
     27 H6          3.3770    0.9660    2.9460 h2        1 HO4      0.104700
     28 H7          6.3270    0.2990    0.7670 h1        1 HO4      0.111700
     29 H8          3.8840   -0.6980   -0.8580 h1        1 HO4      0.035200
     30 H9          5.5030   -1.5580   -0.9730 h1        1 HO4      0.035200
     31 H10         5.2700    0.1990   -2.4600 ho        1 HO4      0.404000
     32 H11         5.1270   -2.3690    1.1070 h1        1 HO4      0.091700
     33 H12         6.4050   -0.8780    3.1210 ho        1 HO4      0.425000
     34 H13         3.2080   -1.9650    2.3690 h1        1 HO4      0.083700
     35 H14         3.5280   -1.1420    4.4040 ho        1 HO4      0.436000
@<TRIPOS>BOND
     1    1    2 3   
     2    1   22 1   
     3    2    3 1   
     4    3    4 2   
     5    3    5 1   
     6    4   12 1   
     7    4   23 1   
     8    5    6 ar  
     9    5   11 ar  
    10    6    7 1   
    11    6    8 ar  
    12    7   24 1   
    13    7   25 1   
    14    8    9 ar  
    15    9   10 ar  
    16    9   26 1   
    17   10   11 ar  
    18   11   12 1   
    19   12   13 1   
    20   13   14 1   
    21   13   20 1   
    22   13   27 1   
    23   14   15 1   
    24   15   16 1   
    25   15   18 1   
    26   15   28 1   
    27   16   17 1   
    28   16   29 1   
    29   16   30 1   
    30   17   31 1   
    31   18   19 1   
    32   18   20 1   
    33   18   32 1   
    34   19   33 1   
    35   20   21 1   
    36   20   34 1   
    37   21   35 1   
@<TRIPOS>SUBSTRUCTURE
     1 HO4         1 TEMP              0 ****  ****    0 ROOT
