@<TRIPOS>MOLECULE
HOA
    6     5     1     0     0
SMALL
bcc


@<TRIPOS>ATOM
      1 N           0.0320    0.0210    0.0120 n4        1 HOA     -0.612100
      2 O           1.3850   -0.0290   -0.0170 oh        1 HOA     -0.341300
      3 HN1        -0.3260    0.0030    0.9840 hn        1 HOA      0.489467
      4 HN2        -0.2810   -0.8410   -0.4860 hn        1 HOA      0.489467
      5 HO          1.7540    0.7630    0.4400 ho        1 HOA      0.486000
      6 HN3        -0.3260    0.8540   -0.4900 hn        1 HOA      0.489467
@<TRIPOS>BOND
     1    1    2 1   
     2    1    3 1   
     3    1    4 1   
     4    1    6 1   
     5    2    5 1   
@<TRIPOS>SUBSTRUCTURE
     1 HOA         1 TEMP              0 ****  ****    0 ROOT
