@<TRIPOS>MOLECULE
HOA
    6     5     1     0     0
SMALL
bcc


@<TRIPOS>ATOM
      1 N           0.0330    0.0170    0.0160 n4        1 HOA     -0.612100
      2 O           1.3850   -0.0080   -0.0420 oh        1 HOA     -0.341300
      3 HN1        -0.3050   -0.0380    0.9930 hn        1 HOA      0.489467
      4 HN2        -0.3500    0.8570   -0.4540 hn        1 HOA      0.489467
      5 HO          1.7500    0.7770    0.4330 ho        1 HOA      0.486000
      6 HN3        -0.2740   -0.8360   -0.5020 hn        1 HOA      0.489467
@<TRIPOS>BOND
     1    1    2 1   
     2    1    3 1   
     3    1    4 1   
     4    1    6 1   
     5    2    5 1   
@<TRIPOS>SUBSTRUCTURE
     1 HOA         1 TEMP              0 ****  ****    0 ROOT
