@<TRIPOS>MOLECULE
HOA
    6     5     1     0     0
SMALL
bcc


@<TRIPOS>ATOM
      1 N           0.0330    0.0200    0.0140 nz        1 HOA     -0.612100
      2 O           1.3850   -0.0220   -0.0260 oh        1 HOA     -0.341300
      3 HN1        -0.3180   -0.0110    0.9880 hn        1 HOA      0.489467
      4 HN2        -0.2790   -0.8400   -0.4900 hn        1 HOA      0.489467
      5 HO          1.7530    0.7680    0.4360 ho        1 HOA      0.486000
      6 HN3        -0.3350    0.8540   -0.4770 hn        1 HOA      0.489467
@<TRIPOS>BOND
     1    1    2 1   
     2    1    3 1   
     3    1    4 1   
     4    1    6 1   
     5    2    5 1   
@<TRIPOS>SUBSTRUCTURE
     1 HOA         1 TEMP              0 ****  ****    0 ROOT
