@<TRIPOS>MOLECULE
HOA
    5     4     1     0     0
SMALL
bcc


@<TRIPOS>ATOM
      1 N           0.6710    0.1430   -0.0140 n3        1 HOA     -0.663300
      2 O          -0.6390    0.1080    0.2730 oh        1 HOA     -0.440300
      3 HN1         1.1360    0.5970    0.7690 hn        1 HOA      0.339800
      4 HN2         1.0010   -0.8200   -0.0170 hn        1 HOA      0.339800
      5 HO         -1.0700    0.5640   -0.4740 ho        1 HOA      0.423000
@<TRIPOS>BOND
     1    1    2 1   
     2    1    3 1   
     3    1    4 1   
     4    2    5 1   
@<TRIPOS>SUBSTRUCTURE
     1 HOA         1 TEMP              0 ****  ****    0 ROOT
