@<TRIPOS>MOLECULE
HOC
   26    24     1     0     0
SMALL
bcc


@<TRIPOS>ATOM
      1 C8          0.7010   -0.7280    2.0430 c3        1 HOC     -0.063900
      2 C7          1.6840   -0.4590    0.9740 c2        1 HOC     -0.219200
      3 OH          5.2730   -1.2230    6.6060 oh        1 HOC     -0.585800
      4 C1          4.2380   -0.1150    4.7300 c         1 HOC      0.923600
      5 C2          4.7050    0.0090    6.1970 c3        1 HOC      0.012400
      6 C3          6.1230    1.2030   -0.3500 c3        1 HOC     -0.082100
      7 C4          4.9770    1.0730    0.6190 c3        1 HOC     -0.101400
      8 C5          3.9940    0.0050    0.1780 c3        1 HOC     -0.035200
      9 C6          2.9790   -0.2470    1.2300 c2        1 HOC     -0.154200
     10 H81         1.2840   -0.4430   -0.0520 ha        1 HOC      0.078000
     11 H82         3.3700   -0.2580    2.2770 ha        1 HOC      0.217000
     12 H83        -0.1070    0.0450    2.0310 hc        1 HOC      0.038367
     13 H71         1.1960   -0.7170    3.0520 hc        1 HOC      0.038367
     14 H72         0.2240   -1.7280    1.8890 hc        1 HOC      0.038367
     15 HOH         5.5460   -1.0960    7.5210 ho        1 HOC      0.354000
     16 H2          6.8220    2.0070   -0.0160 hc        1 HOC      0.015033
     17 H31         5.4720    0.8240    6.2820 h1        1 HOC     -0.002800
     18 H32         3.8290    0.2570    6.8530 h1        1 HOC     -0.002800
     19 H41         5.7560    1.4580   -1.3740 hc        1 HOC      0.015033
     20 H42         6.6950    0.2460   -0.4140 hc        1 HOC      0.015033
     21 H51         5.3590    0.8150    1.6490 hc        1 HOC      0.074700
     22 H52         4.4430    2.0540    0.7050 hc        1 HOC      0.074700
     23 H61         4.5520   -0.9540   -0.0110 hc        1 HOC      0.019700
     24 H62         3.5140    0.3030   -0.7920 hc        1 HOC      0.019700
     25 O1A         3.0440   -0.4650    4.5150 o         1 HOC     -0.843300
     26 O1B         5.0540    0.2030    3.8180 o         1 HOC     -0.843300
@<TRIPOS>BOND
     1    1    2 1   
     2    1   12 1   
     3    1   13 1   
     4    1   14 1   
     5    2    9 2   
     6    2   10 1   
     7    3    5 1   
     8    3   15 1   
     9    4    5 1   
    10    4   25 1   
    11    4   26 1   
    12    5   17 1   
    13    5   18 1   
    14    6    7 1   
    15    6   16 1   
    16    6   19 1   
    17    6   20 1   
    18    7    8 1   
    19    7   21 1   
    20    7   22 1   
    21    8    9 1   
    22    8   23 1   
    23    8   24 1   
    24    9   11 1   
@<TRIPOS>SUBSTRUCTURE
     1 HOC         1 TEMP              0 ****  ****    0 ROOT
