@<TRIPOS>MOLECULE
HOC
   26    24     1     0     0
SMALL
bcc


@<TRIPOS>ATOM
      1 C8         -3.7140   -0.0030   -2.2010 c3        1 HOC     -0.208000
      2 C7         -2.2010   -0.0030   -2.2010 c3        1 HOC     -0.160000
      3 OH          2.3040    1.2610    2.6590 oh        1 HOC     -0.377000
      4 C1          3.7600   -0.5350    2.0750 c1        1 HOC      0.312000
      5 C2          2.3380   -0.0200    2.0750 c2        1 HOC     -0.046000
      6 C3          1.8320    0.0610    0.6530 c3        1 HOC     -0.162000
      7 C4          0.3210   -0.0220    0.6500 c3        1 HOC     -0.155000
      8 C5         -0.1840    0.0310   -0.7750 c3        1 HOC     -0.157000
      9 C6         -1.6970   -0.0030   -0.7750 c3        1 HOC     -0.157000
     10 O1A         3.9950   -1.7310    2.3910 o         1 HOC     -0.572500
     11 O1B         4.7080    0.2320    1.7610 o         1 HOC     -0.572500
     12 H81        -4.0390   -0.7970   -1.7360 hc        1 HOC      0.065000
     13 H82        -4.0390    0.7970   -1.7470 hc        1 HOC      0.065000
     14 H83        -4.0390   -0.0090   -3.1220 hc        1 HOC      0.065000
     15 H71        -1.8760    0.7940   -2.6610 hc        1 HOC      0.075000
     16 H72        -1.8760   -0.8000   -2.6610 hc        1 HOC      0.075000
     17 HOH         2.0950    1.1890    3.5180 ho        1 HOC      0.222000
     18 H2          1.7720   -0.6270    2.5880 h4        1 HOC      0.075000
     19 H31         2.1990   -0.6800    0.1340 hc        1 HOC      0.083500
     20 H32         2.1120    0.9070    0.2550 hc        1 HOC      0.083500
     21 H41        -0.0470    0.7290    1.1540 hc        1 HOC      0.076000
     22 H42         0.0400   -0.8600    1.0640 hc        1 HOC      0.076000
     23 H51         0.1590   -0.7370   -1.2700 hc        1 HOC      0.073000
     24 H52         0.1230    0.8550   -1.1990 hc        1 HOC      0.073000
     25 H61        -2.0400    0.7830   -0.3080 hc        1 HOC      0.074500
     26 H62        -2.0040   -0.8110   -0.3210 hc        1 HOC      0.074500
@<TRIPOS>BOND
     1    1    2 1   
     2    1   12 1   
     3    1   13 1   
     4    1   14 1   
     5    2    9 1   
     6    2   15 1   
     7    2   16 1   
     8    3    5 1   
     9    3   17 1   
    10    4   10 1   
    11    4   11 1   
    12    5    6 1   
    13    5   18 1   
    14    6    7 1   
    15    6   19 1   
    16    6   20 1   
    17    7    8 1   
    18    7   21 1   
    19    7   22 1   
    20    8    9 1   
    21    8   23 1   
    22    8   24 1   
    23    9   25 1   
    24    9   26 1   
@<TRIPOS>SUBSTRUCTURE
     1 HOC         1 TEMP              0 ****  ****    0 ROOT
