@<TRIPOS>MOLECULE
HOC
   26    25     1     0     0
SMALL
bcc


@<TRIPOS>ATOM
      1 C8          5.6540    0.0530   -0.1440 c3        1 HOC     -0.090100
      2 C7          4.3600   -0.4860    0.4090 c3        1 HOC     -0.081400
      3 OH         -1.8920    1.7660    0.0610 oh        1 HOC     -0.649800
      4 C1         -3.1430   -0.3520   -0.0160 c         1 HOC      0.892600
      5 C2         -1.8490    0.4200   -0.3880 c3        1 HOC      0.015100
      6 C3         -0.6370   -0.2850    0.2080 c3        1 HOC     -0.083400
      7 C4          0.6600    0.2690   -0.3380 c3        1 HOC     -0.076400
      8 C5          1.8610   -0.3840    0.3130 c3        1 HOC     -0.078400
      9 C6          3.1590    0.1620   -0.2450 c3        1 HOC     -0.078400
     10 H81         5.7250    1.1550    0.0250 hc        1 HOC      0.025700
     11 H82         6.5260   -0.4370    0.3520 hc        1 HOC      0.025700
     12 H83         5.7210   -0.1360   -1.2430 hc        1 HOC      0.025700
     13 H71         4.3170   -1.5960    0.2520 hc        1 HOC      0.035700
     14 H72         4.3220   -0.3100    1.5170 hc        1 HOC      0.035700
     15 HOH        -2.6360    1.8300    0.6830 ho        1 HOC      0.423000
     16 H2         -1.7530    0.4690   -1.5060 h1        1 HOC      0.035700
     17 H31        -0.7230   -1.3790   -0.0270 hc        1 HOC      0.044200
     18 H32        -0.6570   -0.1680    1.3220 hc        1 HOC      0.044200
     19 H41         0.6860    1.3770   -0.1630 hc        1 HOC      0.036700
     20 H42         0.7010    0.1070   -1.4470 hc        1 HOC      0.036700
     21 H51         1.8190   -1.4930    0.1510 hc        1 HOC      0.033700
     22 H52         1.8270   -0.2110    1.4210 hc        1 HOC      0.033700
     23 H61         3.1980    1.2720   -0.0860 hc        1 HOC      0.035200
     24 H62         3.1940   -0.0140   -1.3520 hc        1 HOC      0.035200
     25 O1A        -3.3130   -1.5030   -0.4980 o         1 HOC     -0.837800
     26 O1B        -3.9530    0.2400    0.7560 o         1 HOC     -0.837800
@<TRIPOS>BOND
     1    1    2 1   
     2    1   10 1   
     3    1   11 1   
     4    1   12 1   
     5    2    9 1   
     6    2   13 1   
     7    2   14 1   
     8    3    5 1   
     9    3   15 1   
    10    4    5 1   
    11    4   25 1   
    12    4   26 1   
    13    5    6 1   
    14    5   16 1   
    15    6    7 1   
    16    6   17 1   
    17    6   18 1   
    18    7    8 1   
    19    7   19 1   
    20    7   20 1   
    21    8    9 1   
    22    8   21 1   
    23    8   22 1   
    24    9   23 1   
    25    9   24 1   
@<TRIPOS>SUBSTRUCTURE
     1 HOC         1 TEMP              0 ****  ****    0 ROOT
