@<TRIPOS>MOLECULE
HOC
   26    24     1     0     0
SMALL
bcc


@<TRIPOS>ATOM
      1 C8         -0.1120    0.7720   -0.2020 c3        1 HOC     -0.056900
      2 C7          1.2340    0.6800    0.3960 c2        1 HOC     -0.192200
      3 OH          5.5300    1.2800    4.0820 oh        1 HOC     -0.586800
      4 C1          7.7910    0.6670    4.6720 c         1 HOC      0.932600
      5 C2          6.4680    0.2170    3.9760 c3        1 HOC      0.004100
      6 C3          6.7240   -0.1410    2.5260 c3        1 HOC     -0.113100
      7 C4          2.9960   -0.9940    3.1060 c3        1 HOC     -0.098100
      8 C5          3.0220   -0.4600    1.6950 c3        1 HOC     -0.056200
      9 C6          1.6630   -0.3640    1.1110 c2        1 HOC     -0.156200
     10 H81         1.8880    1.5500    0.2160 ha        1 HOC      0.123000
     11 H82         1.0090   -1.2320    1.3000 ha        1 HOC      0.111000
     12 H83        -0.0330    0.8890   -1.3120 hc        1 HOC      0.032700
     13 H71        -0.7270   -0.1360    0.0130 hc        1 HOC      0.032700
     14 H72        -0.6510    1.6650    0.2030 hc        1 HOC      0.032700
     15 HOH         4.7410    0.9910    3.6070 ho        1 HOC      0.352000
     16 H2          4.0410   -1.0890    3.4970 hc        1 HOC      0.040367
     17 H31         7.2260    0.7180    2.0180 hc        1 HOC      0.023033
     18 H32         6.0580   -0.6790    4.5230 h1        1 HOC      0.006700
     19 H41         5.7680   -0.3740    1.9930 hc        1 HOC      0.023033
     20 H42         7.3950   -1.0300    2.4700 hc        1 HOC      0.023033
     21 H51         2.4320   -0.3040    3.7780 hc        1 HOC      0.040367
     22 H52         2.5100   -1.9990    3.1430 hc        1 HOC      0.040367
     23 H61         3.6400   -1.1450    1.0500 hc        1 HOC      0.053700
     24 H62         3.5320    0.5410    1.6860 hc        1 HOC      0.053700
     25 O1A         8.0380    0.1460    5.7940 o         1 HOC     -0.832300
     26 O1B         8.5470    1.4690    4.0620 o         1 HOC     -0.832300
@<TRIPOS>BOND
     1    1    2 1   
     2    1   12 1   
     3    1   13 1   
     4    1   14 1   
     5    2    9 2   
     6    2   10 1   
     7    3    5 1   
     8    3   15 1   
     9    4    5 1   
    10    4   25 1   
    11    4   26 1   
    12    5    6 1   
    13    5   18 1   
    14    6   17 1   
    15    6   19 1   
    16    6   20 1   
    17    7    8 1   
    18    7   16 1   
    19    7   21 1   
    20    7   22 1   
    21    8    9 1   
    22    8   23 1   
    23    8   24 1   
    24    9   11 1   
@<TRIPOS>SUBSTRUCTURE
     1 HOC         1 TEMP              0 ****  ****    0 ROOT
