@<TRIPOS>MOLECULE
HOE
   57    62     1     0     0
SMALL
bcc


@<TRIPOS>ATOM
      1 C1         -0.1140   -0.1030    0.1090 ca        1 HOE     -0.191000
      2 C2          1.2730   -0.0520    0.0910 ca        1 HOE     -0.057000
      3 C3          2.0100   -0.2930    1.2610 ca        1 HOE     -0.172900
      4 C4          1.3430   -0.6020    2.4550 ca        1 HOE     -0.057000
      5 C5         -0.0470   -0.6560    2.4870 ca        1 HOE     -0.191000
      6 C6         -0.7740   -0.4040    1.3140 ca        1 HOE      0.152100
      7 C7          3.4720   -0.2430    1.2480 cc        1 HOE      0.505400
      8 C8          5.5400    0.4200    0.6360 ca        1 HOE     -0.087200
      9 C9          6.6980    0.9850    0.0950 ca        1 HOE     -0.070000
     10 C10         7.9210    0.5350    0.5940 ca        1 HOE     -0.134900
     11 C11         7.9910   -0.4600    1.5950 ca        1 HOE     -0.139000
     12 C12         6.8510   -1.0270    2.1410 ca        1 HOE     -0.073000
     13 C13         5.6000   -0.5960    1.6770 ca        1 HOE      0.097400
     14 C14         9.1550    1.1090    0.0490 cc        1 HOE      0.513400
     15 C15        11.2940    1.8280    0.0190 ca        1 HOE     -0.081200
     16 C16        12.6230    2.1920    0.2490 ca        1 HOE     -0.087000
     17 C17        13.3270    2.7560   -0.8240 ca        1 HOE      0.045600
     18 C18        12.7090    2.9460   -2.0880 ca        1 HOE     -0.177000
     19 C19        11.3930    2.5880   -2.3220 ca        1 HOE     -0.056000
     20 C20        10.6550    2.0210   -1.2740 ca        1 HOE      0.094400
     21 C21        14.9250    4.5640   -0.7210 c3        1 HOE      0.146300
     22 C22        16.3680    4.9410   -0.3400 c3        1 HOE      0.105800
     23 C23        17.0960    2.6920   -1.0280 c3        1 HOE      0.105800
     24 C24        15.6390    2.3580   -1.3960 c3        1 HOE      0.146300
     25 C25        18.7590    4.4800   -0.7090 c3        1 HOE      0.084100
     26 N1          4.1830    0.6250    0.3840 na        1 HOE     -0.274300
     27 N2          4.2980   -0.9810    2.0320 nd        1 HOE     -0.567100
     28 N3         10.3230    1.2510    0.8380 na        1 HOE     -0.274300
     29 N4          9.3290    1.5640   -1.2170 nd        1 HOE     -0.564100
     30 N5         14.6990    3.1310   -0.5960 nh        1 HOE     -0.616000
     31 N6         17.3760    4.1630   -1.1370 n4        1 HOE     -0.683400
     32 O1         -2.1450   -0.4340    1.2670 oh        1 HOE     -0.487100
     33 H1         -0.7050    0.0820   -0.8000 ha        1 HOE      0.152500
     34 H2          1.7840    0.1620   -0.8600 ha        1 HOE      0.146000
     35 H4          1.9180   -0.8060    3.3730 ha        1 HOE      0.146000
     36 H5         -0.5700   -0.8980    3.4230 ha        1 HOE      0.152500
     37 H9          6.6460    1.7480   -0.6950 ha        1 HOE      0.159000
     38 H11         8.9720   -0.8180    1.9420 ha        1 HOE      0.128000
     39 H12         6.9170   -1.8040    2.9160 ha        1 HOE      0.158000
     40 H16        13.0910    2.0390    1.2310 ha        1 HOE      0.150000
     41 H18        13.2880    3.3910   -2.9120 ha        1 HOE      0.123000
     42 H19        10.9280    2.7410   -3.3080 ha        1 HOE      0.162000
     43 H212       14.2380    5.0900    0.0020 h1        1 HOE      0.080700
     44 H221       16.5330    6.0370   -0.5350 hx        1 HOE      0.107700
     45 H222       16.5510    4.7250    0.7510 hx        1 HOE      0.107700
     46 H231       17.7920    2.1470   -1.7250 hx        1 HOE      0.107700
     47 H232       17.3110    2.3780    0.0330 hx        1 HOE      0.107700
     48 H241       15.4940    2.5060   -2.5060 h1        1 HOE      0.080700
     49 H242       15.4760    1.2660   -1.1680 h1        1 HOE      0.080700
     50 H251       18.9420    5.5810   -0.8300 hx        1 HOE      0.104700
     51 H252       18.8950    4.1940    0.3680 hx        1 HOE      0.104700
     52 H253       19.4850    3.9040   -1.3430 hx        1 HOE      0.104700
     53 HN1         3.7930    1.2550   -0.2650 hn        1 HOE      0.312700
     54 HN3        10.4200    1.0030    1.7870 hn        1 HOE      0.316700
     55 HN6        17.2660    4.4290   -2.1250 hn        1 HOE      0.444800
     56 HO1        -2.4740   -0.6710    2.1470 ho        1 HOE      0.428000
     57 H211       14.7010    4.9540   -1.7570 h1        1 HOE      0.080700
@<TRIPOS>BOND
     1    1    2 ar  
     2    1    6 ar  
     3    1   33 1   
     4    2    3 ar  
     5    2   34 1   
     6    3    4 ar  
     7    3    7 1   
     8    4    5 ar  
     9    4   35 1   
    10    5    6 ar  
    11    5   36 1   
    12    6   32 1   
    13    7   26 1   
    14    7   27 2   
    15    8    9 ar  
    16    8   13 ar  
    17    8   26 1   
    18    9   10 ar  
    19    9   37 1   
    20   10   11 ar  
    21   10   14 1   
    22   11   12 ar  
    23   11   38 1   
    24   12   13 ar  
    25   12   39 1   
    26   13   27 1   
    27   14   28 1   
    28   14   29 2   
    29   15   16 ar  
    30   15   20 ar  
    31   15   28 1   
    32   16   17 ar  
    33   16   40 1   
    34   17   18 ar  
    35   17   30 1   
    36   18   19 ar  
    37   18   41 1   
    38   19   20 ar  
    39   19   42 1   
    40   20   29 1   
    41   21   22 1   
    42   21   30 1   
    43   21   43 1   
    44   21   57 1   
    45   22   31 1   
    46   22   44 1   
    47   22   45 1   
    48   23   24 1   
    49   23   31 1   
    50   23   46 1   
    51   23   47 1   
    52   24   30 1   
    53   24   48 1   
    54   24   49 1   
    55   25   31 1   
    56   25   50 1   
    57   25   51 1   
    58   25   52 1   
    59   26   53 1   
    60   28   54 1   
    61   31   55 1   
    62   32   56 1   
@<TRIPOS>SUBSTRUCTURE
     1 HOE         1 TEMP              0 ****  ****    0 ROOT
