@<TRIPOS>MOLECULE
HOE
   57    62     1     0     0
SMALL
bcc


@<TRIPOS>ATOM
      1 C1         -0.1160   -0.1000    0.1070 ca        1 HOE     -0.191000
      2 C2          1.2720   -0.0490    0.0910 ca        1 HOE     -0.057000
      3 C3          2.0070   -0.2810    1.2640 ca        1 HOE     -0.172900
      4 C4          1.3380   -0.5820    2.4590 ca        1 HOE     -0.057000
      5 C5         -0.0520   -0.6360    2.4890 ca        1 HOE     -0.191000
      6 C6         -0.7770   -0.3930    1.3130 ca        1 HOE      0.152100
      7 C7          3.4690   -0.2310    1.2530 cc        1 HOE      0.505400
      8 C8          5.5380    0.4290    0.6400 ca        1 HOE     -0.087200
      9 C9          6.6960    0.9900    0.0960 ca        1 HOE     -0.070000
     10 C10         7.9190    0.5440    0.6000 ca        1 HOE     -0.134900
     11 C11         7.9870   -0.4430    1.6090 ca        1 HOE     -0.139000
     12 C12         6.8470   -1.0070    2.1570 ca        1 HOE     -0.073000
     13 C13         5.5960   -0.5800    1.6880 ca        1 HOE      0.097400
     14 C14         9.1530    1.1140    0.0530 cc        1 HOE      0.513400
     15 C15        11.2920    1.8330    0.0210 ca        1 HOE     -0.081200
     16 C16        12.6210    2.1990    0.2500 ca        1 HOE     -0.087000
     17 C17        13.3270    2.7550   -0.8250 ca        1 HOE      0.045600
     18 C18        12.7100    2.9360   -2.0920 ca        1 HOE     -0.177000
     19 C19        11.3950    2.5770   -2.3250 ca        1 HOE     -0.056000
     20 C20        10.6550    2.0170   -1.2740 ca        1 HOE      0.094400
     21 C21        14.9240    4.5630   -0.7340 c3        1 HOE      0.146300
     22 C22        16.3670    4.9430   -0.3540 c3        1 HOE      0.105800
     23 C23        17.0960    2.6890   -1.0240 c3        1 HOE      0.105800
     24 C24        15.6390    2.3530   -1.3910 c3        1 HOE      0.146300
     25 C25        18.7580    4.4790   -0.7160 c3        1 HOE      0.084100
     26 N1          4.1810    0.6320    0.3840 na        1 HOE     -0.274300
     27 N2          4.2940   -0.9630    2.0440 nd        1 HOE     -0.567100
     28 N3         10.3210    1.2620    0.8430 na        1 HOE     -0.274300
     29 N4          9.3290    1.5600   -1.2160 nd        1 HOE     -0.564100
     30 N5         14.6980    3.1310   -0.5980 nh        1 HOE     -0.616000
     31 N6         17.3760    4.1600   -1.1440 nx        1 HOE     -0.683400
     32 O1         -2.1480   -0.4240    1.2640 oh        1 HOE     -0.487100
     33 H1         -0.7040    0.0770   -0.8050 ha        1 HOE      0.152500
     34 H2          1.7840    0.1580   -0.8610 ha        1 HOE      0.146000
     35 H4          1.9110   -0.7790    3.3790 ha        1 HOE      0.146000
     36 H5         -0.5760   -0.8720    3.4260 ha        1 HOE      0.152500
     37 H9          6.6460    1.7470   -0.7000 ha        1 HOE      0.159000
     38 H11         8.9680   -0.7990    1.9600 ha        1 HOE      0.128000
     39 H12         6.9120   -1.7780    2.9380 ha        1 HOE      0.158000
     40 H16        13.0880    2.0530    1.2350 ha        1 HOE      0.150000
     41 H18        13.2900    3.3750   -2.9180 ha        1 HOE      0.123000
     42 H19        10.9310    2.7220   -3.3130 ha        1 HOE      0.162000
     43 H212       14.7020    4.9460   -1.7730 h1        1 HOE      0.080700
     44 H221       16.5320    6.0380   -0.5560 hx        1 HOE      0.107700
     45 H222       16.5480    4.7350    0.7390 hx        1 HOE      0.107700
     46 H231       17.7930    2.1390   -1.7150 hx        1 HOE      0.107700
     47 H232       17.3090    2.3830    0.0400 hx        1 HOE      0.107700
     48 H241       15.4760    1.2620   -1.1550 h1        1 HOE      0.080700
     49 H242       15.4950    2.4920   -2.5020 h1        1 HOE      0.080700
     50 H251       18.8930    4.2020    0.3640 hx        1 HOE      0.104700
     51 H252       19.4860    3.8990   -1.3440 hx        1 HOE      0.104700
     52 H253       18.9420    5.5800   -0.8440 hx        1 HOE      0.104700
     53 HN1         3.7920    1.2560   -0.2700 hn        1 HOE      0.312700
     54 HN3        10.4160    1.0210    1.7940 hn        1 HOE      0.316700
     55 HN6        17.2670    4.4190   -2.1330 hn        1 HOE      0.444800
     56 HO1        -2.4790   -0.6550    2.1460 ho        1 HOE      0.428000
     57 H211       14.2360    5.0950   -0.0150 h1        1 HOE      0.080700
@<TRIPOS>BOND
     1    1    2 ar  
     2    1    6 ar  
     3    1   33 1   
     4    2    3 ar  
     5    2   34 1   
     6    3    4 ar  
     7    3    7 1   
     8    4    5 ar  
     9    4   35 1   
    10    5    6 ar  
    11    5   36 1   
    12    6   32 1   
    13    7   26 1   
    14    7   27 2   
    15    8    9 ar  
    16    8   13 ar  
    17    8   26 1   
    18    9   10 ar  
    19    9   37 1   
    20   10   11 ar  
    21   10   14 1   
    22   11   12 ar  
    23   11   38 1   
    24   12   13 ar  
    25   12   39 1   
    26   13   27 1   
    27   14   28 1   
    28   14   29 2   
    29   15   16 ar  
    30   15   20 ar  
    31   15   28 1   
    32   16   17 ar  
    33   16   40 1   
    34   17   18 ar  
    35   17   30 1   
    36   18   19 ar  
    37   18   41 1   
    38   19   20 ar  
    39   19   42 1   
    40   20   29 1   
    41   21   22 1   
    42   21   30 1   
    43   21   43 1   
    44   21   57 1   
    45   22   31 1   
    46   22   44 1   
    47   22   45 1   
    48   23   24 1   
    49   23   31 1   
    50   23   46 1   
    51   23   47 1   
    52   24   30 1   
    53   24   48 1   
    54   24   49 1   
    55   25   31 1   
    56   25   50 1   
    57   25   51 1   
    58   25   52 1   
    59   26   53 1   
    60   28   54 1   
    61   31   55 1   
    62   32   56 1   
@<TRIPOS>SUBSTRUCTURE
     1 HOE         1 TEMP              0 ****  ****    0 ROOT
