@<TRIPOS>MOLECULE
HOE
   57    45     1     0     0
SMALL
bcc


@<TRIPOS>ATOM
      1 C1         -8.7080   -4.8450    0.8210 c1        1 HOE     -0.220000
      2 C2         -7.6180   -4.0600    0.5060 c1        1 HOE     -0.071000
      3 C3         -6.7830   -3.6140    1.4980 c1        1 HOE     -0.070000
      4 C4         -7.0320   -3.9520    2.8290 c1        1 HOE     -0.108500
      5 C5         -8.1070   -4.7260    3.1450 c1        1 HOE     -0.108500
      6 C6         -8.9580   -5.1810    2.1370 c1        1 HOE      0.107000
      7 C7         -5.6490   -2.8860    1.1690 c1        1 HOE      0.098500
      8 C8         -3.6890   -1.9470    0.8240 c1        1 HOE     -0.041250
      9 C9         -2.3290   -1.6010    0.5180 c1        1 HOE     -0.071000
     10 C10        -1.9500   -0.2540    0.4410 c1        1 HOE     -0.070000
     11 C11        -2.8960    0.7510    0.6620 c1        1 HOE     -0.108500
     12 C12        -4.2360    0.4080    0.9630 c1        1 HOE     -0.108500
     13 C13        -4.6200   -0.9520    1.0410 c1        1 HOE     -0.041250
     14 C14        -0.7530    0.2820    0.1270 c1        1 HOE      0.098500
     15 C15         1.3560    1.0110   -0.0930 c1        1 HOE     -0.041250
     16 C16         2.6820    1.4540    0.0720 c1        1 HOE     -0.087000
     17 C17         3.4300    1.8610   -1.0470 c1        1 HOE     -0.036000
     18 C18         2.8590    1.8250   -2.3160 c1        1 HOE     -0.108500
     19 C19         1.5570    1.3900   -2.4760 c1        1 HOE     -0.108500
     20 C20         0.7970    0.9770   -1.3450 c1        1 HOE     -0.041250
     21 C21         4.9630    3.6380   -1.0850 c3        1 HOE     -0.090500
     22 C22         6.3870    4.0670   -0.9010 c3        1 HOE     -0.131000
     23 C23         7.1000    1.7980   -1.1920 c3        1 HOE     -0.131000
     24 C24         5.6730    1.3680   -1.3750 c3        1 HOE     -0.090500
     25 C25         8.6730    3.5810   -1.1890 c3        1 HOE     -0.192000
     26 N1         -4.3270   -3.1350    0.9040 n1        1 HOE     -0.184250
     27 N2         -5.8180   -1.5390    1.2520 n1        1 HOE     -0.184250
     28 N3          0.3870    0.5760    0.8240 n1        1 HOE     -0.184250
     29 N4         -0.5100    0.5280   -1.2190 n1        1 HOE     -0.184250
     30 N5          4.7570    2.2450   -0.7290 n3        1 HOE     -0.219000
     31 N6          7.3080    3.1920   -1.5500 n4        1 HOE     -0.004000
     32 O1        -10.0710   -5.9730    2.4620 oh        1 HOE     -0.240000
     33 H1         -9.2900   -5.1550    0.1270 ha        1 HOE      0.142000
     34 H2         -7.4550   -3.8420   -0.3450 ha        1 HOE      0.145500
     35 H4         -6.3990   -3.6130    3.5760 ha        1 HOE      0.149000
     36 H5         -8.2850   -4.9670    4.0860 ha        1 HOE      0.149000
     37 H9         -1.6910   -2.2800    0.3690 ha        1 HOE      0.145500
     38 H11        -2.6080    1.7770    0.6040 ha        1 HOE      0.149000
     39 H12        -4.8880    1.1000    1.1150 ha        1 HOE      0.149000
     40 H16         3.0840    1.4770    0.9660 ha        1 HOE      0.150000
     41 H18         3.3570    2.0960   -3.0610 ha        1 HOE      0.149000
     42 H19         1.1680    1.3670   -3.3440 ha        1 HOE      0.149000
     43 H211        4.3930    4.2000   -0.5150 h1        1 HOE      0.120000
     44 H212        4.7040    3.7710   -2.0220 h1        1 HOE      0.120000
     45 H221        6.4910    4.9340   -1.2540 hx        1 HOE      0.147000
     46 H222        6.5960    4.0880    0.0890 hx        1 HOE      0.147000
     47 H231        7.3550    1.6640   -0.2530 hx        1 HOE      0.147000
     48 H232        7.6950    1.2190   -1.7780 hx        1 HOE      0.147000
     49 H241        5.4800    1.3420   -2.2750 h1        1 HOE      0.120000
     50 H242        5.5620    0.4630   -0.9980 h1        1 HOE      0.120000
     51 H251        8.8640    4.5030   -1.5540 hx        1 HOE      0.144000
     52 H252        8.7760    3.5900   -0.1550 hx        1 HOE      0.144000
     53 H253        9.3410    2.9010   -1.5940 hx        1 HOE      0.144000
     54 HN1        -3.9370   -3.9370    0.9040 DU        1 HOE      0.265000
     55 HN3         0.4790    0.5650    1.7550 DU        1 HOE      0.265000
     56 HN6         7.2120    3.2780   -2.4280 hn        1 HOE      0.240000
     57 HO1        -9.8810   -6.8290    2.3080 ho        1 HOE      0.225000
@<TRIPOS>BOND
     1    1    6 1   
     2    1   33 1   
     3    2    3 1   
     4    2   34 1   
     5    4    5 1   
     6    4   35 1   
     7    5   36 1   
     8    6   32 1   
     9    7   26 1   
    10    7   27 1   
    11    8   13 1   
    12    9   10 1   
    13    9   37 1   
    14   11   12 1   
    15   11   38 1   
    16   12   39 1   
    17   14   28 1   
    18   14   29 1   
    19   15   20 1   
    20   16   17 1   
    21   16   40 1   
    22   17   30 1   
    23   18   19 1   
    24   18   41 1   
    25   19   42 1   
    26   21   22 1   
    27   21   30 1   
    28   21   43 1   
    29   21   44 1   
    30   22   31 1   
    31   22   45 1   
    32   22   46 1   
    33   23   24 1   
    34   23   31 1   
    35   23   47 1   
    36   23   48 1   
    37   24   30 1   
    38   24   49 1   
    39   24   50 1   
    40   25   31 1   
    41   25   51 1   
    42   25   52 1   
    43   25   53 1   
    44   31   56 1   
    45   32   57 1   
@<TRIPOS>SUBSTRUCTURE
     1 HOE         1 TEMP              0 ****  ****    0 ROOT
