@<TRIPOS>MOLECULE
HOE
   57    62     1     0     0
SMALL
bcc


@<TRIPOS>ATOM
      1 C1         -0.1190   -0.0780    0.1250 ca        1 HOE     -0.191000
      2 C2          1.2680   -0.0300    0.1040 ca        1 HOE     -0.057000
      3 C3          2.0080   -0.2810    1.2700 ca        1 HOE     -0.172900
      4 C4          1.3440   -0.5970    2.4630 ca        1 HOE     -0.057000
      5 C5         -0.0460   -0.6470    2.4990 ca        1 HOE     -0.191000
      6 C6         -0.7770   -0.3860    1.3310 ca        1 HOE      0.152100
      7 C7          3.4700   -0.2340    1.2530 cc        1 HOE      0.505400
      8 C8          5.5380    0.4290    0.6390 ca        1 HOE     -0.087200
      9 C9          6.6950    0.9950    0.0980 ca        1 HOE     -0.070000
     10 C10         7.9190    0.5400    0.5900 ca        1 HOE     -0.134900
     11 C11         7.9890   -0.4630    1.5840 ca        1 HOE     -0.139000
     12 C12         6.8500   -1.0310    2.1290 ca        1 HOE     -0.073000
     13 C13         5.5980   -0.5940    1.6730 ca        1 HOE      0.097400
     14 C14         9.1520    1.1140    0.0460 cc        1 HOE      0.513400
     15 C15        11.2920    1.8300    0.0150 ca        1 HOE     -0.081200
     16 C16        12.6230    2.1890    0.2430 ca        1 HOE     -0.087000
     17 C17        13.3250    2.7590   -0.8270 ca        1 HOE      0.045600
     18 C18        12.7030    2.9590   -2.0890 ca        1 HOE     -0.177000
     19 C19        11.3860    2.6060   -2.3210 ca        1 HOE     -0.056000
     20 C20        10.6500    2.0330   -1.2750 ca        1 HOE      0.094400
     21 C21        14.9270    4.5630   -0.7180 c3        1 HOE      0.146300
     22 C22        16.3720    4.9340   -0.3380 c3        1 HOE      0.105800
     23 C23        17.0940    2.6880   -1.0410 c3        1 HOE      0.105800
     24 C24        15.6340    2.3600   -1.4080 c3        1 HOE      0.146300
     25 C25        18.7610    4.4700   -0.7150 c3        1 HOE      0.084100
     26 N1          4.1800    0.6390    0.3930 na        1 HOE     -0.275300
     27 N2          4.2960   -0.9790    2.0290 nd        1 HOE     -0.567100
     28 N3         10.3230    1.2490    0.8330 na        1 HOE     -0.274300
     29 N4          9.3240    1.5780   -1.2180 nd        1 HOE     -0.564100
     30 N5         14.6980    3.1300   -0.6000 nh        1 HOE     -0.616000
     31 N6         17.3760    4.1590   -1.1420 n4        1 HOE     -0.683400
     32 O1         -2.1470   -0.4120    1.2880 oh        1 HOE     -0.487100
     33 H1         -0.7120    0.1140   -0.7810 ha        1 HOE      0.152500
     34 H2          1.7760    0.1890   -0.8480 ha        1 HOE      0.146000
     35 H4          1.9210   -0.8080    3.3780 ha        1 HOE      0.146000
     36 H5         -0.5670   -0.8950    3.4360 ha        1 HOE      0.152500
     37 H9          6.6430    1.7640   -0.6860 ha        1 HOE      0.159000
     38 H11         8.9700   -0.8260    1.9250 ha        1 HOE      0.128000
     39 H12         6.9170   -1.8140    2.8990 ha        1 HOE      0.158000
     40 H16        13.0930    2.0290    1.2240 ha        1 HOE      0.150000
     41 H18        13.2810    3.4090   -2.9110 ha        1 HOE      0.123000
     42 H19        10.9190    2.7660   -3.3050 ha        1 HOE      0.162000
     43 H212       14.2430    5.0860    0.0110 h1        1 HOE      0.080700
     44 H221       16.5570    4.7110    0.7510 hx        1 HOE      0.107700
     45 H222       16.5390    6.0310   -0.5260 hx        1 HOE      0.107700
     46 H231       17.7870    2.1450   -1.7430 hx        1 HOE      0.107700
     47 H232       17.3100    2.3660    0.0170 hx        1 HOE      0.107700
     48 H241       15.4700    1.2660   -1.1860 h1        1 HOE      0.080700
     49 H242       15.4870    2.5150   -2.5170 h1        1 HOE      0.080700
     50 H251       18.9470    5.5720   -0.8290 hx        1 HOE      0.104700
     51 H252       19.4850    3.8960   -1.3540 hx        1 HOE      0.104700
     52 H253       18.8990    4.1780    0.3600 hx        1 HOE      0.104700
     53 HN1         3.7890    1.2740   -0.2510 hn        1 HOE      0.312700
     54 HN3        10.4220    0.9940    1.7800 hn        1 HOE      0.316700
     55 HN6        17.2650    4.4320   -2.1280 hn        1 HOE      0.444800
     56 HO1        -2.4740   -0.6540    2.1680 ho        1 HOE      0.428000
     57 H211       14.7020    4.9590   -1.7510 h1        1 HOE      0.080700
@<TRIPOS>BOND
     1    1    2 ar  
     2    1    6 ar  
     3    1   33 1   
     4    2    3 ar  
     5    2   34 1   
     6    3    4 ar  
     7    3    7 1   
     8    4    5 ar  
     9    4   35 1   
    10    5    6 ar  
    11    5   36 1   
    12    6   32 1   
    13    7   26 1   
    14    7   27 2   
    15    8    9 ar  
    16    8   13 ar  
    17    8   26 1   
    18    9   10 ar  
    19    9   37 1   
    20   10   11 ar  
    21   10   14 1   
    22   11   12 ar  
    23   11   38 1   
    24   12   13 ar  
    25   12   39 1   
    26   13   27 1   
    27   14   28 1   
    28   14   29 2   
    29   15   16 ar  
    30   15   20 ar  
    31   15   28 1   
    32   16   17 ar  
    33   16   40 1   
    34   17   18 ar  
    35   17   30 1   
    36   18   19 ar  
    37   18   41 1   
    38   19   20 ar  
    39   19   42 1   
    40   20   29 1   
    41   21   22 1   
    42   21   30 1   
    43   21   43 1   
    44   21   57 1   
    45   22   31 1   
    46   22   44 1   
    47   22   45 1   
    48   23   24 1   
    49   23   31 1   
    50   23   46 1   
    51   23   47 1   
    52   24   30 1   
    53   24   48 1   
    54   24   49 1   
    55   25   31 1   
    56   25   50 1   
    57   25   51 1   
    58   25   52 1   
    59   26   53 1   
    60   28   54 1   
    61   31   55 1   
    62   32   56 1   
@<TRIPOS>SUBSTRUCTURE
     1 HOE         1 TEMP              0 ****  ****    0 ROOT
