@<TRIPOS>MOLECULE
HOE
   57    62     1     0     0
SMALL
bcc


@<TRIPOS>ATOM
      1 C1         -8.6570    1.6400    0.0440 ca        1 HOE     -0.191000
      2 C2         -7.3120    1.3400   -0.1260 ca        1 HOE     -0.057000
      3 C3         -6.8390    0.0360    0.0880 ca        1 HOE     -0.172900
      4 C4         -7.7330   -0.9780    0.4620 ca        1 HOE     -0.057000
      5 C5         -9.0840   -0.6920    0.6360 ca        1 HOE     -0.191000
      6 C6         -9.5440    0.6170    0.4300 ca        1 HOE      0.152100
      7 C7         -5.4230   -0.2860   -0.0910 cc        1 HOE      0.505400
      8 C8         -3.1890    0.0250   -0.0970 ca        1 HOE     -0.087200
      9 C9         -1.8610    0.4550   -0.0220 ca        1 HOE     -0.070000
     10 C10        -0.8720   -0.4660   -0.3700 ca        1 HOE     -0.134900
     11 C11        -1.1960   -1.7750   -0.7950 ca        1 HOE     -0.139000
     12 C12        -2.5070   -2.2130   -0.8740 ca        1 HOE     -0.073000
     13 C13        -3.5340   -1.3240   -0.5210 ca        1 HOE      0.097400
     14 C14         0.5310   -0.0490   -0.3000 cc        1 HOE      0.513400
     15 C15         2.7600   -0.2420   -0.0010 ca        1 HOE     -0.081200
     16 C16         4.0870   -0.6130    0.2250 ca        1 HOE     -0.087000
     17 C17         5.0600    0.3900    0.1240 ca        1 HOE      0.045600
     18 C18         4.7030    1.7280   -0.1950 ca        1 HOE     -0.177000
     19 C19         3.3900    2.1030   -0.4200 ca        1 HOE     -0.056000
     20 C20         2.3880    1.1270   -0.3280 ca        1 HOE      0.094400
     21 C21         7.0120    0.6660    1.5180 c3        1 HOE      0.146300
     22 C22         8.4300    0.1390    1.8080 c3        1 HOE      0.105800
     23 C23         8.6890   -0.3690   -0.5870 c3        1 HOE      0.105800
     24 C24         7.2660    0.1670   -0.8300 c3        1 HOE      0.146300
     25 C25        10.6660   -0.3080    0.8790 c3        1 HOE      0.084100
     26 N1         -4.4030    0.6600    0.1690 na        1 HOE     -0.274300
     27 N2         -4.9280   -1.4800   -0.5030 nd        1 HOE     -0.567100
     28 N3          1.5670   -0.9650    0.0110 na        1 HOE     -0.274300
     29 N4          0.9990    1.2080   -0.5050 nd        1 HOE     -0.564100
     30 N5          6.4310    0.0140    0.3530 nh        1 HOE     -0.616000
     31 N6          9.3280    0.2710    0.6120 n4        1 HOE     -0.683400
     32 O1        -10.8580    0.9780    0.5860 oh        1 HOE     -0.487100
     33 H1         -9.0410    2.6560   -0.1210 ha        1 HOE      0.152500
     34 H2         -6.6270    2.1390   -0.4490 ha        1 HOE      0.146000
     35 H4         -7.3700   -2.0060    0.6170 ha        1 HOE      0.146000
     36 H5         -9.7840   -1.4860    0.9300 ha        1 HOE      0.152500
     37 H9         -1.6080    1.4770    0.2940 ha        1 HOE      0.159000
     38 H11        -0.3940   -2.4650   -1.0970 ha        1 HOE      0.128000
     39 H12        -2.7480   -3.2320   -1.2110 ha        1 HOE      0.158000
     40 H16         4.3510   -1.6520    0.4700 ha        1 HOE      0.150000
     41 H18         5.4890    2.4950   -0.2670 ha        1 HOE      0.123000
     42 H19         3.1300    3.1440   -0.6670 ha        1 HOE      0.162000
     43 H212        6.3720    0.4170    2.4130 h1        1 HOE      0.080700
     44 H221        8.3890   -0.9510    2.0900 hx        1 HOE      0.107700
     45 H222        8.8810    0.7260    2.6560 hx        1 HOE      0.107700
     46 H231        9.3290   -0.1540   -1.4870 hx        1 HOE      0.107700
     47 H232        8.6590   -1.4820   -0.4090 hx        1 HOE      0.107700
     48 H241        7.3300    1.2370   -1.1860 h1        1 HOE      0.080700
     49 H242        6.8120   -0.4480   -1.6600 h1        1 HOE      0.080700
     50 H251       11.3190   -0.1680   -0.0240 hx        1 HOE      0.104700
     51 H252       11.1260    0.2110    1.7630 hx        1 HOE      0.104700
     52 H253       10.5660   -1.4050    1.1010 hx        1 HOE      0.104700
     53 HN1        -4.5270    1.5860    0.4830 hn        1 HOE      0.312700
     54 HN3         1.4580   -1.9230    0.2130 hn        1 HOE      0.316700
     55 HN6         9.4350    1.2740    0.4100 hn        1 HOE      0.444800
     56 HO1       -11.3630    0.1880    0.8290 ho        1 HOE      0.428000
     57 H211        7.0480    1.7900    1.4200 h1        1 HOE      0.080700
@<TRIPOS>BOND
     1    1    2 ar  
     2    1    6 ar  
     3    1   33 1   
     4    2    3 ar  
     5    2   34 1   
     6    3    4 ar  
     7    3    7 1   
     8    4    5 ar  
     9    4   35 1   
    10    5    6 ar  
    11    5   36 1   
    12    6   32 1   
    13    7   26 1   
    14    7   27 2   
    15    8    9 ar  
    16    8   13 ar  
    17    8   26 1   
    18    9   10 ar  
    19    9   37 1   
    20   10   11 ar  
    21   10   14 1   
    22   11   12 ar  
    23   11   38 1   
    24   12   13 ar  
    25   12   39 1   
    26   13   27 1   
    27   14   28 1   
    28   14   29 2   
    29   15   16 ar  
    30   15   20 ar  
    31   15   28 1   
    32   16   17 ar  
    33   16   40 1   
    34   17   18 ar  
    35   17   30 1   
    36   18   19 ar  
    37   18   41 1   
    38   19   20 ar  
    39   19   42 1   
    40   20   29 1   
    41   21   22 1   
    42   21   30 1   
    43   21   43 1   
    44   21   57 1   
    45   22   31 1   
    46   22   44 1   
    47   22   45 1   
    48   23   24 1   
    49   23   31 1   
    50   23   46 1   
    51   23   47 1   
    52   24   30 1   
    53   24   48 1   
    54   24   49 1   
    55   25   31 1   
    56   25   50 1   
    57   25   51 1   
    58   25   52 1   
    59   26   53 1   
    60   28   54 1   
    61   31   55 1   
    62   32   56 1   
@<TRIPOS>SUBSTRUCTURE
     1 HOE         1 TEMP              0 ****  ****    0 ROOT
