@<TRIPOS>MOLECULE
HOH
    3     2     1     0     0
SMALL
bcc


@<TRIPOS>ATOM
      1 O          -0.0770    0.0000   -0.0000 oh        1 HOH     -0.785000
      2 H1          0.5180    0.0000   -0.7550 ho        1 HOH      0.392000
      3 H2          0.5180   -0.0000    0.7550 ho        1 HOH      0.392000
@<TRIPOS>BOND
     1    1    2 1   
     2    1    3 1   
@<TRIPOS>SUBSTRUCTURE
     1 HOH         1 TEMP              0 ****  ****    0 ROOT
