@<TRIPOS>MOLECULE
HOM
   28    29     1     0     0
SMALL
bcc


@<TRIPOS>ATOM
      1 CA          0.0240    0.0940   -0.0130 cc        1 HOM     -0.210400
      2 CA2         1.4850    0.1150    0.0120 c         1 HOM      0.724800
      3 CA3         1.4420    0.0600    2.3940 ca        1 HOM      0.191100
      4 CA4         2.2010    0.0420    3.5770 ca        1 HOM     -0.245000
      5 CA5         1.5200   -0.0000    4.7940 ca        1 HOM      0.174100
      6 CA6         0.1080   -0.0250    4.8420 ca        1 HOM     -0.183000
      7 CA7        -0.6120   -0.0060    3.6630 ca        1 HOM     -0.045000
      8 CA8         0.0340    0.0370    2.4110 ca        1 HOM     -0.183800
      9 CA9        -0.6810    0.0590    1.1510 cd        1 HOM      0.056600
     10 CB         -0.5890    0.0930   -1.3680 c3        1 HOM     -0.039200
     11 CB7        -1.1070    1.4760   -1.7470 c3        1 HOM      0.133400
     12 CB8        -2.1630    0.0400    1.1950 c3        1 HOM     -0.079900
     13 OA2         2.2820    0.1460   -0.9250 o         1 HOM     -0.568500
     14 OA3         2.1700    0.1010    1.2280 os        1 HOM     -0.324200
     15 OA4         2.1670   -0.0210    6.0030 oh        1 HOM     -0.488100
     16 OA1        -1.9560    1.2980   -2.8700 oh        1 HOM     -0.603800
     17 HA41        3.2980    0.0610    3.5230 ha        1 HOM      0.163000
     18 HA61       -0.3930   -0.0600    5.8200 ha        1 HOM      0.159000
     19 HA71       -1.7130   -0.0270    3.7020 ha        1 HOM      0.143000
     20 HB1         0.1700   -0.2300   -2.1320 hc        1 HOM      0.076700
     21 HB2        -1.4350   -0.6440   -1.4140 hc        1 HOM      0.076700
     22 HB71       -1.6990    1.9250   -0.9030 h1        1 HOM      0.027700
     23 HB72       -0.2530    2.1590   -1.9980 h1        1 HOM      0.027700
     24 HB81       -2.6140    0.0840    0.1730 hc        1 HOM      0.061367
     25 HB82       -2.5160   -0.8970    1.6960 hc        1 HOM      0.061367
     26 HB83       -2.5380    0.9180    1.7780 hc        1 HOM      0.061367
     27 HO41        3.1220   -0.0030    5.8370 ho        1 HOM      0.428000
     28 HO11       -2.0970    2.1720   -3.2510 ho        1 HOM      0.403000
@<TRIPOS>BOND
     1    1    2 1   
     2    1    9 2   
     3    1   10 1   
     4    2   13 2   
     5    2   14 1   
     6    3    4 ar  
     7    3    8 ar  
     8    3   14 1   
     9    4    5 ar  
    10    4   17 1   
    11    5    6 ar  
    12    5   15 1   
    13    6    7 ar  
    14    6   18 1   
    15    7    8 ar  
    16    7   19 1   
    17    8    9 1   
    18    9   12 1   
    19   10   11 1   
    20   10   20 1   
    21   10   21 1   
    22   11   16 1   
    23   11   22 1   
    24   11   23 1   
    25   12   24 1   
    26   12   25 1   
    27   12   26 1   
    28   15   27 1   
    29   16   28 1   
@<TRIPOS>SUBSTRUCTURE
     1 HOM         1 TEMP              0 ****  ****    0 ROOT
