@<TRIPOS>MOLECULE
HOM
   28    29     1     0     0
SMALL
bcc


@<TRIPOS>ATOM
      1 CA          0.0200    0.0920   -0.0130 cc        1 HOM     -0.210400
      2 CA2         1.4810    0.1100    0.0090 c         1 HOM      0.724800
      3 CA3         1.4450    0.0600    2.3910 ca        1 HOM      0.191100
      4 CA4         2.2070    0.0430    3.5720 ca        1 HOM     -0.245000
      5 CA5         1.5280    0.0040    4.7900 ca        1 HOM      0.174100
      6 CA6         0.1160   -0.0190    4.8430 ca        1 HOM     -0.183000
      7 CA7        -0.6070   -0.0010    3.6650 ca        1 HOM     -0.045000
      8 CA8         0.0360    0.0390    2.4120 ca        1 HOM     -0.183800
      9 CA9        -0.6830    0.0600    1.1530 cd        1 HOM      0.056600
     10 CB         -0.5960    0.0890   -1.3660 c3        1 HOM     -0.039200
     11 CB7        -1.1130    1.4710   -1.7460 c3        1 HOM      0.133400
     12 CB8        -2.1640    0.0430    1.2010 c3        1 HOM     -0.078900
     13 OA2         2.2760    0.1380   -0.9310 o         1 HOM     -0.568500
     14 OA3         2.1690    0.0980    1.2230 os        1 HOM     -0.324200
     15 OA4         2.1790   -0.0150    5.9970 oh        1 HOM     -0.488100
     16 OA1        -1.9640    1.2940   -2.8680 oh        1 HOM     -0.603800
     17 HA41        3.3030    0.0600    3.5150 ha        1 HOM      0.163000
     18 HA61       -0.3820   -0.0510    5.8220 ha        1 HOM      0.159000
     19 HA71       -1.7080   -0.0200    3.7070 ha        1 HOM      0.143000
     20 HB1         0.1590   -0.2380   -2.1320 hc        1 HOM      0.076700
     21 HB2        -1.4440   -0.6470   -1.4090 hc        1 HOM      0.076700
     22 HB71       -1.7020    1.9230   -0.9030 h1        1 HOM      0.027700
     23 HB72       -0.2580    2.1520   -2.0010 h1        1 HOM      0.027700
     24 HB81       -2.6180    0.0860    0.1800 hc        1 HOM      0.061367
     25 HB82       -2.5180   -0.8920    1.7050 hc        1 HOM      0.061367
     26 HB83       -2.5360    0.9230    1.7840 hc        1 HOM      0.061367
     27 HO41        3.1330    0.0000    5.8290 ho        1 HOM      0.428000
     28 HO11       -2.1040    2.1670   -3.2500 ho        1 HOM      0.403000
@<TRIPOS>BOND
     1    1    2 1   
     2    1    9 2   
     3    1   10 1   
     4    2   13 2   
     5    2   14 1   
     6    3    4 ar  
     7    3    8 ar  
     8    3   14 1   
     9    4    5 ar  
    10    4   17 1   
    11    5    6 ar  
    12    5   15 1   
    13    6    7 ar  
    14    6   18 1   
    15    7    8 ar  
    16    7   19 1   
    17    8    9 1   
    18    9   12 1   
    19   10   11 1   
    20   10   20 1   
    21   10   21 1   
    22   11   16 1   
    23   11   22 1   
    24   11   23 1   
    25   12   24 1   
    26   12   25 1   
    27   12   26 1   
    28   15   27 1   
    29   16   28 1   
@<TRIPOS>SUBSTRUCTURE
     1 HOM         1 TEMP              0 ****  ****    0 ROOT
