@<TRIPOS>MOLECULE
HOM
   28    25     1     0     0
SMALL
bcc


@<TRIPOS>ATOM
      1 CA         -0.0700   -0.1520   -1.2410 c1        1 HOM     -0.186000
      2 CA2         1.3190   -0.0700   -1.2560 c1        1 HOM      0.341000
      3 CA3         1.3410   -0.1080    1.1380 c1        1 HOM      0.146000
      4 CA4         2.0600   -0.0990    2.3480 c1        1 HOM     -0.245000
      5 CA5         1.3830   -0.1710    3.5590 c1        1 HOM      0.130000
      6 CA6        -0.0060   -0.2520    3.5760 c1        1 HOM     -0.113500
      7 CA7        -0.7160   -0.2610    2.3830 c1        1 HOM     -0.113500
      8 CA8        -0.0310   -0.1880    1.1550 c1        1 HOM     -0.172000
      9 CA9        -0.7420   -0.2100   -0.0440 c2        1 HOM      0.051000
     10 CB         -0.4820   -0.4100   -2.6740 c3        1 HOM     -0.156000
     11 CB7        -0.5180    0.8980   -3.4320 c3        1 HOM     -0.020000
     12 CB8        -2.2400   -0.4010    0.0440 c3        1 HOM     -0.201000
     13 OA2         1.9150   -0.0540   -2.3150 o         1 HOM     -0.296000
     14 OA3         2.0190   -0.0490   -0.0760 os        1 HOM     -0.187000
     15 OA4         2.1030   -0.1870    4.7670 oh        1 HOM     -0.241000
     16 OA1        -0.2220    0.6620   -4.7910 oh        1 HOM     -0.326000
     17 HA41        3.0350   -0.0420    2.3360 ha        1 HOM      0.163000
     18 HA61       -0.4810   -0.3020    4.4270 ha        1 HOM      0.151000
     19 HA71       -1.6910   -0.3180    2.3950 ha        1 HOM      0.151000
     20 HB1         0.1630   -1.0140   -3.0950 hc        1 HOM      0.107500
     21 HB2        -1.3700   -0.8200   -2.6890 hc        1 HOM      0.107500
     22 HB71        0.1460    1.5120   -3.0560 h1        1 HOM      0.089500
     23 HB72       -1.4100    1.2950   -3.3570 h1        1 HOM      0.089500
     24 HB81       -2.6190   -0.4300   -0.8600 hc        1 HOM      0.101000
     25 HB82       -2.6360    0.3460    0.5400 hc        1 HOM      0.101000
     26 HB83       -2.4360   -1.2420    0.5070 hc        1 HOM      0.101000
     27 HO41        2.4050    0.6310    4.9440 ho        1 HOM      0.228000
     28 HO11       -0.2220    1.4340   -5.2330 ho        1 HOM      0.200000
@<TRIPOS>BOND
     1    1    9 1   
     2    1   10 1   
     3    2   13 1   
     4    2   14 1   
     5    3    8 1   
     6    3   14 1   
     7    4    5 1   
     8    4   17 1   
     9    5   15 1   
    10    6    7 1   
    11    6   18 1   
    12    7   19 1   
    13    8    9 1   
    14    9   12 1   
    15   10   11 1   
    16   10   20 1   
    17   10   21 1   
    18   11   16 1   
    19   11   22 1   
    20   11   23 1   
    21   12   24 1   
    22   12   25 1   
    23   12   26 1   
    24   15   27 1   
    25   16   28 1   
@<TRIPOS>SUBSTRUCTURE
     1 HOM         1 TEMP              0 ****  ****    0 ROOT
