@<TRIPOS>MOLECULE
HOM
   28    29     1     0     0
SMALL
bcc


@<TRIPOS>ATOM
      1 CA         -0.1390    0.3200   -1.4710 cc        1 HOM     -0.208400
      2 CA2        -1.5170    0.2290   -0.9920 c         1 HOM      0.723800
      3 CA3        -0.7260    0.0020    1.2450 ca        1 HOM      0.184100
      4 CA4        -1.0750   -0.1550    2.5950 ca        1 HOM     -0.184000
      5 CA5        -0.0420   -0.2250    3.5330 ca        1 HOM      0.169100
      6 CA6         1.3100   -0.1400    3.1400 ca        1 HOM     -0.239000
      7 CA7         1.6250    0.0150    1.8000 ca        1 HOM     -0.037000
      8 CA8         0.6180    0.0880    0.8210 ca        1 HOM     -0.182800
      9 CA9         0.8980    0.2490   -0.5920 cd        1 HOM      0.054600
     10 CB          0.0140    0.5100   -2.9380 c3        1 HOM     -0.039200
     11 CB7         0.3910   -0.7930   -3.6330 c3        1 HOM      0.133400
     12 CB8         2.3170    0.3300   -1.0120 c3        1 HOM     -0.078900
     13 OA2        -2.5690    0.2740   -1.6310 o         1 HOM     -0.566500
     14 OA3        -1.7830    0.0660    0.3670 os        1 HOM     -0.321200
     15 OA4        -0.4160   -0.3800    4.8450 oh        1 HOM     -0.486100
     16 OA1         0.8490   -0.4450   -4.9300 oh        1 HOM     -0.603800
     17 HA41       -2.1280   -0.2210    2.9000 ha        1 HOM      0.178000
     18 HA61        2.1050   -0.1960    3.8960 ha        1 HOM      0.141000
     19 HA71        2.6820    0.0820    1.4980 ha        1 HOM      0.141000
     20 HB1        -0.9490    0.8890   -3.3780 hc        1 HOM      0.077200
     21 HB2         0.7990    1.2840   -3.1530 hc        1 HOM      0.077200
     22 HB71        1.2170   -1.3160   -3.0790 h1        1 HOM      0.027700
     23 HB72       -0.4970   -1.4750   -3.6950 h1        1 HOM      0.027700
     24 HB81        2.8630   -0.5920   -0.6880 hc        1 HOM      0.061033
     25 HB82        2.4220    0.4240   -2.1210 hc        1 HOM      0.061033
     26 HB83        2.8050    1.2180   -0.5350 hc        1 HOM      0.061033
     27 HO41        0.3880   -0.4090    5.3860 ho        1 HOM      0.425000
     28 HO11        0.8540   -1.2570   -5.4490 ho        1 HOM      0.403000
@<TRIPOS>BOND
     1    1    2 1   
     2    1    9 2   
     3    1   10 1   
     4    2   13 2   
     5    2   14 1   
     6    3    4 ar  
     7    3    8 ar  
     8    3   14 1   
     9    4    5 ar  
    10    4   17 1   
    11    5    6 ar  
    12    5   15 1   
    13    6    7 ar  
    14    6   18 1   
    15    7    8 ar  
    16    7   19 1   
    17    8    9 1   
    18    9   12 1   
    19   10   11 1   
    20   10   20 1   
    21   10   21 1   
    22   11   16 1   
    23   11   22 1   
    24   11   23 1   
    25   12   24 1   
    26   12   25 1   
    27   12   26 1   
    28   15   27 1   
    29   16   28 1   
@<TRIPOS>SUBSTRUCTURE
     1 HOM         1 TEMP              0 ****  ****    0 ROOT
