@<TRIPOS>MOLECULE
HOP
   55    57     1     0     0
SMALL
bcc


@<TRIPOS>ATOM
      1 C1         -0.0370    0.0590   -0.1450 ca        1 HOP     -0.129000
      2 C2          1.3530   -0.0510   -0.1460 ca        1 HOP     -0.128000
      3 C6         -0.7210    0.1800    1.0650 ca        1 HOP     -0.128000
      4 C5         -0.0170    0.1930    2.2680 ca        1 HOP     -0.125500
      5 C4          1.3790    0.0840    2.2740 ca        1 HOP     -0.079300
      6 C3          2.0580   -0.0380    1.0560 ca        1 HOP     -0.125500
      7 C7          2.1220    0.0970    3.5720 c3        1 HOP     -0.015400
      8 C12         3.0830    1.2750    3.6380 c3        1 HOP     -0.110400
      9 C11         3.8430    1.3010    4.9620 c3        1 HOP      0.148100
     10 C10         4.5840   -0.0230    5.2080 c3        1 HOP     -0.020400
     11 C9          3.6110   -1.1930    5.1100 c3        1 HOP     -0.075400
     12 C8          2.8820   -1.2070    3.7850 c3        1 HOP     -0.075400
     13 C13         5.2740   -0.0310    6.5360 ca        1 HOP     -0.036300
     14 C14         6.6650   -0.1760    6.5980 ca        1 HOP     -0.130000
     15 C15         7.3200   -0.1980    7.8270 ca        1 HOP     -0.090000
     16 C16         6.5900   -0.0640    9.0130 ca        1 HOP     -0.146600
     17 C17         5.2000    0.0770    8.9600 ca        1 HOP     -0.090000
     18 C18         4.5490    0.0920    7.7290 ca        1 HOP     -0.130000
     19 O19         4.8300    2.3250    4.9330 oh        1 HOP     -0.595800
     20 C20         7.3300   -0.1040   10.3050 c         1 HOP      0.671700
     21 O21         8.2980   -0.8710   10.4860 o         1 HOP     -0.606100
     22 N22         6.9370    0.7860   11.2900 ns        1 HOP     -0.568900
     23 C23         7.5250    0.7840   12.5980 c3        1 HOP      0.093000
     24 C24         6.7720   -0.0550   13.6350 c3        1 HOP     -0.110400
     25 C25         7.5000    0.0020   14.9610 c3        1 HOP     -0.177400
     26 C26         6.8290   -0.8640   15.9840 c         1 HOP      0.625100
     27 O27         6.2440   -0.4920   17.0000 o         1 HOP     -0.487000
     28 O28         6.8490   -2.2230   15.8280 oh        1 HOP     -0.581100
     29 H1         -0.5930    0.0490   -1.0940 ha        1 HOP      0.132000
     30 H2          1.8960   -0.1470   -1.0980 ha        1 HOP      0.132000
     31 H6         -1.8170    0.2660    1.0710 ha        1 HOP      0.132000
     32 H5         -0.5640    0.2880    3.2180 ha        1 HOP      0.131000
     33 H3          3.1550   -0.1250    1.0470 ha        1 HOP      0.131000
     34 H7          1.3790    0.2070    4.4150 hc        1 HOP      0.052700
     35 H121        3.8200    1.2160    2.7950 hc        1 HOP      0.053200
     36 H122        2.5130    2.2330    3.5220 hc        1 HOP      0.053200
     37 H11         3.1270    1.4960    5.8110 h1        1 HOP      0.034700
     38 H10         5.3570   -0.1270    4.3940 hc        1 HOP      0.071700
     39 H91         4.1810   -2.1510    5.2330 hc        1 HOP      0.048700
     40 H92         2.8680   -1.1340    5.9480 hc        1 HOP      0.048700
     41 H81         3.6130   -1.3570    2.9480 hc        1 HOP      0.050200
     42 H82         2.1630   -2.0660    3.7630 hc        1 HOP      0.050200
     43 H14         7.2490   -0.2690    5.6690 ha        1 HOP      0.138000
     44 H15         8.4130   -0.3290    7.8770 ha        1 HOP      0.141500
     45 H17         4.6060    0.1600    9.8820 ha        1 HOP      0.141500
     46 H18         3.4540    0.2010    7.6950 ha        1 HOP      0.138000
     47 HO9         4.3670    3.1490    4.7390 ho        1 HOP      0.401000
     48 HN2         7.3160   -2.4530   15.0130 ho        1 HOP      0.428000
     49 H231        7.5700    1.8510   12.9620 h1        1 HOP      0.063700
     50 H232        8.5810    0.3930   12.5140 h1        1 HOP      0.063700
     51 H241        6.7010   -1.1180   13.2830 hc        1 HOP      0.055700
     52 H242        5.7270    0.3290   13.7610 hc        1 HOP      0.055700
     53 H251        8.5620   -0.3400   14.8360 hc        1 HOP      0.080700
     54 H252        7.5220    1.0570   15.3450 hc        1 HOP      0.080700
     55 H222        6.1090    1.3150   11.1590 hn        1 HOP      0.311500
@<TRIPOS>BOND
     1    1    2 ar  
     2    1    3 ar  
     3    1   29 1   
     4    2    6 ar  
     5    2   30 1   
     6    3    4 ar  
     7    3   31 1   
     8    4    5 ar  
     9    4   32 1   
    10    5    6 ar  
    11    5    7 1   
    12    6   33 1   
    13    7    8 1   
    14    7   12 1   
    15    7   34 1   
    16    8    9 1   
    17    8   35 1   
    18    8   36 1   
    19    9   10 1   
    20    9   19 1   
    21    9   37 1   
    22   10   11 1   
    23   10   13 1   
    24   10   38 1   
    25   11   12 1   
    26   11   39 1   
    27   11   40 1   
    28   12   41 1   
    29   12   42 1   
    30   13   14 ar  
    31   13   18 ar  
    32   14   15 ar  
    33   14   43 1   
    34   15   16 ar  
    35   15   44 1   
    36   16   17 ar  
    37   16   20 1   
    38   17   18 ar  
    39   17   45 1   
    40   18   46 1   
    41   19   47 1   
    42   20   21 2   
    43   20   22 1   
    44   22   23 1   
    45   22   55 1   
    46   23   24 1   
    47   23   49 1   
    48   23   50 1   
    49   24   25 1   
    50   24   51 1   
    51   24   52 1   
    52   25   26 1   
    53   25   53 1   
    54   25   54 1   
    55   26   27 2   
    56   26   28 1   
    57   28   48 1   
@<TRIPOS>SUBSTRUCTURE
     1 HOP         1 TEMP              0 ****  ****    0 ROOT
