@<TRIPOS>MOLECULE
HOP
   55    57     1     0     0
SMALL
bcc


@<TRIPOS>ATOM
      1 C1         -0.0480    0.0280   -0.1380 ca        1 HOP     -0.129000
      2 C2          1.3410   -0.1010   -0.1410 ca        1 HOP     -0.128000
      3 C6         -0.7270    0.1750    1.0710 ca        1 HOP     -0.128000
      4 C5         -0.0210    0.1930    2.2730 ca        1 HOP     -0.125500
      5 C4          1.3730    0.0640    2.2780 ca        1 HOP     -0.079300
      6 C3          2.0480   -0.0830    1.0600 ca        1 HOP     -0.125500
      7 C7          2.1190    0.0840    3.5740 c3        1 HOP     -0.015400
      8 C12         3.0970    1.2480    3.6230 c3        1 HOP     -0.110400
      9 C11         3.8590    1.2800    4.9470 c3        1 HOP      0.148100
     10 C10         4.5820   -0.0520    5.2090 c3        1 HOP     -0.020400
     11 C9          3.5910   -1.2080    5.1270 c3        1 HOP     -0.075400
     12 C8          2.8600   -1.2290    3.8030 c3        1 HOP     -0.075400
     13 C13         5.2730   -0.0520    6.5360 ca        1 HOP     -0.036300
     14 C14         6.6620   -0.2180    6.5970 ca        1 HOP     -0.130000
     15 C15         7.3190   -0.2330    7.8260 ca        1 HOP     -0.090000
     16 C16         6.5920   -0.0720    9.0110 ca        1 HOP     -0.146600
     17 C17         5.2040    0.0890    8.9570 ca        1 HOP     -0.090000
     18 C18         4.5510    0.0970    7.7270 ca        1 HOP     -0.130000
     19 O19         4.8610    2.2890    4.9020 oh        1 HOP     -0.595800
     20 C20         7.3330   -0.1070   10.3020 c         1 HOP      0.671700
     21 O21         8.2890   -0.8860   10.4930 o         1 HOP     -0.605100
     22 N22         6.9560    0.8040   11.2760 n         1 HOP     -0.568900
     23 C23         7.5460    0.8110   12.5820 c3        1 HOP      0.093000
     24 C24         6.7790    0.0010   13.6330 c3        1 HOP     -0.109400
     25 C25         7.5090    0.0650   14.9570 c3        1 HOP     -0.177400
     26 C26         6.8230   -0.7730   15.9940 c         1 HOP      0.625100
     27 O27         6.2460   -0.3740   17.0050 o         1 HOP     -0.487000
     28 O28         6.8170   -2.1330   15.8600 oh        1 HOP     -0.581100
     29 H1         -0.6050    0.0140   -1.0860 ha        1 HOP      0.132000
     30 H2          1.8810   -0.2180   -1.0920 ha        1 HOP      0.132000
     31 H6         -1.8220    0.2770    1.0780 ha        1 HOP      0.132000
     32 H5         -0.5650    0.3090    3.2230 ha        1 HOP      0.131000
     33 H3          3.1440   -0.1860    1.0510 ha        1 HOP      0.131000
     34 H7          1.3790    0.2150    4.4170 hc        1 HOP      0.052700
     35 H121        3.8320    1.1670    2.7800 hc        1 HOP      0.053200
     36 H122        2.5410    2.2130    3.4960 hc        1 HOP      0.053200
     37 H11         3.1480    1.4970    5.7930 h1        1 HOP      0.034700
     38 H10         5.3520   -0.1770    4.3940 hc        1 HOP      0.071700
     39 H91         2.8500   -1.1270    5.9650 hc        1 HOP      0.048700
     40 H92         4.1470   -2.1730    5.2610 hc        1 HOP      0.048700
     41 H81         2.1280   -2.0780    3.7930 hc        1 HOP      0.050200
     42 H82         3.5870   -1.4000    2.9670 hc        1 HOP      0.050200
     43 H14         7.2430   -0.3320    5.6690 ha        1 HOP      0.138000
     44 H15         8.4090   -0.3800    7.8760 ha        1 HOP      0.141500
     45 H17         4.6140    0.1930    9.8800 ha        1 HOP      0.141500
     46 H18         3.4590    0.2220    7.6940 ha        1 HOP      0.138000
     47 HO9         4.4100    3.1170    4.6990 ho        1 HOP      0.401000
     48 HN2         7.2790   -2.3850   15.0470 ho        1 HOP      0.428000
     49 H231        7.6100    1.8820   12.9310 h1        1 HOP      0.064200
     50 H232        8.5940    0.3990   12.5030 h1        1 HOP      0.064200
     51 H241        6.6880   -1.0660   13.2970 hc        1 HOP      0.055700
     52 H242        5.7410    0.4060   13.7540 hc        1 HOP      0.055700
     53 H251        8.5650   -0.2990   14.8370 hc        1 HOP      0.080700
     54 H252        7.5510    1.1250   15.3240 hc        1 HOP      0.080700
     55 H222        6.1370    1.3440   11.1370 hn        1 HOP      0.311500
@<TRIPOS>BOND
     1    1    2 ar  
     2    1    3 ar  
     3    1   29 1   
     4    2    6 ar  
     5    2   30 1   
     6    3    4 ar  
     7    3   31 1   
     8    4    5 ar  
     9    4   32 1   
    10    5    6 ar  
    11    5    7 1   
    12    6   33 1   
    13    7    8 1   
    14    7   12 1   
    15    7   34 1   
    16    8    9 1   
    17    8   35 1   
    18    8   36 1   
    19    9   10 1   
    20    9   19 1   
    21    9   37 1   
    22   10   11 1   
    23   10   13 1   
    24   10   38 1   
    25   11   12 1   
    26   11   39 1   
    27   11   40 1   
    28   12   41 1   
    29   12   42 1   
    30   13   14 ar  
    31   13   18 ar  
    32   14   15 ar  
    33   14   43 1   
    34   15   16 ar  
    35   15   44 1   
    36   16   17 ar  
    37   16   20 1   
    38   17   18 ar  
    39   17   45 1   
    40   18   46 1   
    41   19   47 1   
    42   20   21 2   
    43   20   22 1   
    44   22   23 1   
    45   22   55 1   
    46   23   24 1   
    47   23   49 1   
    48   23   50 1   
    49   24   25 1   
    50   24   51 1   
    51   24   52 1   
    52   25   26 1   
    53   25   53 1   
    54   25   54 1   
    55   26   27 2   
    56   26   28 1   
    57   28   48 1   
@<TRIPOS>SUBSTRUCTURE
     1 HOP         1 TEMP              0 ****  ****    0 ROOT
