@<TRIPOS>MOLECULE
HOP
   54    56     1     0     0
SMALL
bcc


@<TRIPOS>ATOM
      1 C1          1.4200    0.0110    8.8690 ca        1 HOP     -0.135000
      2 C2          0.1160    0.0870    8.3800 ca        1 HOP     -0.130000
      3 C6          2.4860   -0.1170    7.9800 ca        1 HOP     -0.130000
      4 C5          2.2510   -0.1680    6.6070 ca        1 HOP     -0.126000
      5 C4          0.9450   -0.0920    6.1080 ca        1 HOP     -0.071300
      6 C3         -0.1210    0.0360    7.0080 ca        1 HOP     -0.126000
      7 C7          0.7040   -0.1500    4.6330 c3        1 HOP     -0.018400
      8 C12         0.0360    1.1230    4.1380 c3        1 HOP     -0.107400
      9 C11        -0.2080    1.0790    2.6300 c3        1 HOP      0.147100
     10 C10        -1.0110   -0.1650    2.2170 c3        1 HOP     -0.014400
     11 C9         -0.3490   -1.4250    2.7630 c3        1 HOP     -0.076400
     12 C8         -0.1460   -1.3590    4.2600 c3        1 HOP     -0.073400
     13 C13        -1.1500   -0.2580    0.7300 ca        1 HOP     -0.058300
     14 C14        -2.4210   -0.2250    0.1440 ca        1 HOP     -0.134500
     15 C15        -2.5640   -0.3230   -1.2380 ca        1 HOP     -0.094000
     16 C16        -1.4360   -0.4470   -2.0540 ca        1 HOP     -0.130600
     17 C17        -0.1640   -0.4840   -1.4760 ca        1 HOP     -0.094000
     18 C18        -0.0250   -0.3910   -0.0930 ca        1 HOP     -0.134500
     19 O19        -0.9820    2.2130    2.2550 oh        1 HOP     -0.591800
     20 C20        -1.6330   -0.5660   -3.5340 c         1 HOP      0.659700
     21 O21        -2.5850   -1.2360   -3.9940 o         1 HOP     -0.627100
     22 N22        -0.7630    0.1240   -4.3380 n         1 HOP     -0.550900
     23 C23        -0.7520    0.0050   -5.7770 c3        1 HOP      0.081000
     24 C24         0.6530    0.0730   -6.3730 c3        1 HOP     -0.084400
     25 C25         0.6010    0.0860   -7.8800 c3        1 HOP     -0.196400
     26 C26         1.9840    0.4130   -8.4770 c         1 HOP      0.909600
     27 O27         2.7320    1.2240   -7.8570 o         1 HOP     -0.849300
     28 O28         2.2920   -0.1370   -9.5720 o         1 HOP     -0.849300
     29 H1          1.6060    0.0510    9.9520 ha        1 HOP      0.128000
     30 H2         -0.7280    0.1880    9.0780 ha        1 HOP      0.128500
     31 H6          3.5160   -0.1770    8.3610 ha        1 HOP      0.128500
     32 H5          3.0980   -0.2690    5.9120 ha        1 HOP      0.133000
     33 H3         -1.1520    0.0960    6.6270 ha        1 HOP      0.133000
     34 H7          1.6980   -0.2500    4.1070 hc        1 HOP      0.054700
     35 H121        0.6810    2.0070    4.3790 hc        1 HOP      0.049700
     36 H122       -0.9450    1.2700    4.6600 hc        1 HOP      0.049700
     37 H11         0.7760    1.0890    2.0820 h1        1 HOP      0.038700
     38 H10        -2.0350   -0.0660    2.6780 hc        1 HOP      0.066700
     39 H91         0.6410   -1.5780    2.2560 hc        1 HOP      0.050200
     40 H92        -0.9930   -2.3090    2.5120 hc        1 HOP      0.050200
     41 H81         0.3590   -2.2950    4.6120 hc        1 HOP      0.045200
     42 H82        -1.1390   -1.2940    4.7780 hc        1 HOP      0.045200
     43 H14        -3.3140   -0.1150    0.7780 ha        1 HOP      0.129000
     44 H15        -3.5640   -0.3140   -1.7010 ha        1 HOP      0.147000
     45 H17         0.7340   -0.6020   -2.1030 ha        1 HOP      0.147000
     46 H18         0.9810   -0.4220    0.3520 ha        1 HOP      0.129000
     47 HO9        -0.4100    2.9820    2.3580 ho        1 HOP      0.398000
     48 HN2         0.0010    0.6030   -3.9230 hn        1 HOP      0.308500
     49 H231       -1.2460   -0.9660   -6.0680 h1        1 HOP      0.047700
     50 H232       -1.3770    0.8440   -6.2010 h1        1 HOP      0.047700
     51 H241        1.1880    1.0010   -6.0320 hc        1 HOP      0.050700
     52 H242        1.2570   -0.8050   -6.0280 hc        1 HOP      0.050700
     53 H251        0.2540   -0.9020   -8.2710 hc        1 HOP      0.025200
     54 H252       -0.1150    0.8690   -8.2380 hc        1 HOP      0.025200
@<TRIPOS>BOND
     1    1    2 ar  
     2    1    3 ar  
     3    1   29 1   
     4    2    6 ar  
     5    2   30 1   
     6    3    4 ar  
     7    3   31 1   
     8    4    5 ar  
     9    4   32 1   
    10    5    6 ar  
    11    5    7 1   
    12    6   33 1   
    13    7    8 1   
    14    7   12 1   
    15    7   34 1   
    16    8    9 1   
    17    8   35 1   
    18    8   36 1   
    19    9   10 1   
    20    9   19 1   
    21    9   37 1   
    22   10   11 1   
    23   10   13 1   
    24   10   38 1   
    25   11   12 1   
    26   11   39 1   
    27   11   40 1   
    28   12   41 1   
    29   12   42 1   
    30   13   14 ar  
    31   13   18 ar  
    32   14   15 ar  
    33   14   43 1   
    34   15   16 ar  
    35   15   44 1   
    36   16   17 ar  
    37   16   20 1   
    38   17   18 ar  
    39   17   45 1   
    40   18   46 1   
    41   19   47 1   
    42   20   21 2   
    43   20   22 1   
    44   22   23 1   
    45   22   48 1   
    46   23   24 1   
    47   23   49 1   
    48   23   50 1   
    49   24   25 1   
    50   24   51 1   
    51   24   52 1   
    52   25   26 1   
    53   25   53 1   
    54   25   54 1   
    55   26   27 1   
    56   26   28 1   
@<TRIPOS>SUBSTRUCTURE
     1 HOP         1 TEMP              0 ****  ****    0 ROOT
