@<TRIPOS>MOLECULE
HOP
   54    51     1     0     0
SMALL
bcc


@<TRIPOS>ATOM
      1 C1         -3.5230    0.5610   -7.4670 c1        1 HOP     -0.131000
      2 C2         -2.6400   -0.4780   -7.2980 c1        1 HOP     -0.131000
      3 C6         -3.6520    1.5350   -6.4770 c1        1 HOP     -0.131000
      4 C5         -2.8920    1.4540   -5.3260 c1        1 HOP     -0.124000
      5 C4         -2.0060    0.4120   -5.1570 c1        1 HOP     -0.062000
      6 C3         -1.8780   -0.5590   -6.1450 c1        1 HOP     -0.131000
      7 C7         -1.2650    0.2520   -3.8380 c3        1 HOP     -0.069000
      8 C12        -2.2740    0.2260   -2.7180 c3        1 HOP     -0.150000
      9 C11        -1.6240    0.2540   -1.3470 c3        1 HOP      0.039000
     10 C10        -0.6240    1.3940   -1.1990 c3        1 HOP     -0.102000
     11 C9          0.3940    1.4230   -2.3250 c3        1 HOP     -0.149000
     12 C8         -0.2590    1.3960   -3.6930 c3        1 HOP     -0.152000
     13 C13         0.1180    1.2390    0.1520 c2        1 HOP     -0.083000
     14 C14         0.2620    2.3420    1.0020 c2        1 HOP     -0.140000
     15 C15         0.9130    2.1980    2.2350 c1        1 HOP     -0.085000
     16 C16         1.4170    0.9550    2.6150 c1        1 HOP     -0.104000
     17 C17         1.2720   -0.1480    1.7650 c1        1 HOP     -0.104000
     18 C18         0.6220   -0.0030    0.5320 c1        1 HOP     -0.137000
     19 O19        -2.6320    0.4030   -0.3680 oh        1 HOP     -0.333000
     20 C20         2.0500    0.7700    4.0320 c2        1 HOP      0.325000
     21 O21         2.1020    1.7070    4.8000 o         1 HOP     -0.391000
     22 N22         2.5930   -0.5070    4.4170 n         1 HOP     -0.339000
     23 C23         2.5270   -0.9310    5.7970 c3        1 HOP     -0.059000
     24 C24         2.3110   -2.4330    5.8590 c3        1 HOP     -0.152000
     25 C25         2.3140   -2.8850    7.3150 c3        1 HOP     -0.227000
     26 C26         3.5910   -3.6970    7.5970 c2        1 HOP      0.324000
     27 O27         4.7120   -3.1120    7.6550 o         1 HOP     -0.585000
     28 O28         3.5320   -4.9590    7.6820 o         1 HOP     -0.585000
     29 H1         -4.0630    0.6180   -8.2850 ha        1 HOP      0.128750
     30 H2         -2.5670   -1.1630   -7.9730 ha        1 HOP      0.128750
     31 H6         -4.2770    2.2690   -6.5960 ha        1 HOP      0.128750
     32 H5         -2.9750    2.1400   -4.6380 ha        1 HOP      0.134000
     33 H3         -1.1710   -1.2440   -6.0720 ha        1 HOP      0.128750
     34 H7         -0.7810   -0.5950   -3.8470 hc        1 HOP      0.094000
     35 H121       -2.8660    1.0110   -2.8050 hc        1 HOP      0.096000
     36 H122       -2.8220   -0.6030   -2.7980 hc        1 HOP      0.096000
     37 H11        -1.1580   -0.5990   -1.1980 h1        1 HOP      0.076000
     38 H10        -1.1100    2.2360   -1.1950 hc        1 HOP      0.102000
     39 H91         0.9260    2.2310   -2.2470 hc        1 HOP      0.089000
     40 H92         0.9850    0.6440   -2.2390 hc        1 HOP      0.089000
     41 H81         0.4440    1.2930   -4.3810 hc        1 HOP      0.084000
     42 H82        -0.7160    2.2330   -3.8360 hc        1 HOP      0.084000
     43 H14        -0.0930    3.2130    0.7350 ha        1 HOP      0.130000
     44 H15         1.0130    2.9700    2.8290 ha        1 HOP      0.154000
     45 H17         1.6240   -1.0160    2.0300 ha        1 HOP      0.146000
     46 H18         0.5210   -0.7660   -0.0540 ha        1 HOP      0.131000
     47 HO9        -2.8570   -0.4070   -0.0420 ho        1 HOP      0.211000
     48 HN2         3.0360   -1.0120    3.8100 hn        1 HOP      0.222000
     49 H231        1.7840   -0.4770    6.2410 h1        1 HOP      0.129000
     50 H232        3.3680   -0.7020    6.2500 h1        1 HOP      0.129000
     51 H241        3.0290   -2.8850    5.3760 hc        1 HOP      0.062000
     52 H242        1.4510   -2.6560    5.4490 hc        1 HOP      0.062000
     53 H251        1.5240   -3.4440    7.4870 hc        1 HOP      0.066000
     54 H252        2.2910   -2.0970    7.9020 hc        1 HOP      0.066000
@<TRIPOS>BOND
     1    1    3 1   
     2    1   29 1   
     3    2    6 1   
     4    2   30 1   
     5    3   31 1   
     6    4    5 1   
     7    4   32 1   
     8    5    7 1   
     9    6   33 1   
    10    7    8 1   
    11    7   12 1   
    12    7   34 1   
    13    8    9 1   
    14    8   35 1   
    15    8   36 1   
    16    9   10 1   
    17    9   19 1   
    18    9   37 1   
    19   10   11 1   
    20   10   13 1   
    21   10   38 1   
    22   11   12 1   
    23   11   39 1   
    24   11   40 1   
    25   12   41 1   
    26   12   42 1   
    27   13   14 1   
    28   13   18 1   
    29   14   15 1   
    30   14   43 1   
    31   15   44 1   
    32   16   17 1   
    33   16   20 1   
    34   17   45 1   
    35   18   46 1   
    36   19   47 1   
    37   20   21 1   
    38   20   22 1   
    39   22   23 1   
    40   22   48 1   
    41   23   24 1   
    42   23   49 1   
    43   23   50 1   
    44   24   25 1   
    45   24   51 1   
    46   24   52 1   
    47   25   26 1   
    48   25   53 1   
    49   25   54 1   
    50   26   27 1   
    51   26   28 1   
@<TRIPOS>SUBSTRUCTURE
     1 HOP         1 TEMP              0 ****  ****    0 ROOT
