@<TRIPOS>MOLECULE
HOQ
   35    35     1     0     0
SMALL
bcc


@<TRIPOS>ATOM
      1 C1         -0.0620    0.0650    0.2500 c         1 HOQ      0.918600
      2 O1         -0.5690   -1.0490    0.5780 o         1 HOQ     -0.852800
      3 OXT        -0.7410    1.1270    0.1430 o         1 HOQ     -0.852800
      4 C2          1.4760    0.1640    0.0290 c3        1 HOQ     -0.189700
      5 C21         2.1430    0.1610    1.4190 c3        1 HOQ      0.167800
      6 O22         3.4830    0.6430    1.2430 oh        1 HOQ     -0.610800
      7 C3          1.9610   -0.9550   -0.8930 c3        1 HOQ      0.325600
      8 S4          1.4020   -0.6100   -2.6160 ss        1 HOQ     -0.461200
      9 C5          3.0560   -0.8110   -3.3550 c3        1 HOQ      0.098100
     10 C51         3.2780    0.2680   -4.3840 c3        1 HOQ     -0.075600
     11 C52         3.1560   -2.1790   -3.9810 c3        1 HOQ     -0.075600
     12 C6          4.0030   -0.6350   -2.1520 c3        1 HOQ      0.057500
     13 C8          5.4710   -1.1070   -2.3950 c         1 HOQ      0.930600
     14 O81         6.1940   -1.3790   -1.3960 o         1 HOQ     -0.854800
     15 O82         5.9130   -1.1060   -3.5830 o         1 HOQ     -0.854800
     16 N7          3.3810   -1.2560   -0.9820 n3        1 HOQ     -0.808200
     17 C9          2.1360   -1.2220    2.0590 c3        1 HOQ     -0.123600
     18 C10         1.4190    1.1440    2.3410 c3        1 HOQ     -0.123600
     19 H2          1.6980    1.1570   -0.4470 hc        1 HOQ      0.069700
     20 HOM         3.9900    0.3460    2.0050 ho        1 HOQ      0.375000
     21 H3          1.4350   -1.9020   -0.5840 h2        1 HOQ      0.088700
     22 H511        3.0700    1.2770   -3.9530 hc        1 HOQ      0.035033
     23 H512        4.3480    0.2260   -4.7170 hc        1 HOQ      0.035033
     24 H513        2.6110    0.1150   -5.2660 hc        1 HOQ      0.035033
     25 H521        2.4090   -2.2870   -4.8050 hc        1 HOQ      0.035033
     26 H522        2.9660   -2.9710   -3.2180 hc        1 HOQ      0.035033
     27 H523        4.1870   -2.3210   -4.3960 hc        1 HOQ      0.035033
     28 H6          4.1120    0.4860   -1.9900 h1        1 HOQ      0.017700
     29 HN7         3.8850   -0.9780   -0.1600 hn        1 HOQ      0.386800
     30 H91         2.3530   -1.1450    3.1520 hc        1 HOQ      0.039367
     31 H92         1.1230   -1.6760    1.9090 hc        1 HOQ      0.039367
     32 H93         2.9030   -1.8850    1.5950 hc        1 HOQ      0.039367
     33 H101        1.9930    1.2790    3.2880 hc        1 HOQ      0.039367
     34 H102        1.3160    2.1300    1.8300 hc        1 HOQ      0.039367
     35 H103        0.3970    0.7570    2.5710 hc        1 HOQ      0.039367
@<TRIPOS>BOND
     1    1    2 1   
     2    1    3 1   
     3    1    4 1   
     4    4    5 1   
     5    4    7 1   
     6    4   19 1   
     7    5    6 1   
     8    5   17 1   
     9    5   18 1   
    10    6   20 1   
    11    7    8 1   
    12    7   16 1   
    13    7   21 1   
    14    8    9 1   
    15    9   10 1   
    16    9   11 1   
    17    9   12 1   
    18   10   22 1   
    19   10   23 1   
    20   10   24 1   
    21   11   25 1   
    22   11   26 1   
    23   11   27 1   
    24   12   13 1   
    25   12   16 1   
    26   12   28 1   
    27   13   14 1   
    28   13   15 1   
    29   16   29 1   
    30   17   30 1   
    31   17   31 1   
    32   17   32 1   
    33   18   33 1   
    34   18   34 1   
    35   18   35 1   
@<TRIPOS>SUBSTRUCTURE
     1 HOQ         1 TEMP              0 ****  ****    0 ROOT
