@<TRIPOS>MOLECULE
HOQ
   35    35     1     0     0
SMALL
bcc


@<TRIPOS>ATOM
      1 C1         -0.0590    0.0890    0.2560 c         1 HOQ      0.918600
      2 O1         -0.5800   -1.0220    0.5710 o         1 HOQ     -0.852800
      3 OXT        -0.7240    1.1600    0.1610 o         1 HOQ     -0.852800
      4 C2          1.4800    0.1700    0.0350 c3        1 HOQ     -0.189700
      5 C21         2.1470    0.1430    1.4240 c3        1 HOQ      0.167800
      6 O22         3.4940    0.6090    1.2520 oh        1 HOQ     -0.610800
      7 C3          1.9500   -0.9450   -0.9000 c3        1 HOQ      0.325600
      8 S4          1.3950   -0.5740   -2.6180 ss        1 HOQ     -0.461200
      9 C5          3.0450   -0.7880   -3.3610 c3        1 HOQ      0.098100
     10 C51         3.2810    0.3000   -4.3770 c3        1 HOQ     -0.075600
     11 C52         3.1270   -2.1500   -4.0030 c3        1 HOQ     -0.075600
     12 C6          3.9950   -0.6380   -2.1560 c3        1 HOQ      0.057500
     13 C8          5.4570   -1.1260   -2.4050 c         1 HOQ      0.930600
     14 O81         6.1770   -1.4190   -1.4100 o         1 HOQ     -0.854800
     15 O82         5.8980   -1.1180   -3.5930 o         1 HOQ     -0.854800
     16 N7          3.3650   -1.2640   -0.9930 n3        1 HOQ     -0.808200
     17 C9          2.1230   -1.2470    2.0490 c3        1 HOQ     -0.123600
     18 C10         1.4370    1.1250    2.3570 c3        1 HOQ     -0.123600
     19 H2          1.7150    1.1650   -0.4310 hc        1 HOQ      0.069700
     20 HOM         3.9970    0.2970    2.0110 ho        1 HOQ      0.375000
     21 H3          1.4110   -1.8890   -0.6010 h2        1 HOQ      0.088700
     22 H511        3.0860    1.3060   -3.9350 hc        1 HOQ      0.035033
     23 H512        4.3490    0.2470   -4.7120 hc        1 HOQ      0.035033
     24 H513        2.6110    0.1650   -5.2610 hc        1 HOQ      0.035033
     25 H521        4.1560   -2.3010   -4.4200 hc        1 HOQ      0.035033
     26 H522        2.9270   -2.9490   -3.2480 hc        1 HOQ      0.035033
     27 H523        2.3780   -2.2390   -4.8270 hc        1 HOQ      0.035033
     28 H6          4.1190    0.4790   -1.9820 h1        1 HOQ      0.017700
     29 HN7         3.8730   -1.0020   -0.1680 hn        1 HOQ      0.386800
     30 H91         2.8800   -1.9150    1.5770 hc        1 HOQ      0.039367
     31 H92         1.1030   -1.6850    1.8950 hc        1 HOQ      0.039367
     32 H93         2.3410   -1.1840    3.1430 hc        1 HOQ      0.039367
     33 H101        0.4100    0.7500    2.5830 hc        1 HOQ      0.039367
     34 H102        2.0140    1.2420    3.3060 hc        1 HOQ      0.039367
     35 H103        1.3480    2.1190    1.8570 hc        1 HOQ      0.039367
@<TRIPOS>BOND
     1    1    2 1   
     2    1    3 1   
     3    1    4 1   
     4    4    5 1   
     5    4    7 1   
     6    4   19 1   
     7    5    6 1   
     8    5   17 1   
     9    5   18 1   
    10    6   20 1   
    11    7    8 1   
    12    7   16 1   
    13    7   21 1   
    14    8    9 1   
    15    9   10 1   
    16    9   11 1   
    17    9   12 1   
    18   10   22 1   
    19   10   23 1   
    20   10   24 1   
    21   11   25 1   
    22   11   26 1   
    23   11   27 1   
    24   12   13 1   
    25   12   16 1   
    26   12   28 1   
    27   13   14 1   
    28   13   15 1   
    29   16   29 1   
    30   17   30 1   
    31   17   31 1   
    32   17   32 1   
    33   18   33 1   
    34   18   34 1   
    35   18   35 1   
@<TRIPOS>SUBSTRUCTURE
     1 HOQ         1 TEMP              0 ****  ****    0 ROOT
