@<TRIPOS>MOLECULE
HOQ
   35    35     1     0     0
SMALL
bcc


@<TRIPOS>ATOM
      1 C1         -0.0530    0.0970    0.2660 c         1 HOQ      0.918600
      2 O1         -0.5760   -1.0110    0.5860 o         1 HOQ     -0.852800
      3 OXT        -0.7150    1.1700    0.1710 o         1 HOQ     -0.852800
      4 C2          1.4850    0.1740    0.0380 c3        1 HOQ     -0.189700
      5 C21         2.1580    0.1470    1.4250 c3        1 HOQ      0.167800
      6 O22         3.5050    0.6100    1.2470 oh        1 HOQ     -0.610800
      7 C3          1.9480   -0.9450   -0.8950 c3        1 HOQ      0.325600
      8 S4          1.3870   -0.5770   -2.6130 ss        1 HOQ     -0.461200
      9 C5          3.0340   -0.7970   -3.3610 c3        1 HOQ      0.098100
     10 C51         3.2690    0.2870   -4.3810 c3        1 HOQ     -0.075600
     11 C52         3.1100   -2.1610   -3.9990 c3        1 HOQ     -0.075600
     12 C6          3.9900   -0.6460   -2.1600 c3        1 HOQ      0.057500
     13 C8          5.4490   -1.1390   -2.4140 c         1 HOQ      0.930600
     14 O81         6.1720   -1.4310   -1.4210 o         1 HOQ     -0.854800
     15 O82         5.8860   -1.1350   -3.6040 o         1 HOQ     -0.854800
     16 N7          3.3620   -1.2680   -0.9930 n7        1 HOQ     -0.808200
     17 C9          2.1320   -1.2400    2.0540 c3        1 HOQ     -0.123600
     18 C10         1.4540    1.1340    2.3590 c3        1 HOQ     -0.123600
     19 H2          1.7210    1.1670   -0.4300 hc        1 HOQ      0.069700
     20 HOM         4.0110    0.2980    2.0040 ho        1 HOQ      0.375000
     21 H3          1.4090   -1.8860   -0.5920 h2        1 HOQ      0.088700
     22 H511        3.0790    1.2950   -3.9410 hc        1 HOQ      0.035033
     23 H512        4.3360    0.2310   -4.7200 hc        1 HOQ      0.035033
     24 H513        2.5960    0.1520   -5.2620 hc        1 HOQ      0.035033
     25 H521        2.3580   -2.2500   -4.8210 hc        1 HOQ      0.035033
     26 H522        4.1370   -2.3160   -4.4200 hc        1 HOQ      0.035033
     27 H523        2.9110   -2.9570   -3.2430 hc        1 HOQ      0.035033
     28 H6          4.1170    0.4710   -1.9900 h1        1 HOQ      0.017700
     29 HN7         3.8750   -1.0050   -0.1710 hn        1 HOQ      0.386800
     30 H91         2.8860   -1.9120    1.5800 hc        1 HOQ      0.039367
     31 H92         1.1110   -1.6770    1.9040 hc        1 HOQ      0.039367
     32 H93         2.3550   -1.1760    3.1460 hc        1 HOQ      0.039367
     33 H101        1.3650    2.1260    1.8570 hc        1 HOQ      0.039367
     34 H102        2.0340    1.2520    3.3050 hc        1 HOQ      0.039367
     35 H103        0.4270    0.7620    2.5900 hc        1 HOQ      0.039367
@<TRIPOS>BOND
     1    1    2 1   
     2    1    3 1   
     3    1    4 1   
     4    4    5 1   
     5    4    7 1   
     6    4   19 1   
     7    5    6 1   
     8    5   17 1   
     9    5   18 1   
    10    6   20 1   
    11    7    8 1   
    12    7   16 1   
    13    7   21 1   
    14    8    9 1   
    15    9   10 1   
    16    9   11 1   
    17    9   12 1   
    18   10   22 1   
    19   10   23 1   
    20   10   24 1   
    21   11   25 1   
    22   11   26 1   
    23   11   27 1   
    24   12   13 1   
    25   12   16 1   
    26   12   28 1   
    27   13   14 1   
    28   13   15 1   
    29   16   29 1   
    30   17   30 1   
    31   17   31 1   
    32   17   32 1   
    33   18   33 1   
    34   18   34 1   
    35   18   35 1   
@<TRIPOS>SUBSTRUCTURE
     1 HOQ         1 TEMP              0 ****  ****    0 ROOT
