@<TRIPOS>MOLECULE
HOQ
   35    35     1     0     0
SMALL
bcc


@<TRIPOS>ATOM
      1 C1         -2.9250    2.6930    5.4480 c         1 HOQ      0.917600
      2 O1         -2.2280    3.4830    6.1510 o         1 HOQ     -0.853800
      3 OXT        -4.0030    2.1720    5.8580 o         1 HOQ     -0.853800
      4 C2         -2.4740    2.3770    3.9910 c3        1 HOQ     -0.194700
      5 C21        -2.9100    3.5500    3.0910 c3        1 HOQ      0.188800
      6 O22        -2.9290    3.1820    1.7090 oh        1 HOQ     -0.650800
      7 C3         -0.9720    2.0830    3.9790 c3        1 HOQ      0.326600
      8 S4         -0.7040    0.3850    4.6750 ss        1 HOQ     -0.475200
      9 C5          0.1290   -0.2550    3.2080 c3        1 HOQ      0.053100
     10 C51        -0.5130   -1.5490    2.7720 c3        1 HOQ     -0.072600
     11 C52         1.5890   -0.4710    3.5330 c3        1 HOQ     -0.072600
     12 C6         -0.0600    0.8320    2.1150 c3        1 HOQ      0.045500
     13 C8          1.1530    0.8010    1.1290 c         1 HOQ      0.920600
     14 O81         2.1050    1.6160    1.2940 o         1 HOQ     -0.847800
     15 O82         1.1150   -0.0670    0.2100 o         1 HOQ     -0.847800
     16 N7         -0.3080    2.1420    2.6930 n3        1 HOQ     -0.813200
     17 C9         -2.0270    4.7780    3.2890 c3        1 HOQ     -0.101100
     18 C10        -4.3630    3.9140    3.4090 c3        1 HOQ     -0.101100
     19 H2         -3.0300    1.4660    3.6430 hc        1 HOQ      0.066700
     20 HOM        -2.0720    2.7900    1.5050 ho        1 HOQ      0.427000
     21 H3         -0.4920    2.7900    4.7140 h2        1 HOQ      0.091700
     22 H511       -0.2810   -2.3680    3.4950 hc        1 HOQ      0.033867
     23 H512       -1.6220   -1.4350    2.7060 hc        1 HOQ      0.033867
     24 H513       -0.1170   -1.8300    1.7620 hc        1 HOQ      0.033867
     25 H521        2.0910    0.5110    3.7130 hc        1 HOQ      0.033867
     26 H522        1.7000   -1.1140    4.4390 hc        1 HOQ      0.033867
     27 H523        2.1000   -0.9640    2.6680 hc        1 HOQ      0.033867
     28 H6         -0.9810    0.5640    1.5180 h1        1 HOQ      0.057700
     29 HN7         0.5640    2.6420    2.7640 hn        1 HOQ      0.379800
     30 H91        -1.0570    4.6600    2.7530 hc        1 HOQ      0.034700
     31 H92        -2.5360    5.6860    2.8870 hc        1 HOQ      0.034700
     32 H93        -1.8330    4.9100    4.3830 hc        1 HOQ      0.034700
     33 H101       -4.9870    2.9900    3.4350 hc        1 HOQ      0.034700
     34 H102       -4.7630    4.6080    2.6320 hc        1 HOQ      0.034700
     35 H103       -4.4080    4.4010    4.4120 hc        1 HOQ      0.034700
@<TRIPOS>BOND
     1    1    2 1   
     2    1    3 1   
     3    1    4 1   
     4    4    5 1   
     5    4    7 1   
     6    4   19 1   
     7    5    6 1   
     8    5   17 1   
     9    5   18 1   
    10    6   20 1   
    11    7    8 1   
    12    7   16 1   
    13    7   21 1   
    14    8    9 1   
    15    9   10 1   
    16    9   11 1   
    17    9   12 1   
    18   10   22 1   
    19   10   23 1   
    20   10   24 1   
    21   11   25 1   
    22   11   26 1   
    23   11   27 1   
    24   12   13 1   
    25   12   16 1   
    26   12   28 1   
    27   13   14 1   
    28   13   15 1   
    29   16   29 1   
    30   17   30 1   
    31   17   31 1   
    32   17   32 1   
    33   18   33 1   
    34   18   34 1   
    35   18   35 1   
@<TRIPOS>SUBSTRUCTURE
     1 HOQ         1 TEMP              0 ****  ****    0 ROOT
