@<TRIPOS>MOLECULE
HOX
   24    24     1     0     0
SMALL
bcc


@<TRIPOS>ATOM
      1 O           4.0690   -0.5480   -0.3110 o         1 HOX     -0.842300
      2 C           3.1350    0.2610   -0.0440 c         1 HOX      0.886600
      3 N           1.5490   -1.5080   -0.9520 n3        1 HOX     -0.886800
      4 OXT         3.3000    1.4030    0.4670 o         1 HOX     -0.842300
      5 CA          1.6690   -0.1670   -0.3960 c3        1 HOX      0.023500
      6 CB          0.8010    0.0510    0.8490 c3        1 HOX     -0.033100
      7 CG         -0.6530    0.0820    0.5430 ca        1 HOX     -0.056300
      8 CZ         -3.4200    0.1680   -0.0420 ca        1 HOX      0.077600
      9 NZ         -4.8130    0.2420   -0.2660 nh        1 HOX     -0.799200
     10 CD1        -1.2180    1.1960   -0.0920 ca        1 HOX     -0.103000
     11 CD2        -1.4900   -0.9870    0.8810 ca        1 HOX     -0.103000
     12 CE1        -2.5750    1.2460   -0.3850 ca        1 HOX     -0.180000
     13 CE2        -2.8500   -0.9550    0.5950 ca        1 HOX     -0.180000
     14 HN          2.2940   -1.6170   -1.6220 hn        1 HOX      0.329800
     15 HNA         1.7330   -2.1730   -0.2210 hn        1 HOX      0.329800
     16 HA          1.3150    0.5460   -1.1970 h1        1 HOX      0.043700
     17 HB          1.0180   -0.7430    1.6110 hc        1 HOX      0.058700
     18 HBA         1.1150    1.0390    1.2910 hc        1 HOX      0.058700
     19 HNZ        -5.2200   -0.6630   -0.3880 hn        1 HOX      0.359800
     20 HNZA       -5.0360    0.8370   -1.0380 hn        1 HOX      0.359800
     21 HD1        -0.5660    2.0400   -0.3680 ha        1 HOX      0.134000
     22 HD2        -1.0600   -1.8760    1.3680 ha        1 HOX      0.134000
     23 HE1        -2.9880    2.1340   -0.8840 ha        1 HOX      0.115000
     24 HE2        -3.4810   -1.8130    0.8700 ha        1 HOX      0.115000
@<TRIPOS>BOND
     1    1    2 1   
     2    2    4 1   
     3    2    5 1   
     4    3    5 1   
     5    3   14 1   
     6    3   15 1   
     7    5    6 1   
     8    5   16 1   
     9    6    7 1   
    10    6   17 1   
    11    6   18 1   
    12    7   10 ar  
    13    7   11 ar  
    14    8    9 1   
    15    8   12 ar  
    16    8   13 ar  
    17    9   19 1   
    18    9   20 1   
    19   10   12 ar  
    20   10   21 1   
    21   11   13 ar  
    22   11   22 1   
    23   12   23 1   
    24   13   24 1   
@<TRIPOS>SUBSTRUCTURE
     1 HOX         1 TEMP              0 ****  ****    0 ROOT
