@<TRIPOS>MOLECULE
HOZ
   22    21     1     0     0
SMALL
bcc


@<TRIPOS>ATOM
      1 N          -0.0190   -0.0890    0.7250 n8        1 HOZ     -0.956800
      2 CA          1.3110   -0.1540    0.1620 c3        1 HOZ      0.156500
      3 C           2.3540   -0.4630    1.2760 c3        1 HOZ      0.094800
      4 N1          1.9360   -1.5870    2.1590 nz        1 HOZ     -0.826600
      5 CB          1.8170    1.1080   -0.5470 c3        1 HOZ     -0.111400
      6 CG          1.0340    1.3970   -1.8100 c3        1 HOZ     -0.182400
      7 CD          1.6480    2.5630   -2.5360 c         1 HOZ      0.623100
      8 OE1         1.0520    3.0310   -3.6660 oh        1 HOZ     -0.551100
      9 OE2         2.6710    3.1630   -2.2120 o         1 HOZ     -0.472000
     10 HN1        -0.7130   -0.3460    0.0510 hn        1 HOZ      0.388300
     11 HN2        -0.2250    0.8220    1.0870 hn        1 HOZ      0.388300
     12 HA          1.3380   -1.0110   -0.5790 h1        1 HOZ      0.076700
     13 H1          2.5060    0.4480    1.9240 hx        1 HOZ      0.114700
     14 H2          3.3330   -0.7390    0.7890 hx        1 HOZ      0.114700
     15 HN11        1.7460   -2.4220    1.5970 hn        1 HOZ      0.464800
     16 HN12        2.6730   -1.7950    2.8390 hn        1 HOZ      0.464800
     17 HB1         2.9010    0.9770   -0.8150 hc        1 HOZ      0.084200
     18 HB2         1.7560    1.9950    0.1380 hc        1 HOZ      0.084200
     19 HG1        -0.0340    1.6400   -1.5700 hc        1 HOZ      0.076200
     20 HG2         1.0420    0.5060   -2.4940 hc        1 HOZ      0.076200
     21 HN3         0.2580    2.5160   -3.8690 ho        1 HOZ      0.431000
     22 H13         1.0730   -1.3350    2.6600 hn        1 HOZ      0.464800
@<TRIPOS>BOND
     1    1    2 1   
     2    1   10 1   
     3    1   11 1   
     4    2    3 1   
     5    2    5 1   
     6    2   12 1   
     7    3    4 1   
     8    3   13 1   
     9    3   14 1   
    10    4   15 1   
    11    4   16 1   
    12    4   22 1   
    13    5    6 1   
    14    5   17 1   
    15    5   18 1   
    16    6    7 1   
    17    6   19 1   
    18    6   20 1   
    19    7    8 1   
    20    7    9 2   
    21    8   21 1   
@<TRIPOS>SUBSTRUCTURE
     1 HOZ         1 TEMP              0 ****  ****    0 ROOT
