@<TRIPOS>MOLECULE
HOZ
   20    19     1     0     0
SMALL
bcc


@<TRIPOS>ATOM
      1 N          -1.8250   -0.1500    0.6630 n3        1 HOZ     -0.911800
      2 CA         -0.4450   -0.3800    0.4040 c3        1 HOZ      0.169500
      3 C           0.2880   -0.5750    1.7110 c3        1 HOZ      0.147800
      4 N1          0.2460   -1.9520    2.0790 n3        1 HOZ     -0.914800
      5 CB          0.1360    0.8080   -0.3270 c3        1 HOZ     -0.071400
      6 CG          0.3560    0.4480   -1.7800 c3        1 HOZ     -0.202400
      7 CD          0.8080    1.6760   -2.5400 c         1 HOZ      0.909600
      8 OE1         2.0320    1.9610   -2.6060 o         1 HOZ     -0.850300
      9 OE2        -0.0410    2.4120   -3.1080 o         1 HOZ     -0.850300
     10 HN1        -2.2580    0.0280   -0.1240 hn        1 HOZ      0.344800
     11 HN2        -2.1910   -0.8940    1.0520 hn        1 HOZ      0.344800
     12 HA         -0.3470   -1.1820   -0.1470 h1        1 HOZ     -0.001300
     13 H1          1.2200   -0.2920    1.6090 h1        1 HOZ      0.034200
     14 H2         -0.1420   -0.0380    2.4090 h1        1 HOZ      0.034200
     15 HN11        1.0670   -2.3320    1.9330 hn        1 HOZ      0.331800
     16 HN12        0.0290   -2.0250    2.9660 hn        1 HOZ      0.331800
     17 HB1        -0.4850    1.5620   -0.2680 hc        1 HOZ      0.055700
     18 HB2         0.9890    1.0560    0.0810 hc        1 HOZ      0.055700
     19 HG1        -0.4800    0.1160   -2.1640 hc        1 HOZ      0.020200
     20 HG2         1.0430   -0.2450   -1.8430 hc        1 HOZ      0.020200
@<TRIPOS>BOND
     1    1    2 1   
     2    1   10 1   
     3    1   11 1   
     4    2    3 1   
     5    2    5 1   
     6    2   12 1   
     7    3    4 1   
     8    3   13 1   
     9    3   14 1   
    10    4   15 1   
    11    4   16 1   
    12    5    6 1   
    13    5   17 1   
    14    5   18 1   
    15    6    7 1   
    16    6   19 1   
    17    6   20 1   
    18    7    8 1   
    19    7    9 1   
@<TRIPOS>SUBSTRUCTURE
     1 HOZ         1 TEMP              0 ****  ****    0 ROOT
