@<TRIPOS>MOLECULE
HOZ
   20    19     1     0     0
SMALL
bcc


@<TRIPOS>ATOM
      1 N           1.7290   -1.1870    0.9660 n3        1 HOZ     -0.911800
      2 CA          1.4580   -0.2440   -0.1100 c3        1 HOZ      0.110500
      3 C           2.5310    0.8770   -0.1560 c3        1 HOZ      0.149800
      4 N1          3.9090    0.4550   -0.1650 n3        1 HOZ     -0.901800
      5 CB          0.0760    0.4200   -0.0650 c3        1 HOZ     -0.096400
      6 CG         -1.0450   -0.5450   -0.3590 c3        1 HOZ     -0.200400
      7 CD         -2.4110    0.0730   -0.0010 c         1 HOZ      0.909600
      8 OE1        -2.5430    0.6080    1.1390 o         1 HOZ     -0.848800
      9 OE2        -3.3360   -0.0050   -0.8580 o         1 HOZ     -0.848800
     10 HN1         1.6190   -0.7250    1.8500 hn        1 HOZ      0.342800
     11 HN2         1.0560   -1.9300    0.9260 hn        1 HOZ      0.342800
     12 HA          1.5310   -0.8330   -1.0730 h1        1 HOZ      0.043700
     13 H1          2.3760    1.5640    0.7220 h1        1 HOZ      0.046700
     14 H2          2.3470    1.4720   -1.0950 h1        1 HOZ      0.046700
     15 HN11        4.1470    0.0260    0.7100 hn        1 HOZ      0.337800
     16 HN12        4.0520   -0.2290   -0.8840 hn        1 HOZ      0.337800
     17 HB1        -0.1010    0.8830    0.9440 hc        1 HOZ      0.051200
     18 HB2         0.0510    1.2490   -0.8180 hc        1 HOZ      0.051200
     19 HG1        -1.0390   -0.8340   -1.4400 hc        1 HOZ      0.018700
     20 HG2        -0.9380   -1.4810    0.2460 hc        1 HOZ      0.018700
@<TRIPOS>BOND
     1    1    2 1   
     2    1   10 1   
     3    1   11 1   
     4    2    3 1   
     5    2    5 1   
     6    2   12 1   
     7    3    4 1   
     8    3   13 1   
     9    3   14 1   
    10    4   15 1   
    11    4   16 1   
    12    5    6 1   
    13    5   17 1   
    14    5   18 1   
    15    6    7 1   
    16    6   19 1   
    17    6   20 1   
    18    7    8 1   
    19    7    9 1   
@<TRIPOS>SUBSTRUCTURE
     1 HOZ         1 TEMP              0 ****  ****    0 ROOT
