@<TRIPOS>MOLECULE
HOZ
   22    21     1     0     0
SMALL
bcc


@<TRIPOS>ATOM
      1 N          -0.6920   -0.1840    0.7530 n3        1 HOZ     -0.922800
      2 CA          0.6680    0.0490    0.3370 c3        1 HOZ      0.172500
      3 C           1.6210   -0.4430    1.4700 c3        1 HOZ      0.094800
      4 N1          2.9740   -0.7820    0.9560 n4        1 HOZ     -0.834600
      5 CB          1.0250    1.5000   -0.0440 c3        1 HOZ     -0.120400
      6 CG          1.0920    1.6990   -1.5440 c3        1 HOZ     -0.189400
      7 CD          2.2740    1.0060   -2.1550 c         1 HOZ      0.660100
      8 OE1         2.5720    1.1760   -3.4620 oh        1 HOZ     -0.533100
      9 OE2         3.0540    0.2410   -1.5660 o         1 HOZ     -0.600000
     10 HN1         1.9430    1.7870   -3.8810 ho        1 HOZ      0.451000
     11 HN2        -1.0130    0.4940    1.4150 hn        1 HOZ      0.386300
     12 HA          0.8490   -0.6070   -0.5720 h1        1 HOZ      0.077700
     13 H1          1.7320    0.3570    2.2550 hx        1 HOZ      0.115700
     14 H2          1.1950   -1.3720    1.9530 hx        1 HOZ      0.115700
     15 HN11        3.5660   -1.1330    1.7120 hn        1 HOZ      0.468133
     16 HN12        2.9040   -1.4910    0.2140 hn        1 HOZ      0.468133
     17 HB1         0.2650    2.2140    0.3760 hc        1 HOZ      0.068200
     18 HB2         2.0130    1.7920    0.4010 hc        1 HOZ      0.068200
     19 HG1         0.1580    1.3120   -2.0350 hc        1 HOZ      0.099200
     20 HG2         1.1630    2.7990   -1.7710 hc        1 HOZ      0.099200
     21 HN3        -1.3140   -0.2370   -0.0280 hn        1 HOZ      0.386300
     22 H13         3.4110    0.0490    0.5250 hn        1 HOZ      0.468133
@<TRIPOS>BOND
     1    1    2 1   
     2    1   11 1   
     3    1   21 1   
     4    2    3 1   
     5    2    5 1   
     6    2   12 1   
     7    3    4 1   
     8    3   13 1   
     9    3   14 1   
    10    4   15 1   
    11    4   16 1   
    12    4   22 1   
    13    5    6 1   
    14    5   17 1   
    15    5   18 1   
    16    6    7 1   
    17    6   19 1   
    18    6   20 1   
    19    7    8 1   
    20    7    9 2   
    21    8   10 1   
@<TRIPOS>SUBSTRUCTURE
     1 HOZ         1 TEMP              0 ****  ****    0 ROOT
