@<TRIPOS>MOLECULE
HP0
   54    54     1     0     0
SMALL
bcc


@<TRIPOS>ATOM
      1 C1         -0.1670    1.2520    0.9160 c3        1 HP0     -0.005000
      2 O1         -1.5510    1.3660    0.6920 oh        1 HP0     -0.355000
      3 C2          0.0840    0.9580    2.3790 c3        1 HP0     -0.032000
      4 N           1.4230    1.3080    2.7090 n3        1 HP0     -0.339000
      5 C3         -0.8710    1.7650    3.2260 c3        1 HP0     -0.121000
      6 C4         -0.7940    1.2940    4.6620 c2        1 HP0     -0.047000
      7 C5         -0.1080    2.0500    5.6020 c1        1 HP0     -0.108000
      8 C6         -1.5030    0.1720    5.0610 c2        1 HP0     -0.131000
      9 C7         -0.1330    1.6830    6.9380 c1        1 HP0     -0.141500
     10 C8         -1.5270   -0.1950    6.3970 c1        1 HP0     -0.139000
     11 C9         -0.8420    0.5610    7.3360 c1        1 HP0     -0.141500
     12 N2         -0.3230    0.0620   -1.1600 n3        1 HP0     -0.245000
     13 C10         0.3880    0.1270    0.0730 c3        1 HP0     -0.120000
     14 C11        -0.9550   -1.3180   -1.3100 c3        1 HP0     -0.102000
     15 C           0.0330   -2.3950   -1.0550 c2        1 HP0      0.314000
     16 O           1.2640   -2.1380   -1.0840 o         1 HP0     -0.575500
     17 C13        -1.6160   -1.4310   -2.7160 c3        1 HP0     -0.132000
     18 C14        -0.6830   -1.0550   -3.8420 c3        1 HP0     -0.081000
     19 C15         0.3860   -2.1850   -3.9810 c3        1 HP0     -0.174000
     20 C16         1.4420   -1.8670   -5.0380 c3        1 HP0     -0.146000
     21 C17         2.0650   -0.5140   -4.8440 c3        1 HP0     -0.153000
     22 C18         1.0240    0.5990   -4.7170 c3        1 HP0     -0.145000
     23 C19        -0.0600    0.2850   -3.6390 c3        1 HP0     -0.092000
     24 C20         0.5860    0.4280   -2.2760 c3        1 HP0     -0.075000
     25 OXT        -0.3600   -3.5710   -0.8420 o         1 HP0     -0.575500
     26 H1          0.2730    2.0910    0.6710 h1        1 HP0      0.066000
     27 H31        -1.7750    2.2260    0.6470 ho        1 HP0      0.226000
     28 H3         -0.0550    0.0050    2.5480 h1        1 HP0      0.109000
     29 H           1.9520    0.5610    2.6700 hn        1 HP0      0.148500
     30 H5         -0.6280    2.7120    3.1790 hc        1 HP0      0.094000
     31 H6         -1.7820    1.6460    2.8930 hc        1 HP0      0.094000
     32 H7          0.3920    2.8410    5.3220 ha        1 HP0      0.140000
     33 H8         -1.9790   -0.3650    4.3990 ha        1 HP0      0.133000
     34 H9          0.3500    2.2150    7.5990 ha        1 HP0      0.118500
     35 H10        -2.0270   -0.9850    6.6780 ha        1 HP0      0.119000
     36 H11        -0.8900    0.3230    8.2820 ha        1 HP0      0.118500
     37 H12         0.2890   -0.7210    0.5530 h1        1 HP0      0.105000
     38 H13         1.3380    0.2910   -0.1060 h1        1 HP0      0.105000
     39 H14        -1.6090   -1.4910   -0.6050 h1        1 HP0      0.084000
     40 H15        -1.9140   -2.3530   -2.8500 hc        1 HP0      0.077000
     41 H16        -2.3970   -0.8410   -2.7440 hc        1 HP0      0.077000
     42 H17        -1.2010   -1.0250   -4.6690 hc        1 HP0      0.054000
     43 H18        -0.0650   -3.0170   -4.2250 hc        1 HP0      0.111500
     44 H19         0.8290   -2.3070   -3.1180 hc        1 HP0      0.111500
     45 H20         1.0240   -1.8990   -5.9210 hc        1 HP0      0.061500
     46 H21         2.1440   -2.5460   -4.9960 hc        1 HP0      0.061500
     47 H22         2.6420   -0.3200   -5.6090 hc        1 HP0      0.072000
     48 H23         2.6100   -0.5310   -4.0320 hc        1 HP0      0.072000
     49 H24         0.5840    0.7200   -5.5810 hc        1 HP0      0.062500
     50 H25         1.4800    1.4310   -4.4740 hc        1 HP0      0.062500
     51 H26        -0.7640    0.9590   -3.7120 hc        1 HP0      0.075000
     52 H27         1.3750   -0.1490   -2.2410 h1        1 HP0      0.077500
     53 H28         0.8700    1.3570   -2.1580 h1        1 HP0      0.077500
     54 H2          1.7310    1.9320    2.1140 hn        1 HP0      0.148500
@<TRIPOS>BOND
     1    1    2 1   
     2    1    3 1   
     3    1   13 1   
     4    1   26 1   
     5    2   27 1   
     6    3    4 1   
     7    3    5 1   
     8    3   28 1   
     9    4   29 1   
    10    4   54 1   
    11    5    6 1   
    12    5   30 1   
    13    5   31 1   
    14    6    7 1   
    15    6    8 1   
    16    7   32 1   
    17    8   10 1   
    18    8   33 1   
    19    9   11 1   
    20    9   34 1   
    21   10   35 1   
    22   11   36 1   
    23   12   13 1   
    24   12   14 1   
    25   12   24 1   
    26   13   37 1   
    27   13   38 1   
    28   14   15 1   
    29   14   17 1   
    30   14   39 1   
    31   15   16 1   
    32   15   25 1   
    33   17   18 1   
    34   17   40 1   
    35   17   41 1   
    36   18   19 1   
    37   18   23 1   
    38   18   42 1   
    39   19   20 1   
    40   19   43 1   
    41   19   44 1   
    42   20   21 1   
    43   20   45 1   
    44   20   46 1   
    45   21   22 1   
    46   21   47 1   
    47   21   48 1   
    48   22   23 1   
    49   22   49 1   
    50   22   50 1   
    51   23   24 1   
    52   23   51 1   
    53   24   52 1   
    54   24   53 1   
@<TRIPOS>SUBSTRUCTURE
     1 HP0         1 TEMP              0 ****  ****    0 ROOT
