@<TRIPOS>MOLECULE
HP0
   54    56     1     0     0
SMALL
bcc


@<TRIPOS>ATOM
      1 C1          0.9070   -0.9430   -1.7250 c3        1 HP0      0.097100
      2 O1          1.6880   -1.2420   -2.8770 oh        1 HP0     -0.618800
      3 C2          1.8000   -0.2900   -0.6330 c3        1 HP0      0.166500
      4 N           1.0930    0.2860    0.4870 n3        1 HP0     -0.920800
      5 C3          2.8180   -1.3640   -0.1860 c3        1 HP0     -0.044100
      6 C4          4.0430   -0.7810    0.4230 ca        1 HP0     -0.053300
      7 C5          4.0070   -0.2080    1.7010 ca        1 HP0     -0.120500
      8 C6          5.2590   -0.8180   -0.2710 ca        1 HP0     -0.120500
      9 C7          5.1660    0.3160    2.2700 ca        1 HP0     -0.140000
     10 C8          6.4180   -0.2960    0.3010 ca        1 HP0     -0.140000
     11 C9          6.3740    0.2710    1.5740 ca        1 HP0     -0.147000
     12 N2         -1.3790   -0.0450   -1.2150 n3        1 HP0     -0.713600
     13 C10        -0.2670   -0.0360   -2.1470 c3        1 HP0      0.131800
     14 C11        -2.2300    1.1460   -1.3150 c3        1 HP0      0.052500
     15 C          -1.5120    2.5360   -1.2380 c         1 HP0      0.920600
     16 O          -0.3220    2.6340   -0.8280 o         1 HP0     -0.832800
     17 C13        -3.3020    1.1460   -0.2180 c3        1 HP0     -0.060400
     18 C14        -4.1490   -0.1140   -0.2750 c3        1 HP0     -0.060700
     19 C15        -5.1920   -0.1480    0.8310 c3        1 HP0     -0.067400
     20 C16        -4.5980   -0.4320    2.1950 c3        1 HP0     -0.074400
     21 C17        -3.7680   -1.6980    2.1820 c3        1 HP0     -0.072400
     22 C18        -2.6850   -1.6240    1.1270 c3        1 HP0     -0.071400
     23 C19        -3.2750   -1.3660   -0.2500 c3        1 HP0     -0.048700
     24 C20        -2.1720   -1.2640   -1.3120 c3        1 HP0      0.173800
     25 OXT        -2.2120    3.5150   -1.6160 o         1 HP0     -0.832800
     26 H1          0.5530   -1.9510   -1.3750 h1        1 HP0      0.059700
     27 H31         1.9920   -0.4000   -3.2360 ho        1 HP0      0.396000
     28 H3          2.3780    0.5440   -1.1330 h1        1 HP0      0.057700
     29 H           0.6860    1.1720    0.2230 hn        1 HP0      0.381800
     30 H5          2.3350   -2.0620    0.5480 hc        1 HP0      0.046700
     31 H6          3.0980   -1.9670   -1.0930 hc        1 HP0      0.046700
     32 H7          3.0500   -0.1540    2.2440 ha        1 HP0      0.141000
     33 H8          5.2980   -1.2590   -1.2780 ha        1 HP0      0.141000
     34 H9          5.1250    0.7720    3.2690 ha        1 HP0      0.118000
     35 H10         7.3650   -0.3280   -0.2540 ha        1 HP0      0.118000
     36 H11         7.2860    0.6860    2.0250 ha        1 HP0      0.115000
     37 H12         0.1240    1.0210   -2.2230 h1        1 HP0      0.056200
     38 H13        -0.5830   -0.3660   -3.1830 h1        1 HP0      0.056200
     39 H14        -2.7650    1.1390   -2.3160 h1        1 HP0      0.012700
     40 H15        -2.8140    1.2420    0.7860 hc        1 HP0      0.055700
     41 H16        -3.9440    2.0520   -0.3760 hc        1 HP0      0.055700
     42 H17        -4.6990   -0.1090   -1.2610 hc        1 HP0      0.035700
     43 H18        -5.7290    0.8360    0.8580 hc        1 HP0      0.028200
     44 H19        -5.9490   -0.9420    0.5900 hc        1 HP0      0.028200
     45 H20        -3.9540    0.4310    2.5090 hc        1 HP0      0.035200
     46 H21        -5.4230   -0.5300    2.9480 hc        1 HP0      0.035200
     47 H22        -3.3010   -1.8520    3.1900 hc        1 HP0      0.024700
     48 H23        -4.4320   -2.5800    1.9810 hc        1 HP0      0.024700
     49 H24        -1.9620   -0.8050    1.3840 hc        1 HP0      0.047700
     50 H25        -2.1110   -2.5870    1.1090 hc        1 HP0      0.047700
     51 H26        -3.9190   -2.2490   -0.5240 hc        1 HP0      0.022700
     52 H27        -2.6650   -1.3600   -2.3270 h1        1 HP0      0.013200
     53 H28        -1.4830   -2.1460   -1.1920 h1        1 HP0      0.013200
     54 H2          0.3600   -0.3270    0.7880 hn        1 HP0      0.381800
@<TRIPOS>BOND
     1    1    2 1   
     2    1    3 1   
     3    1   13 1   
     4    1   26 1   
     5    2   27 1   
     6    3    4 1   
     7    3    5 1   
     8    3   28 1   
     9    4   29 1   
    10    4   54 1   
    11    5    6 1   
    12    5   30 1   
    13    5   31 1   
    14    6    7 ar  
    15    6    8 ar  
    16    7    9 ar  
    17    7   32 1   
    18    8   10 ar  
    19    8   33 1   
    20    9   11 ar  
    21    9   34 1   
    22   10   11 ar  
    23   10   35 1   
    24   11   36 1   
    25   12   13 1   
    26   12   14 1   
    27   12   24 1   
    28   13   37 1   
    29   13   38 1   
    30   14   15 1   
    31   14   17 1   
    32   14   39 1   
    33   15   16 1   
    34   15   25 1   
    35   17   18 1   
    36   17   40 1   
    37   17   41 1   
    38   18   19 1   
    39   18   23 1   
    40   18   42 1   
    41   19   20 1   
    42   19   43 1   
    43   19   44 1   
    44   20   21 1   
    45   20   45 1   
    46   20   46 1   
    47   21   22 1   
    48   21   47 1   
    49   21   48 1   
    50   22   23 1   
    51   22   49 1   
    52   22   50 1   
    53   23   24 1   
    54   23   51 1   
    55   24   52 1   
    56   24   53 1   
@<TRIPOS>SUBSTRUCTURE
     1 HP0         1 TEMP              0 ****  ****    0 ROOT
