@<TRIPOS>MOLECULE
HP1
   88    91     1     0     0
SMALL
bcc


@<TRIPOS>ATOM
      1 C           8.7620    0.3120   -0.0700 cc        1 HP1      0.054400
      2 C1          1.9610   -0.3680    0.4070 cc        1 HP1     -0.141000
      3 C2          8.3850    1.5630   -0.5590 cd        1 HP1     -0.152000
      4 C3          6.2980    2.8680   -1.0320 c3        1 HP1      0.140100
      5 C4          6.3800    0.5650   -0.1180 cc        1 HP1     -0.026200
      6 C5          4.8890    0.3710   -0.0070 c2        1 HP1      0.676300
      7 C6          3.1270   -1.1630    0.6740 cc        1 HP1     -0.086400
      8 C8          2.6790   -2.4160    1.1840 cd        1 HP1     -0.147300
      9 C10         0.8470   -1.1550    0.7600 cd        1 HP1     -0.164900
     10 C11        -0.5980   -0.8120    0.6980 c         1 HP1      0.705700
     11 C12        -2.2060    0.8600   -0.1000 cc        1 HP1     -0.038400
     12 C13        -3.4300    0.3250    0.4260 cc        1 HP1     -0.146000
     13 C14        -2.5410    2.0330   -0.8310 cd        1 HP1     -0.183300
     14 C16        -4.4660    1.1820    0.0020 cd        1 HP1     -0.177900
     15 C18       -12.1050   -0.7680    0.9740 c3        1 HP1      0.082000
     16 C19       -12.9860   -0.7970   -0.2780 c3        1 HP1     -0.108400
     17 C20       -14.4370   -1.0110    0.1480 c3        1 HP1      0.172800
     18 C21       -15.2510   -1.8030   -1.9960 c3        1 HP1      0.155600
     19 C22       -16.7560   -0.7430   -0.4440 c3        1 HP1      0.155600
     20 C23        -5.9180    1.0770    0.2670 c         1 HP1      0.698700
     21 C25        12.4310   -0.2960    0.0910 cc        1 HP1      0.263000
     22 C26        13.8520   -1.8570    0.6810 cd        1 HP1      0.310200
     23 C27        14.6200   -0.7450    0.2230 cc        1 HP1     -0.192600
     24 C29        -7.7170   -0.2050    1.3520 c3        1 HP1      0.095000
     25 C30        -8.3450   -1.2310    0.4060 c3        1 HP1     -0.187400
     26 C31        -9.7640   -1.5490    0.8450 c         1 HP1      0.655100
     27 C32         7.4650   -0.4370    0.2570 c         1 HP1      0.537500
     28 O1          4.1500    1.3070   -0.3770 o         1 HP1     -0.605300
     29 O2         -1.4570   -1.5600    1.2090 o         1 HP1     -0.605100
     30 O3         -6.7360    1.8940   -0.2120 o         1 HP1     -0.627100
     31 O5        -10.0430   -2.6590    1.3420 o         1 HP1     -0.605100
     32 O6          7.3340   -1.5580    0.7060 o         1 HP1     -0.371100
     33 N           6.9670    1.6740   -0.5720 na        1 HP1     -0.210200
     34 N1          4.4710   -0.8270    0.4940 n         1 HP1     -0.373100
     35 N3          1.3010   -2.3940    1.2300 na        1 HP1      0.013900
     36 N4         -0.9120    0.3660    0.0520 n         1 HP1     -0.426100
     37 N5         -3.9100    2.2160   -0.7600 na        1 HP1     -0.000100
     38 N6        -10.7090   -0.5520    0.7100 n         1 HP1     -0.563900
     39 N7        -15.3970   -0.8350   -0.9330 n3        1 HP1     -0.738600
     40 N8          9.9830   -0.2300    0.1180 n         1 HP1     -0.391100
     41 N9         13.7200    0.2340   -0.1460 na        1 HP1     -0.116900
     42 N10        12.5150   -1.5720    0.5960 nd        1 HP1     -0.623000
     43 N11        -6.3270    0.0570    1.1030 n         1 HP1     -0.552900
     44 H1          1.9600    0.6470    0.0150 ha        1 HP1      0.180000
     45 H2          9.0190    2.3930   -0.9030 h4        1 HP1      0.250000
     46 H31         5.6480    3.2700   -0.2020 h1        1 HP1      0.120367
     47 H32         7.0600    3.6310   -1.3430 h1        1 HP1      0.120367
     48 H33         5.6240    2.6030   -1.8970 h1        1 HP1      0.120367
     49 H8          3.2560   -3.2850    1.5020 h4        1 HP1      0.183000
     50 H91        -0.1030   -3.1220    2.6070 h1        1 HP1      0.078367
     51 H92        -0.2730   -3.7400    0.9040 h1        1 HP1      0.078367
     52 H93         1.1060   -4.3500    1.9600 h1        1 HP1      0.078367
     53 H13        -3.5170   -0.5750    1.0320 ha        1 HP1      0.183000
     54 H14        -1.8970    2.7220   -1.3770 h4        1 HP1      0.171000
     55 H151       -5.3820    2.8710   -2.1010 h1        1 HP1      0.068700
     56 H152       -5.2080    3.8520   -0.5800 h1        1 HP1      0.068700
     57 H153       -3.9260    3.9770   -1.8940 h1        1 HP1      0.068700
     58 H181      -12.4590    0.0670    1.6470 h1        1 HP1      0.063200
     59 H182      -12.2230   -1.7410    1.5320 h1        1 HP1      0.063200
     60 H191      -12.6570   -1.6270   -0.9560 hc        1 HP1      0.052200
     61 H192      -12.8870    0.1650   -0.8450 hc        1 HP1      0.052200
     62 H201      -14.6870   -0.2560    0.9480 h1        1 HP1      0.032700
     63 H202      -14.5220   -2.0370    0.6150 h1        1 HP1      0.032700
     64 H211      -14.2290   -1.6960   -2.4460 h1        1 HP1      0.032033
     65 H212      -15.3780   -2.8660   -1.6500 h1        1 HP1      0.032033
     66 H213      -16.0140   -1.5940   -2.7910 h1        1 HP1      0.032033
     67 H221      -17.1080   -1.6790    0.0700 h1        1 HP1      0.032033
     68 H222      -16.8270    0.1100    0.2810 h1        1 HP1      0.032033
     69 H223      -17.4380   -0.5340   -1.3090 h1        1 HP1      0.032033
     70 H26        14.2230   -2.8150    1.0530 h4        1 HP1      0.069100
     71 H27        15.7010   -0.6170    0.1490 h4        1 HP1      0.205000
     72 H281       13.5540    1.6470   -1.6850 h1        1 HP1      0.079700
     73 H282       13.5900    2.3200    0.0100 h1        1 HP1      0.079700
     74 H283       15.1320    1.6600   -0.7420 h1        1 HP1      0.079700
     75 H291       -8.2830    0.7690    1.2710 h1        1 HP1      0.072700
     76 H292       -7.8100   -0.5850    2.4100 h1        1 HP1      0.072700
     77 H301       -7.7660   -2.1910    0.4220 hc        1 HP1      0.074700
     78 H302       -8.3440   -0.8440   -0.6460 hc        1 HP1      0.074700
     79 HN1         5.1340   -1.5240    0.7620 hn        1 HP1      0.345500
     80 HN4        -0.1840    0.9050   -0.3570 hn        1 HP1      0.322500
     81 HN6       -10.4690    0.2600    0.1920 hn        1 HP1      0.310500
     82 HN8        10.0300   -1.1640    0.4890 hn        1 HP1      0.384500
     83 H11        -5.6780   -0.6510    1.3530 hn        1 HP1      0.317500
     84 C9          0.4700   -3.4640    1.7020 c3        1 HP1      0.007600
     85 C24        11.1980    0.4510   -0.1790 c         1 HP1      0.627600
     86 C15        -4.6380    3.2880   -1.3680 c3        1 HP1      0.016600
     87 C28        14.0200    1.5320   -0.6680 c3        1 HP1      0.003600
     88 O4         11.1640    1.6030   -0.6370 o         1 HP1     -0.555100
@<TRIPOS>BOND
     1    1    3 2   
     2    1   27 1   
     3    1   40 1   
     4    2    7 1   
     5    2    9 2   
     6    2   44 1   
     7    3   33 1   
     8    3   45 1   
     9    4   33 1   
    10    4   46 1   
    11    4   47 1   
    12    4   48 1   
    13    5    6 2   
    14    5   27 1   
    15    5   33 1   
    16    6   28 1   
    17    6   34 1   
    18    7    8 2   
    19    7   34 1   
    20    8   35 1   
    21    8   49 1   
    22    9   10 1   
    23    9   35 1   
    24   10   29 2   
    25   10   36 1   
    26   11   12 1   
    27   11   13 2   
    28   11   36 1   
    29   12   14 2   
    30   12   53 1   
    31   13   37 1   
    32   13   54 1   
    33   14   20 1   
    34   14   37 1   
    35   15   16 1   
    36   15   38 1   
    37   15   58 1   
    38   15   59 1   
    39   16   17 1   
    40   16   60 1   
    41   16   61 1   
    42   17   39 1   
    43   17   62 1   
    44   17   63 1   
    45   18   39 1   
    46   18   64 1   
    47   18   65 1   
    48   18   66 1   
    49   19   39 1   
    50   19   67 1   
    51   19   68 1   
    52   19   69 1   
    53   20   30 2   
    54   20   43 1   
    55   21   41 1   
    56   21   42 2   
    57   21   85 1   
    58   22   23 2   
    59   22   42 1   
    60   22   70 1   
    61   23   41 1   
    62   23   71 1   
    63   24   25 1   
    64   24   43 1   
    65   24   75 1   
    66   24   76 1   
    67   25   26 1   
    68   25   77 1   
    69   25   78 1   
    70   26   31 2   
    71   26   38 1   
    72   27   32 2   
    73   34   79 1   
    74   35   84 1   
    75   36   80 1   
    76   37   86 1   
    77   38   81 1   
    78   40   82 1   
    79   40   85 1   
    80   41   87 1   
    81   43   83 1   
    82   50   84 1   
    83   51   84 1   
    84   52   84 1   
    85   55   86 1   
    86   56   86 1   
    87   57   86 1   
    88   72   87 1   
    89   73   87 1   
    90   74   87 1   
    91   85   88 2   
@<TRIPOS>SUBSTRUCTURE
     1 HP1         1 TEMP              0 ****  ****    0 ROOT
