@<TRIPOS>MOLECULE
HP1
   88    89     1     0     0
SMALL
bcc


@<TRIPOS>ATOM
      1 C           0.6000   -0.2080    0.2090 c2        1 HP1      0.058000
      2 C1          3.6560   -1.2340    6.2660 c2        1 HP1     -0.194000
      3 C2          0.9830   -1.4440   -0.3520 c2        1 HP1     -0.281000
      4 C3          2.0900   -3.5680    0.3490 c3        1 HP1     -0.136000
      5 C4          1.6700   -1.6150    1.8150 c2        1 HP1     -0.148000
      6 C5          2.2560   -2.2190    3.0600 c2        1 HP1      0.357000
      7 C6          2.6020   -1.9900    5.4630 c3        1 HP1     -0.069000
      8 C8          1.3720   -2.0020    6.4390 c1        1 HP1     -0.075000
      9 C10         3.1550   -0.9890    7.5080 c2        1 HP1     -0.033000
     10 C11         3.8640   -0.3840    8.6770 c2        1 HP1      0.277000
     11 C12         5.7470    0.8150    9.4530 c3        1 HP1      0.045000
     12 C13         5.5200    0.2550   10.8600 c2        1 HP1     -0.015000
     13 C14         5.4900    2.3260    9.7310 c2        1 HP1      0.020000
     14 C16         5.2130    1.2720   11.7220 c2        1 HP1     -0.175000
     15 C18         2.1450   -1.8030   20.5840 c3        1 HP1     -0.202000
     16 C19         1.0000   -0.8840   20.8280 cx        1 HP1     -0.161000
     17 C20         1.2480    0.6170   20.8260 cx        1 HP1     -0.096000
     18 C21         0.9160   -0.1090   22.1150 cx        1 HP1     -0.243000
     19 C22         0.4650    2.8850   20.5850 c3        1 HP1     -0.126000
     20 C23         4.8940    1.2130   13.1740 c2        1 HP1      0.367000
     21 C25        -1.5480    1.5840   -2.1430 c2        1 HP1      0.050000
     22 C26        -3.4880    2.9170   -1.9330 c1        1 HP1     -0.117000
     23 C27        -4.4230    3.4990   -2.4150 c1        1 HP1      0.058000
     24 C29         4.1120   -0.2120   15.0210 c3        1 HP1     -0.029000
     25 C30         2.6270    0.0010   15.3280 c3        1 HP1     -0.209000
     26 C31         2.3170   -0.5730   16.6990 c2        1 HP1      0.296000
     27 C32         1.0440   -0.2510    1.6810 c2        1 HP1      0.269000
     28 O1          2.7110   -3.3800    2.9930 o         1 HP1     -0.348000
     29 O2          3.3920   -0.5620    9.8460 o         1 HP1     -0.517000
     30 O3          5.0490    2.2100   13.9100 o         1 HP1     -0.380000
     31 O5          2.8060   -1.6640   17.0670 o         1 HP1     -0.392000
     32 O6          0.9010    0.6270    2.5130 o         1 HP1     -0.154000
     33 N           1.6020   -2.2370    0.6270 na        1 HP1      0.140000
     34 N1          2.2990   -1.4280    4.1720 n         1 HP1     -0.278000
     35 N3          1.7830   -1.4540    7.5800 n3        1 HP1     -0.128000
     36 N4          5.0030    0.2830    8.3760 n2        1 HP1     -0.438000
     37 N5          5.2080    2.5310   11.0080 n3        1 HP1     -0.008000
     38 N6          1.4400    0.0960   17.5090 n         1 HP1     -0.413000
     39 N7          0.3610    1.5140   20.1480 n3        1 HP1     -0.286000
     40 N8         -0.0300    0.8380   -0.3300 nh        1 HP1     -0.136000
     41 N9         -5.4440    4.1330   -2.9350 n2        1 HP1     -0.237000
     42 N10        -2.4250    2.3120   -1.3710 n3        1 HP1     -0.149000
     43 N11         4.4720   -0.0090   13.6430 n         1 HP1     -0.347000
     44 H1          2.9360   -3.0660    5.3450 h1        1 HP1      0.171000
     45 H2          0.8530   -1.7930   -1.3850 h4        1 HP1      0.240000
     46 H31         3.1940   -3.6100    0.5780 h1        1 HP1      0.157333
     47 H32         1.8960   -3.8250   -0.7260 h1        1 HP1      0.157333
     48 H33         1.5730   -4.3000    1.0350 h1        1 HP1      0.157333
     49 H8          4.6470   -0.9920    5.8890 ha        1 HP1      0.182000
     50 H91        -0.0410   -1.7130    8.5690 h1        1 HP1      0.107000
     51 H92         0.9750   -0.2780    9.1170 h1        1 HP1      0.107000
     52 H93         1.4700   -1.9620    9.5930 h1        1 HP1      0.107000
     53 H13         6.8460    0.7390    9.1850 h1        1 HP1      0.150000
     54 H14         5.5320    3.1140    8.9670 h4        1 HP1      0.201000
     55 H151        3.9280    3.7380   12.1490 h1        1 HP1      0.134667
     56 H152        5.7080    3.9650   12.4560 h1        1 HP1      0.134667
     57 H153        4.9580    4.6170   10.8990 h1        1 HP1      0.134667
     58 H181        1.2750   -0.2500   18.4260 hn        1 HP1      0.235000
     59 H182        2.3200   -1.9350   19.4850 hc        1 HP1      0.088000
     60 H191        0.0490   -1.2600   20.3960 hc        1 HP1      0.119000
     61 H192        1.9290   -2.8060   21.0290 hc        1 HP1      0.088000
     62 H201        3.0840   -1.4110   21.0450 hc        1 HP1      0.088000
     63 H202        2.3030    0.9530   20.6990 h1        1 HP1      0.133000
     64 H211        1.7140   -0.2330   22.8680 hc        1 HP1      0.113500
     65 H212       -0.0740    0.0330   22.5820 hc        1 HP1      0.113500
     66 H213       -0.5880    1.1940   20.2240 hn        1 HP1      0.155000
     67 H221        1.5130    3.2470   20.4180 h1        1 HP1      0.073333
     68 H222       -0.2360    3.5050   19.9670 h1        1 HP1      0.073333
     69 H223        0.2120    3.0350   21.6700 h1        1 HP1      0.073333
     70 H26        -2.4930    2.1500   -0.3880 hn        1 HP1      0.248000
     71 H27        -1.7230    1.5950   -3.2410 h4        1 HP1      0.203000
     72 H281        1.0000    0.7020   -2.9240 ho        1 HP1      0.228000
     73 H282        0.8460   -1.7630   -3.7900 ha        1 HP1      0.003500
     74 H283        1.4770   -1.6280   -3.5820 ha        1 HP1      0.003500
     75 H291        4.1710   -0.6940   12.9850 hn        1 HP1      0.244000
     76 H292        4.3880   -1.2740   15.2920 h1        1 HP1      0.127000
     77 H301        1.9830   -0.5460   14.5900 hc        1 HP1      0.108000
     78 H302        2.3770    1.0910   15.2630 hc        1 HP1      0.108000
     79 HN1         1.8390   -0.5450    4.1760 hn        1 HP1      0.247000
     80 HN4         5.5820   -0.8140   11.0740 ha        1 HP1      0.200000
     81 HN6         1.1500    1.0170   17.3040 hn        1 HP1      0.235000
     82 HN8        -0.1910    1.6420    0.2470 hn        1 HP1      0.272000
     83 H11         4.7200    0.4900   15.6600 h1        1 HP1      0.127000
     84 C9          0.9980   -1.3480    8.7790 c3        1 HP1     -0.074000
     85 C24        -0.4400    0.9160   -1.6830 c2        1 HP1     -0.081000
     86 C15         4.9370    3.7890   11.6540 c3        1 HP1     -0.126000
     87 C28        -6.3730    4.7110   -3.4080 c1        1 HP1      0.256000
     88 O4          0.2790    0.1460   -2.5800 oh        1 HP1     -0.241000
@<TRIPOS>BOND
     1    1    3 1   
     2    1   27 1   
     3    1   40 1   
     4    2    7 1   
     5    2    9 1   
     6    2   49 1   
     7    3   33 1   
     8    3   45 1   
     9    4   33 1   
    10    4   46 1   
    11    4   47 1   
    12    4   48 1   
    13    5    6 1   
    14    5   27 1   
    15    5   33 1   
    16    6   28 1   
    17    6   34 1   
    18    7    8 1   
    19    7   34 1   
    20    7   44 1   
    21    8   35 1   
    22    9   10 1   
    23    9   35 1   
    24   10   29 1   
    25   10   36 1   
    26   11   12 1   
    27   11   13 1   
    28   11   36 1   
    29   11   53 1   
    30   12   14 1   
    31   12   80 1   
    32   13   37 1   
    33   13   54 1   
    34   14   20 1   
    35   14   37 1   
    36   15   16 1   
    37   15   59 1   
    38   15   61 1   
    39   15   62 1   
    40   16   17 1   
    41   16   18 1   
    42   16   60 1   
    43   17   18 1   
    44   17   39 1   
    45   17   63 1   
    46   18   64 1   
    47   18   65 1   
    48   19   39 1   
    49   19   67 1   
    50   19   68 1   
    51   19   69 1   
    52   20   30 1   
    53   20   43 1   
    54   21   42 1   
    55   21   71 1   
    56   21   85 1   
    57   22   23 1   
    58   22   42 1   
    59   23   41 1   
    60   24   25 1   
    61   24   43 1   
    62   24   76 1   
    63   24   83 1   
    64   25   26 1   
    65   25   77 1   
    66   25   78 1   
    67   26   31 1   
    68   26   38 1   
    69   27   32 1   
    70   34   79 1   
    71   35   84 1   
    72   37   86 1   
    73   38   58 1   
    74   38   81 1   
    75   39   66 1   
    76   40   82 1   
    77   40   85 1   
    78   41   87 1   
    79   42   70 1   
    80   43   75 1   
    81   50   84 1   
    82   51   84 1   
    83   52   84 1   
    84   55   86 1   
    85   56   86 1   
    86   57   86 1   
    87   72   88 1   
    88   73   74 1   
    89   85   88 1   
@<TRIPOS>SUBSTRUCTURE
     1 HP1         1 TEMP              0 ****  ****    0 ROOT
