@<TRIPOS>MOLECULE
HP2
   89    78     1     0     0
SMALL
bcc


@<TRIPOS>ATOM
      1 N1         -5.2120    1.0970   -3.0830 n3        1 HP2     -0.289000
      2 C1         -3.5080    0.9670   -1.2480 c1        1 HP2     -0.086500
      3 C8         -5.6190    1.2220   -0.6030 c1        1 HP2     -0.111000
      4 N3         -4.8360    1.1740    0.5280 n2        1 HP2     -0.096000
      5 C6         -4.7940    1.0930   -1.7000 c2        1 HP2     -0.032500
      6 C9         -5.3060    1.3010    1.9020 c2        1 HP2     -0.080500
      7 C10        -3.5350    1.0170    0.1360 c1        1 HP2     -0.142000
      8 C11        -2.2980    0.9670    1.0750 c1        1 HP2      0.379000
      9 O2         -2.4460    1.0190    2.2720 o         1 HP2     -0.369000
     10 N4         -0.9760    0.8610    0.5160 n3        1 HP2     -0.289000
     11 C12         0.1680    0.8170    1.3810 c2        1 HP2     -0.032500
     12 C13         1.3160    0.1310    1.1470 c1        1 HP2     -0.086500
     13 C14         0.3110    1.4970    2.5680 c1        1 HP2     -0.111000
     14 N5          1.5480    1.2260    3.0600 n2        1 HP2     -0.096000
     15 C15         2.0960    1.7190    4.3220 c2        1 HP2     -0.080500
     16 C16         2.1770    0.3800    2.1850 c1        1 HP2     -0.142000
     17 C23         3.7020   -0.0410    2.2420 c1        1 HP2      0.377000
     18 O3          4.2000   -0.6370    1.3100 o         1 HP2     -0.363000
     19 N7          8.3150   -6.5840    9.2880 n3        1 HP2     -0.264000
     20 C21         7.9590   -7.8810    8.7910 c3        1 HP2     -0.119500
     21 C22         9.3960   -6.7090   10.2430 c3        1 HP2     -0.119500
     22 C20         8.7410   -5.7470    8.1930 c3        1 HP2     -0.063000
     23 C18         7.9080   -3.9040    6.6910 c3        1 HP2     -0.032000
     24 C19         7.8560   -4.5070    8.1270 c3        1 HP2     -0.185000
     25 N6          6.9480   -2.8350    6.5790 n         1 HP2     -0.376000
     26 C3         -5.8360   -0.0840   -5.7250 c3        1 HP2     -0.082000
     27 N          -5.9840    1.3270   -6.0570 n3        1 HP2     -0.114000
     28 C2         -6.1910    1.8410   -7.3270 c1        1 HP2     -0.114000
     29 N8         -6.7870    4.1040   -8.2940 n3        1 HP2     -0.268000
     30 C          -6.4800    3.1840   -7.2010 c2        1 HP2     -0.031000
     31 C32        -6.4540    3.4980   -5.8840 c1        1 HP2     -0.141000
     32 C4         -6.1440    2.3390   -5.1670 c1        1 HP2     -0.138000
     33 C5         -5.8540    2.2690   -3.6420 c1        1 HP2      0.379000
     34 O1         -6.0400    3.2550   -2.9420 o         1 HP2     -0.369000
     35 C28        -5.2710    3.6920  -12.5140 c3        1 HP2     -0.081000
     36 N9         -6.2330    4.6430  -12.0330 n3        1 HP2     -0.101000
     37 C27        -6.7480    5.6520  -12.7390 c1        1 HP2     -0.150000
     38 C26        -7.4680    6.4300  -11.8940 c1        1 HP2     -0.174000
     39 N10        -7.3930    5.8990  -10.6790 n2        1 HP2     -0.121000
     40 C25        -6.6280    4.7880  -10.7560 c1        1 HP2     -0.116000
     41 C24        -6.3840    3.7880   -9.6270 c1        1 HP2      0.393000
     42 O4         -5.7750    2.7330   -9.8550 o         1 HP2     -0.390000
     43 O5          7.5500   -2.3930    4.4050 o         1 HP2     -0.370000
     44 C31         6.8270   -2.1130    5.3470 c2        1 HP2      0.301000
     45 C30         5.7400   -1.0750    5.1810 c3        1 HP2     -0.211000
     46 C29         5.6700   -0.6250    3.6900 c3        1 HP2     -0.017000
     47 N11         4.4380    0.1220    3.4680 n3        1 HP2     -0.390000
     48 O6         -2.3580    0.8310   -2.0500 o         1 HP2     -0.253000
     49 HN1        -5.1150    0.3550   -3.5850 hn        1 HP2      0.248000
     50 H8         -6.6240    1.3950   -0.6270 DU        1 HP2      0.189571
     51 H91        -4.9360    2.1100    2.2980 ha        1 HP2      0.101333
     52 H92        -6.2790    1.3510    1.9090 ha        1 HP2      0.101333
     53 H93        -5.0160    0.5190    2.4230 ha        1 HP2      0.101333
     54 HN4        -0.8630    0.8140   -0.4120 hn        1 HP2      0.248000
     55 H13         1.5010   -0.4550    0.3560 DU        1 HP2      0.189571
     56 H14        -0.4040    2.0340    3.0310 DU        1 HP2      0.189571
     57 H151        1.4330    2.3250    4.7590 ha        1 HP2      0.101333
     58 H152        2.9390    2.2220    4.1440 ha        1 HP2      0.101333
     59 H153        2.2870    0.9560    4.9180 ha        1 HP2      0.101333
     60 H211        8.6930   -8.2370    8.2590 h1        1 HP2      0.070500
     61 H212        7.1720   -7.8090    8.2440 h1        1 HP2      0.070500
     62 H213        7.7820   -8.4730    9.5330 h1        1 HP2      0.070500
     63 H221       10.2100   -6.9860    9.7780 h1        1 HP2      0.070500
     64 H222        9.1600   -7.3830   10.9240 h1        1 HP2      0.070500
     65 H223        9.5510   -5.8330   10.6840 h1        1 HP2      0.070500
     66 H201        9.6780   -5.4740    8.3360 h1        1 HP2      0.071000
     67 H202        8.6700   -6.2530    7.3420 h1        1 HP2      0.071000
     68 H181        8.8180   -3.5500    6.5150 h1        1 HP2      0.100500
     69 H182        7.6920   -4.6160    6.0210 h1        1 HP2      0.100500
     70 H191        8.1810   -3.8380    8.7750 hc        1 HP2      0.092000
     71 H192        6.9500   -4.7490    8.3420 hc        1 HP2      0.092000
     72 HN6         6.4500   -2.5770    7.3200 hn        1 HP2      0.225000
     73 H31        -4.9390   -0.2450   -5.3870 h1        1 HP2      0.097333
     74 H32A       -6.4980   -0.3330   -5.0340 h1        1 HP2      0.097333
     75 H33        -5.9840   -0.6240   -6.5280 h1        1 HP2      0.097333
     76 H2         -6.1540    1.3210   -8.1930 DU        1 HP2      0.189571
     77 HN8        -7.1400    4.9390   -8.1070 hn        1 HP2      0.263000
     78 H32        -6.6260    4.4020   -5.4930 DU        1 HP2      0.189571
     79 H281       -5.0570    3.8910  -13.4600 h1        1 HP2      0.107000
     80 H282       -5.6540    2.7620  -12.4440 h1        1 HP2      0.107000
     81 H283       -4.4470    3.7520  -11.9710 h1        1 HP2      0.107000
     82 H27        -6.6240    5.8060  -13.7230 DU        1 HP2      0.189571
     83 H26        -7.9640    7.2530  -12.1410 DU        1 HP2      0.189571
     84 H301        5.9400   -0.2990    5.7470 hc        1 HP2      0.113500
     85 H302        4.8860   -1.4550    5.4440 hc        1 HP2      0.113500
     86 H291        5.6850   -1.4220    3.1030 h1        1 HP2      0.107000
     87 H292        6.4420   -0.0500    3.4840 h1        1 HP2      0.107000
     88 H11         4.1600    0.7290    4.0840 hn        1 HP2      0.228000
     89 HO6        -2.2640   -0.0300   -2.2960 ho        1 HP2      0.216000
@<TRIPOS>BOND
     1    1    5 1   
     2    1   33 1   
     3    1   49 1   
     4    2    5 1   
     5    2    7 1   
     6    3    4 1   
     7    3    5 1   
     8    4    7 1   
     9    6   51 1   
    10    6   52 1   
    11    6   53 1   
    12    8    9 1   
    13    8   10 1   
    14   10   11 1   
    15   10   54 1   
    16   11   12 1   
    17   11   13 1   
    18   12   16 1   
    19   13   14 1   
    20   14   16 1   
    21   15   57 1   
    22   15   58 1   
    23   15   59 1   
    24   17   18 1   
    25   17   47 1   
    26   19   20 1   
    27   19   21 1   
    28   19   22 1   
    29   20   60 1   
    30   20   61 1   
    31   20   62 1   
    32   21   63 1   
    33   21   64 1   
    34   21   65 1   
    35   22   24 1   
    36   22   66 1   
    37   22   67 1   
    38   23   24 1   
    39   23   25 1   
    40   23   68 1   
    41   23   69 1   
    42   24   70 1   
    43   24   71 1   
    44   25   44 1   
    45   25   72 1   
    46   26   27 1   
    47   26   73 1   
    48   26   74 1   
    49   26   75 1   
    50   27   28 1   
    51   27   32 1   
    52   28   30 1   
    53   29   30 1   
    54   29   41 1   
    55   29   77 1   
    56   30   31 1   
    57   31   32 1   
    58   33   34 1   
    59   35   36 1   
    60   35   79 1   
    61   35   80 1   
    62   35   81 1   
    63   36   37 1   
    64   36   40 1   
    65   37   38 1   
    66   38   39 1   
    67   39   40 1   
    68   41   42 1   
    69   43   44 1   
    70   44   45 1   
    71   45   46 1   
    72   45   84 1   
    73   45   85 1   
    74   46   47 1   
    75   46   86 1   
    76   46   87 1   
    77   47   88 1   
    78   48   89 1   
@<TRIPOS>SUBSTRUCTURE
     1 HP2         1 TEMP              0 ****  ****    0 ROOT
