@<TRIPOS>MOLECULE
HP2
   89    92     1     0     0
SMALL
bcc


@<TRIPOS>ATOM
      1 N1          1.2360   -1.2400   -4.9340 n         1 HP2     -0.423100
      2 C1          1.2280   -0.9350   -2.4360 cc        1 HP2      0.131100
      3 C8          2.6880   -2.4820   -3.2780 cd        1 HP2     -0.106300
      4 N3          2.8680   -2.4280   -1.9010 na        1 HP2     -0.052100
      5 C6          1.6970   -1.5500   -3.6610 cc        1 HP2     -0.049400
      6 C9          3.5950   -3.4160   -1.1700 c3        1 HP2      0.019600
      7 C10         1.9610   -1.4920   -1.3630 cd        1 HP2     -0.276900
      8 C11         1.7760   -1.0820    0.0340 c         1 HP2      0.722700
      9 O2          0.7140   -0.5090    0.3710 o         1 HP2     -0.633100
     10 N4          2.7930   -1.3370    0.9430 n         1 HP2     -0.438100
     11 C12         2.7650   -0.9460    2.2780 cc        1 HP2     -0.026400
     12 C13         1.6610   -0.4190    3.0300 cc        1 HP2     -0.143000
     13 C14         3.8700   -1.0390    3.1710 cd        1 HP2     -0.189300
     14 N5          3.4660   -0.5940    4.4170 na        1 HP2     -0.006100
     15 C15         4.2890   -0.5380    5.5860 c3        1 HP2      0.019600
     16 C16         2.1210   -0.2110    4.3460 cd        1 HP2     -0.186900
     17 C23         1.3770    0.3090    5.5100 c         1 HP2      0.700700
     18 O3          1.8830    0.3610    6.6540 o         1 HP2     -0.636100
     19 N7         -3.2530    0.4190   13.9530 n3        1 HP2     -0.738600
     20 C21        -3.8410    1.1390   15.0610 c3        1 HP2      0.155600
     21 C22        -3.6950   -0.9560   13.8820 c3        1 HP2      0.155600
     22 C18        -2.6170    1.5270   10.3670 c3        1 HP2      0.085000
     23 C19        -2.5820    0.5510   11.5460 c3        1 HP2     -0.108400
     24 N6         -1.8830    1.0880    9.2130 n         1 HP2     -0.566900
     25 N           1.3850   -1.9660   -8.5930 na        1 HP2     -0.007100
     26 C2          0.6380   -1.3400   -9.5750 cc        1 HP2     -0.181300
     27 C          -0.2020   -0.3730   -8.9550 cd        1 HP2     -0.026400
     28 C32         0.0600   -0.4300   -7.5440 cd        1 HP2     -0.145000
     29 C4          1.0440   -1.4210   -7.3480 cc        1 HP2     -0.185900
     30 C5          1.6640   -1.8730   -6.0870 c         1 HP2      0.708700
     31 O1          2.5320   -2.7750   -6.0590 o         1 HP2     -0.640100
     32 N9         -3.6850    3.1500   -9.4660 na        1 HP2     -0.144900
     33 C27        -4.3430    3.6650  -10.5740 cc        1 HP2     -0.239600
     34 C26        -3.8340    2.9750  -11.7000 cd        1 HP2      0.290200
     35 N10        -2.8830    2.0550  -11.3020 nd        1 HP2     -0.651000
     36 C25        -2.7970    2.1660   -9.9440 cc        1 HP2      0.324000
     37 C24        -1.9070    1.3830   -9.0340 c         1 HP2      0.612600
     38 O4         -1.9230    1.5880   -7.8030 o         1 HP2     -0.616100
     39 O5         -3.7350    0.7630    7.8950 o         1 HP2     -0.608100
     40 C31        -2.5020    0.6640    8.0540 c         1 HP2      0.657100
     41 C29        -0.7530    1.2100    6.3480 c3        1 HP2      0.097000
     42 N11         0.0970    0.7770    5.2760 n         1 HP2     -0.555900
     43 O6          0.2720    0.0230   -2.4230 oh        1 HP2     -0.485100
     44 HN1         0.5360   -0.5330   -4.9820 hn        1 HP2      0.344500
     45 H8          3.2630   -3.1560   -3.9210 h4        1 HP2      0.207000
     46 H91         2.9910   -3.7980   -0.3040 h1        1 HP2      0.055367
     47 H92         3.8450   -4.2780   -1.8450 h1        1 HP2      0.055367
     48 H93         4.5580   -2.9770   -0.7890 h1        1 HP2      0.055367
     49 HN4         3.6830   -1.6180    0.5970 hn        1 HP2      0.317500
     50 H13         0.6680   -0.2200    2.6310 ha        1 HP2      0.184000
     51 H14         4.8860   -1.3880    2.9870 h4        1 HP2      0.170000
     52 H151        4.3030    0.5120    5.9880 h1        1 HP2      0.065033
     53 H152        3.8610   -1.2070    6.3820 h1        1 HP2      0.065033
     54 H153        5.3300   -0.8650    5.3310 h1        1 HP2      0.065033
     55 H211       -3.6310    0.5790   16.0090 h1        1 HP2      0.031367
     56 H212       -3.3670    2.1530   15.1310 h1        1 HP2      0.031367
     57 H213       -4.9540    1.2720   14.9640 h1        1 HP2      0.031367
     58 H221       -3.0610   -1.5010   13.1340 h1        1 HP2      0.031367
     59 H222       -3.5560   -1.4380   14.8850 h1        1 HP2      0.031367
     60 H223       -4.7740   -1.0610   13.5820 h1        1 HP2      0.031367
     61 H201       -4.4780    1.1960   12.3710 h1        1 HP2      0.031700
     62 H202       -3.0450    2.1970   12.8760 h1        1 HP2      0.031700
     63 H181       -3.6900    1.7060   10.0680 h1        1 HP2      0.061700
     64 H182       -2.1770    2.5120   10.7010 h1        1 HP2      0.061700
     65 H191       -1.5240    0.3730   11.8720 hc        1 HP2      0.052700
     66 H192       -3.0140   -0.4360   11.2360 hc        1 HP2      0.052700
     67 HN6        -0.9220    0.8790    9.3420 hn        1 HP2      0.312500
     68 H31         3.3530   -2.6700   -8.4370 h1        1 HP2      0.064700
     69 H32A        2.0490   -3.9230   -8.2470 h1        1 HP2      0.064700
     70 H33         2.4080   -3.2300   -9.9120 h1        1 HP2      0.064700
     71 H2          0.7360   -1.6030  -10.6280 h4        1 HP2      0.175000
     72 HN8        -1.1280    0.3330  -10.6270 hn        1 HP2      0.343500
     73 H32        -0.4240    0.1890   -6.7900 ha        1 HP2      0.185000
     74 H281       -4.1910    2.6510   -7.4960 h1        1 HP2      0.069033
     75 H282       -2.8960    3.9150   -7.6830 h1        1 HP2      0.069033
     76 H283       -4.6470    4.3460   -8.0440 h1        1 HP2      0.069033
     77 H27        -5.0940    4.4490  -10.4980 h4        1 HP2      0.183000
     78 H26        -4.1070    3.1030  -12.7470 h4        1 HP2      0.047100
     79 H301       -0.9680   -0.7160    7.3680 hc        1 HP2      0.076200
     80 H302       -2.2870   -0.3470    6.1780 hc        1 HP2      0.076200
     81 H291       -1.4330    2.0160    5.9450 h1        1 HP2      0.070200
     82 H292       -0.1040    1.6590    7.1540 h1        1 HP2      0.070200
     83 H11        -0.3250    0.6060    4.3940 hn        1 HP2      0.320500
     84 HO6         0.0340    0.1980   -1.4920 ho        1 HP2      0.461000
     85 C3          2.3470   -3.0010   -8.8160 c3        1 HP2      0.019600
     86 N8         -1.0930    0.4470   -9.6380 n         1 HP2     -0.420100
     87 C30        -1.6170    0.1010    6.9570 c3        1 HP2     -0.187400
     88 C28        -3.8700    3.5410   -8.1040 c3        1 HP2      0.016600
     89 C20        -3.3970    1.1410   12.6950 c3        1 HP2      0.172800
@<TRIPOS>BOND
     1    1    5 1   
     2    1   30 1   
     3    1   44 1   
     4    2    5 1   
     5    2    7 2   
     6    2   43 1   
     7    3    4 1   
     8    3    5 2   
     9    3   45 1   
    10    4    6 1   
    11    4    7 1   
    12    6   46 1   
    13    6   47 1   
    14    6   48 1   
    15    7    8 1   
    16    8    9 2   
    17    8   10 1   
    18   10   11 1   
    19   10   49 1   
    20   11   12 1   
    21   11   13 2   
    22   12   16 2   
    23   12   50 1   
    24   13   14 1   
    25   13   51 1   
    26   14   15 1   
    27   14   16 1   
    28   15   52 1   
    29   15   53 1   
    30   15   54 1   
    31   16   17 1   
    32   17   18 2   
    33   17   42 1   
    34   19   20 1   
    35   19   21 1   
    36   19   89 1   
    37   20   55 1   
    38   20   56 1   
    39   20   57 1   
    40   21   58 1   
    41   21   59 1   
    42   21   60 1   
    43   22   23 1   
    44   22   24 1   
    45   22   63 1   
    46   22   64 1   
    47   23   65 1   
    48   23   66 1   
    49   23   89 1   
    50   24   40 1   
    51   24   67 1   
    52   25   26 1   
    53   25   29 1   
    54   25   85 1   
    55   26   27 2   
    56   26   71 1   
    57   27   28 1   
    58   27   86 1   
    59   28   29 2   
    60   28   73 1   
    61   29   30 1   
    62   30   31 2   
    63   32   33 1   
    64   32   36 1   
    65   32   88 1   
    66   33   34 2   
    67   33   77 1   
    68   34   35 1   
    69   34   78 1   
    70   35   36 2   
    71   36   37 1   
    72   37   38 2   
    73   37   86 1   
    74   39   40 2   
    75   40   87 1   
    76   41   42 1   
    77   41   81 1   
    78   41   82 1   
    79   41   87 1   
    80   42   83 1   
    81   43   84 1   
    82   61   89 1   
    83   62   89 1   
    84   68   85 1   
    85   69   85 1   
    86   70   85 1   
    87   72   86 1   
    88   74   88 1   
    89   75   88 1   
    90   76   88 1   
    91   79   87 1   
    92   80   87 1   
@<TRIPOS>SUBSTRUCTURE
     1 HP2         1 TEMP              0 ****  ****    0 ROOT
