@<TRIPOS>MOLECULE
HP3
   13    12     1     0     0
SMALL
bcc


@<TRIPOS>ATOM
      1 C1         -1.4760    0.4690    0.1550 c3        1 HP3     -0.095100
      2 C2          0.0360    0.4690    0.1550 c3        1 HP3      0.144100
      3 O2          0.5050    0.4690    1.4820 oh        1 HP3     -0.602800
      4 C3          0.5400   -0.7650   -0.5580 c3        1 HP3      0.089400
      5 O3          1.9470   -0.8140   -0.4760 oh        1 HP3     -0.612800
      6 H11        -1.8020   -0.2980    0.6620 hc        1 HP3      0.046367
      7 H12        -1.8020    0.4140   -0.7640 hc        1 HP3      0.046367
      8 H13        -1.8020    1.2930    0.5660 hc        1 HP3      0.046367
      9 H2          0.3610    1.2670   -0.3060 h1        1 HP3      0.044700
     10 HO2         0.8130    1.2760    1.6870 ho        1 HP3      0.416000
     11 H31         0.1610   -1.5610   -0.1380 h1        1 HP3      0.034200
     12 H32         0.2700   -0.7330   -1.4960 h1        1 HP3      0.034200
     13 HO3         2.2490   -1.4880   -0.9680 ho        1 HP3      0.407000
@<TRIPOS>BOND
     1    1    2 1   
     2    1    6 1   
     3    1    7 1   
     4    1    8 1   
     5    2    3 1   
     6    2    4 1   
     7    2    9 1   
     8    3   10 1   
     9    4    5 1   
    10    4   11 1   
    11    4   12 1   
    12    5   13 1   
@<TRIPOS>SUBSTRUCTURE
     1 HP3         1 TEMP              0 ****  ****    0 ROOT
