@<TRIPOS>MOLECULE
HP3
   13    12     1     0     0
SMALL
bcc


@<TRIPOS>ATOM
      1 C1         -0.0600   -0.0070   -0.0210 c3        1 HP3     -0.095100
      2 C2          1.4500    0.0870   -0.1080 c3        1 HP3      0.144100
      3 O2          1.9300    0.3650    1.1990 oh        1 HP3     -0.602800
      4 C3          2.0430   -1.2280   -0.6280 c3        1 HP3      0.089400
      5 O3          3.4480   -1.0350   -0.6850 oh        1 HP3     -0.612800
      6 H11        -0.3610   -0.8450    0.6520 hc        1 HP3      0.046367
      7 H12        -0.4850   -0.1800   -1.0380 hc        1 HP3      0.046367
      8 H13        -0.4720    0.9430    0.3950 hc        1 HP3      0.046367
      9 H2          1.7560    0.9240   -0.7980 h1        1 HP3      0.044700
     10 HO2         2.8950    0.3380    1.1490 ho        1 HP3      0.416000
     11 H31         1.7960   -2.0690    0.0720 h1        1 HP3      0.034200
     12 H32         1.6440   -1.4570   -1.6500 h1        1 HP3      0.034200
     13 HO3         3.8370   -1.8830   -0.9240 ho        1 HP3      0.407000
@<TRIPOS>BOND
     1    1    2 1   
     2    1    6 1   
     3    1    7 1   
     4    1    8 1   
     5    2    3 1   
     6    2    4 1   
     7    2    9 1   
     8    3   10 1   
     9    4    5 1   
    10    4   11 1   
    11    4   12 1   
    12    5   13 1   
@<TRIPOS>SUBSTRUCTURE
     1 HP3         1 TEMP              0 ****  ****    0 ROOT
