@<TRIPOS>MOLECULE
HP3
   13    12     1     0     0
SMALL
bcc


@<TRIPOS>ATOM
      1 C1         -0.0570    0.0110   -0.0450 c3        1 HP3     -0.095100
      2 C2          1.4560    0.0850   -0.0930 c3        1 HP3      0.144100
      3 O2          1.9080    0.3190    1.2330 oh        1 HP3     -0.602800
      4 C3          2.0430   -1.2230   -0.6360 c3        1 HP3      0.089400
      5 O3          3.4520   -1.0490   -0.6540 oh        1 HP3     -0.612800
      6 H11        -0.3860   -0.8410    0.5960 hc        1 HP3      0.046367
      7 H12        -0.4590   -0.1270   -1.0760 hc        1 HP3      0.046367
      8 H13        -0.4660    0.9550    0.3880 hc        1 HP3      0.046367
      9 H2          1.7900    0.9370   -0.7500 h1        1 HP3      0.044700
     10 HO2         2.8730    0.2790    1.2050 ho        1 HP3      0.416000
     11 H31         1.7670   -2.0800    0.0320 h1        1 HP3      0.034200
     12 H32         1.6660   -1.4160   -1.6740 h1        1 HP3      0.034200
     13 HO3         3.8340   -1.8960   -0.9090 ho        1 HP3      0.407000
@<TRIPOS>BOND
     1    1    2 1   
     2    1    6 1   
     3    1    7 1   
     4    1    8 1   
     5    2    3 1   
     6    2    4 1   
     7    2    9 1   
     8    3   10 1   
     9    4    5 1   
    10    4   11 1   
    11    4   12 1   
    12    5   13 1   
@<TRIPOS>SUBSTRUCTURE
     1 HP3         1 TEMP              0 ****  ****    0 ROOT
