@<TRIPOS>MOLECULE
HP3
   13    12     1     0     0
SMALL
bcc


@<TRIPOS>ATOM
      1 C1         -0.8450    0.3250    1.5310 c3        1 HP3     -0.126100
      2 C2          0.2350    0.1140    0.4910 c3        1 HP3      0.136100
      3 O2          1.2630   -0.7430    0.9610 oh        1 HP3     -0.594800
      4 C3         -0.3500   -0.4570   -0.8080 c3        1 HP3      0.095400
      5 O3         -1.0930    0.5820   -1.4210 oh        1 HP3     -0.597800
      6 H11        -1.3260   -0.6450    1.8050 hc        1 HP3      0.046700
      7 H12        -0.4080    0.7770    2.4530 hc        1 HP3      0.046700
      8 H13        -1.6250    1.0090    1.1180 hc        1 HP3      0.046700
      9 H2          0.7640    1.0840    0.2680 h1        1 HP3      0.090700
     10 HO2         0.8440   -1.5580    1.2610 ho        1 HP3      0.396000
     11 H31         0.4840   -0.7950   -1.4790 h1        1 HP3      0.028200
     12 H32        -1.0200   -1.3300   -0.5870 h1        1 HP3      0.028200
     13 HO3        -1.3800    0.2440   -2.2770 ho        1 HP3      0.403000
@<TRIPOS>BOND
     1    1    2 1   
     2    1    6 1   
     3    1    7 1   
     4    1    8 1   
     5    2    3 1   
     6    2    4 1   
     7    2    9 1   
     8    3   10 1   
     9    4    5 1   
    10    4   11 1   
    11    4   12 1   
    12    5   13 1   
@<TRIPOS>SUBSTRUCTURE
     1 HP3         1 TEMP              0 ****  ****    0 ROOT
