@<TRIPOS>MOLECULE
HP6
   23    22     1     0     0
SMALL
bcc


@<TRIPOS>ATOM
      1 C20         3.7470    0.3560   -0.0000 c3        1 HP6     -0.092100
      2 C21         2.5000   -0.4900    0.0000 c3        1 HP6     -0.080400
      3 C22         1.2500    0.3620   -0.0000 c3        1 HP6     -0.079400
      4 C23         0.0000   -0.4910    0.0000 c3        1 HP6     -0.079400
      5 C24        -1.2500    0.3620   -0.0000 c3        1 HP6     -0.079400
      6 C25        -2.5000   -0.4900    0.0000 c3        1 HP6     -0.080400
      7 C26        -3.7470    0.3560   -0.0000 c3        1 HP6     -0.092100
      8 H201        3.7800    1.0100    0.9040 hc        1 HP6      0.032700
      9 H202        4.6570   -0.2920    0.0000 hc        1 HP6      0.032700
     10 H203        3.7800    1.0090   -0.9060 hc        1 HP6      0.032700
     11 H211        2.4970   -1.1580   -0.9020 hc        1 HP6      0.038700
     12 H212        2.4980   -1.1570    0.9030 hc        1 HP6      0.038700
     13 H221        1.2500    1.0300    0.9020 hc        1 HP6      0.039700
     14 H222        1.2500    1.0280   -0.9030 hc        1 HP6      0.039700
     15 H231        0.0000   -1.1590   -0.9020 hc        1 HP6      0.038700
     16 H232        0.0000   -1.1570    0.9030 hc        1 HP6      0.038700
     17 H241       -1.2500    1.0300    0.9020 hc        1 HP6      0.039700
     18 H242       -1.2500    1.0280   -0.9030 hc        1 HP6      0.039700
     19 H251       -2.4970   -1.1580   -0.9020 hc        1 HP6      0.038700
     20 H252       -2.4980   -1.1570    0.9030 hc        1 HP6      0.038700
     21 H261       -4.6570   -0.2920    0.0000 hc        1 HP6      0.032700
     22 H262       -3.7800    1.0100    0.9040 hc        1 HP6      0.032700
     23 H263       -3.7800    1.0090   -0.9060 hc        1 HP6      0.032700
@<TRIPOS>BOND
     1    1    2 1   
     2    1    8 1   
     3    1    9 1   
     4    1   10 1   
     5    2    3 1   
     6    2   11 1   
     7    2   12 1   
     8    3    4 1   
     9    3   13 1   
    10    3   14 1   
    11    4    5 1   
    12    4   15 1   
    13    4   16 1   
    14    5    6 1   
    15    5   17 1   
    16    5   18 1   
    17    6    7 1   
    18    6   19 1   
    19    6   20 1   
    20    7   21 1   
    21    7   22 1   
    22    7   23 1   
@<TRIPOS>SUBSTRUCTURE
     1 HP6         1 TEMP              0 ****  ****    0 ROOT
