@<TRIPOS>MOLECULE
HP8
   51    54     1     0     0
SMALL
bcc


@<TRIPOS>ATOM
      1 S          -1.9630   -0.9460   -1.0920 s6        1 HP8      1.704100
      2 N1          7.1080    1.0940   -0.0270 nb        1 HP8     -0.795000
      3 C2          6.9460   -0.2220    0.2700 ca        1 HP8      0.687900
      4 N3          5.8430   -1.0050    0.2020 nb        1 HP8     -0.758000
      5 C4          4.7460   -0.3210   -0.2460 ca        1 HP8      0.446800
      6 C5          4.7570    1.0920   -0.6020 ca        1 HP8     -0.226200
      7 C6          6.0040    1.7900   -0.4660 ca        1 HP8      0.761200
      8 N6          6.0780    3.1300   -0.7420 nh        1 HP8     -0.955500
      9 N7          3.4790    1.4890   -1.0260 nc        1 HP8     -0.549100
     10 C8          2.7190    0.3890   -0.9410 cd        1 HP8      0.428700
     11 N9          3.4260   -0.7450   -0.4620 na        1 HP8     -0.300000
     12 O9         -2.5230    2.0140   -1.0090 o         1 HP8     -0.574100
     13 C1'         2.9710   -2.1100   -0.3400 c3        1 HP8      0.224800
     14 C1S        -4.4160    1.8930    0.4510 ca        1 HP8     -0.199600
     15 C2'         3.0860   -2.6790    1.1140 c3        1 HP8      0.080100
     16 O2'         3.6400   -3.9750    1.0590 oh        1 HP8     -0.592800
     17 C21        -3.2870    1.3160   -0.3170 c         1 HP8      0.714700
     18 C2S        -5.0920    3.0200   -0.0420 ca        1 HP8      0.119100
     19 O2S        -4.8220    3.6600   -1.2240 oh        1 HP8     -0.518100
     20 C3'         1.6270   -2.7970    1.6150 c3        1 HP8      0.134100
     21 O3'         1.2820   -4.0820    2.0630 oh        1 HP8     -0.573800
     22 C3S        -6.1820    3.5630    0.6880 ca        1 HP8      0.103100
     23 O3S        -6.8960    4.6470    0.2410 oh        1 HP8     -0.489100
     24 C4'         0.7550   -2.3520    0.4210 c3        1 HP8      0.049100
     25 O4'         1.6000   -2.2240   -0.7280 os        1 HP8     -0.387600
     26 C4S        -6.5680    2.9960    1.9040 ca        1 HP8     -0.106000
     27 C5'         0.0580   -1.0220    0.7210 c3        1 HP8      0.174400
     28 O5'        -0.4990   -0.4560   -0.4380 os        1 HP8     -0.553500
     29 C5S        -5.8690    1.8920    2.3970 ca        1 HP8     -0.132000
     30 C6S        -4.8090    1.3470    1.6840 ca        1 HP8     -0.108000
     31 NHS        -3.0830   -0.0680   -0.2770 n         1 HP8     -0.692300
     32 OS1        -1.8630   -0.6250   -2.4260 o         1 HP8     -0.630800
     33 OS2        -2.0950   -2.2650   -0.6680 o         1 HP8     -0.630800
     34 HN6         5.2930    3.5710   -1.1550 hn        1 HP8      0.448300
     35 HN6A        6.9510    3.5960   -0.7350 hn        1 HP8      0.448300
     36 H8          1.6480    0.3110   -1.1950 h5        1 HP8      0.107800
     37 H1'         3.5450   -2.7560   -1.0720 h2        1 HP8      0.108700
     38 H2'         3.6890   -2.0170    1.7880 h1        1 HP8      0.084700
     39 HO2'        4.5970   -3.8670    0.9710 ho        1 HP8      0.433000
     40 HO2S       -3.9350    3.4140   -1.5380 ho        1 HP8      0.469000
     41 H3'         1.4640   -2.1350    2.5090 h1        1 HP8      0.088700
     42 HO3'        1.6040   -4.7260    1.4160 ho        1 HP8      0.429000
     43 HO3S       -6.4870    4.9660   -0.5800 ho        1 HP8      0.445000
     44 H4'        -0.0020   -3.1380    0.1390 h1        1 HP8      0.122700
     45 H4S        -7.4120    3.4310    2.4590 ha        1 HP8      0.162000
     46 H5'        -0.7370   -1.1900    1.4960 h1        1 HP8      0.059700
     47 H5'A        0.7980   -0.2550    1.0830 h1        1 HP8      0.059700
     48 H5S        -6.1630    1.4540    3.3630 ha        1 HP8      0.146000
     49 H6S        -4.2640    0.4920    2.1130 ha        1 HP8      0.134000
     50 HNHS       -3.7250   -0.5540    0.3160 hn        1 HP8      0.346500
     51 H2          7.8690   -0.7320    0.6230 h5        1 HP8      0.050100
@<TRIPOS>BOND
     1    1   28 1   
     2    1   31 1   
     3    1   32 2   
     4    1   33 2   
     5    2    3 ar  
     6    2    7 ar  
     7    3    4 ar  
     8    3   51 1   
     9    4    5 ar  
    10    5    6 ar  
    11    5   11 1   
    12    6    7 ar  
    13    6    9 1   
    14    7    8 1   
    15    8   34 1   
    16    8   35 1   
    17    9   10 2   
    18   10   11 1   
    19   10   36 1   
    20   11   13 1   
    21   12   17 2   
    22   13   15 1   
    23   13   25 1   
    24   13   37 1   
    25   14   17 1   
    26   14   18 ar  
    27   14   30 ar  
    28   15   16 1   
    29   15   20 1   
    30   15   38 1   
    31   16   39 1   
    32   17   31 1   
    33   18   19 1   
    34   18   22 ar  
    35   19   40 1   
    36   20   21 1   
    37   20   24 1   
    38   20   41 1   
    39   21   42 1   
    40   22   23 1   
    41   22   26 ar  
    42   23   43 1   
    43   24   25 1   
    44   24   27 1   
    45   24   44 1   
    46   26   29 ar  
    47   26   45 1   
    48   27   28 1   
    49   27   46 1   
    50   27   47 1   
    51   29   30 ar  
    52   29   48 1   
    53   30   49 1   
    54   31   50 1   
@<TRIPOS>SUBSTRUCTURE
     1 HP8         1 TEMP              0 ****  ****    0 ROOT
