@<TRIPOS>MOLECULE
HP8
   53    56     1     0     0
SMALL
bcc


@<TRIPOS>ATOM
      1 S           1.0600   -0.2200    1.5330 s6        1 HP8      1.664400
      2 N1         10.5600   -2.6330    3.6260 nb        1 HP8     -0.666000
      3 C2          9.8800   -2.5010    2.4500 ca        1 HP8      0.685900
      4 N3          8.7560   -1.7780    2.1980 nb        1 HP8     -0.644000
      5 C4          8.2760   -1.1150    3.2780 ca        1 HP8      0.451800
      6 C5          8.9090   -1.1740    4.6140 ca        1 HP8     -0.131200
      7 C6         10.0680   -1.9660    4.6990 ca        1 HP8      0.534200
      8 N6         10.7690   -2.0620    5.9930 n4        1 HP8     -0.817300
      9 N7          8.1900   -0.3880    5.5210 nc        1 HP8     -0.572100
     10 C8          7.1790    0.1360    4.8040 cd        1 HP8      0.523700
     11 N9          7.1620   -0.2760    3.4500 na        1 HP8     -0.275000
     12 O9          0.0600    0.5030    4.1410 o         1 HP8     -0.500100
     13 C1'         6.3380    0.2430    2.3790 c3        1 HP8      0.222800
     14 C1S        -2.3290    0.7310    3.9270 ca        1 HP8     -0.213600
     15 C2'         5.6280   -0.8610    1.5020 c3        1 HP8      0.100100
     16 O2'         5.8330   -0.5520    0.1450 oh        1 HP8     -0.589800
     17 C21        -0.9680    0.4990    3.4600 c         1 HP8      0.614700
     18 C2S        -3.4670    0.8120    3.1000 ca        1 HP8      0.167100
     19 O2S        -3.3240    0.6620    1.7450 oh        1 HP8     -0.548100
     20 C3'         4.1370   -0.6340    1.8090 c3        1 HP8      0.096100
     21 O3'         3.2160   -0.8350    0.7610 oh        1 HP8     -0.661800
     22 C3S        -4.7370    1.0490    3.6800 ca        1 HP8      0.056100
     23 O3S        -5.7770    1.1090    2.7830 oh        1 HP8     -0.506100
     24 C4'         4.0980    0.8490    2.2350 c3        1 HP8      0.054100
     25 O4'         5.3060    1.0710    2.9720 os        1 HP8     -0.397600
     26 C4S        -4.8750    1.2010    5.0600 ca        1 HP8     -0.091000
     27 C5'         2.8510    1.1650    3.0520 c3        1 HP8      0.203400
     28 O5'         1.7580    1.1330    2.1400 os        1 HP8     -0.558500
     29 C5S        -3.7420    1.1190    5.8750 ca        1 HP8     -0.120000
     30 C6S        -2.4910    0.8890    5.3240 ca        1 HP8     -0.052000
     31 NHS        -0.7230    0.2160    2.0150 n4        1 HP8     -0.614700
     32 OS1         0.9700   -0.0760    0.1800 o         1 HP8     -0.564300
     33 OS2         1.3390   -1.3040    2.3080 o         1 HP8     -0.564300
     34 HN6        11.1790   -1.1440    6.2130 hn        1 HP8      0.483800
     35 HN6A       10.0860   -2.3100    6.7210 hn        1 HP8      0.483800
     36 H1'         6.9680    0.9150    1.7190 h2        1 HP8      0.122700
     37 H2'         5.9560   -1.9000    1.7550 h1        1 HP8      0.099700
     38 HO2'        6.5940   -1.0620   -0.1690 ho        1 HP8      0.451000
     39 HO2S       -4.1940    0.7690    1.3160 ho        1 HP8      0.492000
     40 H3'         3.7970   -1.3270    2.6320 h1        1 HP8      0.122700
     41 HO3'        3.6200   -0.6050   -0.0930 ho        1 HP8      0.489000
     42 HO3S       -6.5990    1.2880    3.2690 ho        1 HP8      0.462000
     43 H4'         4.1250    1.5150    1.3240 h1        1 HP8      0.103700
     44 H4S        -5.8690    1.3840    5.5030 ha        1 HP8      0.174000
     45 H5'         2.8630    2.2210    3.4390 h1        1 HP8      0.105200
     46 H5'A        2.6730    0.4370    3.8860 h1        1 HP8      0.105200
     47 H5S        -3.8480    1.2380    6.9670 ha        1 HP8      0.176000
     48 H6S        -1.6000    0.8270    5.9730 ha        1 HP8      0.172000
     49 HNHS       -1.3620   -0.5370    1.7390 hn        1 HP8      0.478800
     50 H2         10.3120   -3.0600    1.5850 h5        1 HP8      0.108100
     51 H63        11.5160   -2.7720    5.9620 hn        1 HP8      0.483800
     52 HHS2       -1.0370    1.0380    1.4860 hn        1 HP8      0.478800
     53 H8          6.4100    0.8280    5.1930 h5        1 HP8      0.120800
@<TRIPOS>BOND
     1    1   28 1   
     2    1   31 1   
     3    1   32 2   
     4    1   33 2   
     5    2    3 ar  
     6    2    7 ar  
     7    3    4 ar  
     8    3   50 1   
     9    4    5 ar  
    10    5    6 ar  
    11    5   11 1   
    12    6    7 ar  
    13    6    9 1   
    14    7    8 1   
    15    8   34 1   
    16    8   35 1   
    17    8   51 1   
    18    9   10 2   
    19   10   11 1   
    20   10   53 1   
    21   11   13 1   
    22   12   17 2   
    23   13   15 1   
    24   13   25 1   
    25   13   36 1   
    26   14   17 1   
    27   14   18 ar  
    28   14   30 ar  
    29   15   16 1   
    30   15   20 1   
    31   15   37 1   
    32   16   38 1   
    33   17   31 1   
    34   18   19 1   
    35   18   22 ar  
    36   19   39 1   
    37   20   21 1   
    38   20   24 1   
    39   20   40 1   
    40   21   41 1   
    41   22   23 1   
    42   22   26 ar  
    43   23   42 1   
    44   24   25 1   
    45   24   27 1   
    46   24   43 1   
    47   26   29 ar  
    48   26   44 1   
    49   27   28 1   
    50   27   45 1   
    51   27   46 1   
    52   29   30 ar  
    53   29   47 1   
    54   30   48 1   
    55   31   49 1   
    56   31   52 1   
@<TRIPOS>SUBSTRUCTURE
     1 HP8         1 TEMP              0 ****  ****    0 ROOT
