@<TRIPOS>MOLECULE
HP8
   51    42     1     0     0
SMALL
bcc


@<TRIPOS>ATOM
      1 S          -1.9060   -0.8790   -1.0800 ss        1 HP8      2.826000
      2 N1          7.6780    2.7880    2.8460 n1        1 HP8     -0.269000
      3 C2          7.5740    2.4410    1.5300 c1        1 HP8      0.025000
      4 N3          6.3950    1.9590    1.0420 n1        1 HP8     -0.205000
      5 C4          5.3190    1.8230    1.8680 c1        1 HP8     -0.082000
      6 C5          5.4210    2.1650    3.1690 c1        1 HP8     -0.082000
      7 C6          6.6200    2.6540    3.6630 c1        1 HP8      0.240000
      8 N6          7.0170    3.1520    4.9300 n3        1 HP8     -0.356000
      9 N7          4.2190    1.9290    3.7600 n1        1 HP8     -0.154500
     10 C8          3.3790    1.4420    2.8200 c1        1 HP8     -0.057000
     11 N9          4.0530    1.3740    1.6500 n1        1 HP8     -0.154500
     12 O9         -3.8680   -2.4760   -2.5140 o         1 HP8     -0.333000
     13 C1'         3.3460    1.0750    0.4920 c2        1 HP8      0.116000
     14 C1S        -5.8190   -1.2350   -2.0000 c1        1 HP8     -0.138000
     15 C2'         3.5090   -0.2000    0.1750 c3        1 HP8      0.016000
     16 O2'         4.6020   -0.3480   -0.8000 oh        1 HP8     -0.295000
     17 C21        -4.3220   -1.4640   -2.0200 c2        1 HP8      0.401000
     18 C2S        -6.5130   -2.3010   -2.5530 c1        1 HP8      0.110000
     19 O2S        -5.8110   -3.3960   -3.0880 oh        1 HP8     -0.261000
     20 C3'         2.1650   -0.6300   -0.4570 c3        1 HP8     -0.027000
     21 O3'         2.3000   -0.7790   -1.7680 oh        1 HP8     -0.327000
     22 C3S        -7.8990   -2.2820   -2.5880 c1        1 HP8     -0.011000
     23 O3S        -8.6040   -3.3740   -3.1280 o         1 HP8     -0.270000
     24 C4'         1.1490    0.5420   -0.1390 c3        1 HP8     -0.052000
     25 O4'         1.7480    1.2820    0.7400 os        1 HP8     -0.258000
     26 C4S        -8.5910   -1.1980   -2.0700 c2        1 HP8     -0.136000
     27 C5'        -0.1410   -0.0200    0.4350 c3        1 HP8      0.014000
     28 O5'        -1.2160    0.2950   -0.4260 o         1 HP8     -0.717000
     29 C5S        -7.8970   -0.1330   -1.5180 c1        1 HP8     -0.136000
     30 C6S        -6.5110   -0.1520   -1.4830 c1        1 HP8     -0.069000
     31 NHS        -3.4460   -0.4760   -1.4940 n2        1 HP8     -0.863000
     32 OS1        -1.1300   -1.3760   -2.2760 o         1 HP8     -0.938500
     33 OS2        -1.8800   -2.0970   -0.1870 o         1 HP8     -0.938500
     34 H2          8.3430    2.5380    0.9370 ha        1 HP8      0.189000
     35 HN6         6.4270    3.1460    5.6290 hn        1 HP8      0.242500
     36 HN6A        7.8640    3.4750    5.0500 hn        1 HP8      0.242500
     37 H8          2.4500    1.1770    2.9630 DU        1 HP8      0.203000
     38 H1'         3.6490    1.6450   -0.2440 h4        1 HP8      0.175000
     39 H2'         3.6930   -0.7290    0.9770 h1        1 HP8      0.140000
     40 HO2'        4.8900   -1.1890   -0.7990 ho        1 HP8      0.228000
     41 HO2S       -6.0390   -4.1360   -2.6520 ho        1 HP8      0.258000
     42 H3'         1.8540   -1.4650   -0.0520 h1        1 HP8      0.098000
     43 HO3'        1.9920   -1.5790   -2.0100 ho        1 HP8      0.249000
     44 HO3S       -8.9580   -3.8540   -2.4690 ho        1 HP8      0.238000
     45 H4'         0.9640    1.0590   -0.9490 h1        1 HP8      0.143000
     46 H4S        -9.5670   -1.1850   -2.0950 ha        1 HP8      0.146000
     47 H5'        -0.0640   -0.9930    0.5190 h1        1 HP8      0.114000
     48 H5'A       -0.3030    0.3720    1.3180 h1        1 HP8      0.114000
     49 H5S        -8.3840    0.6310   -1.1540 ha        1 HP8      0.151000
     50 H6S        -6.0230    0.5980   -1.0940 ha        1 HP8      0.167000
     51 HNHS       -3.7310    0.3860   -1.4070 hn        1 HP8      0.284000
@<TRIPOS>BOND
     1    1   32 1   
     2    1   33 1   
     3    2    7 1   
     4    3    4 1   
     5    3   34 1   
     6    5    6 1   
     7    7    8 1   
     8    8   35 1   
     9    8   36 1   
    10    9   10 1   
    11   10   11 1   
    12   12   17 1   
    13   13   15 1   
    14   13   25 1   
    15   13   38 1   
    16   14   17 1   
    17   14   30 1   
    18   15   16 1   
    19   15   20 1   
    20   15   39 1   
    21   16   40 1   
    22   17   31 1   
    23   18   19 1   
    24   18   22 1   
    25   19   41 1   
    26   20   21 1   
    27   20   24 1   
    28   20   42 1   
    29   21   43 1   
    30   22   26 1   
    31   23   44 1   
    32   24   25 1   
    33   24   27 1   
    34   24   45 1   
    35   26   29 1   
    36   26   46 1   
    37   27   28 1   
    38   27   47 1   
    39   27   48 1   
    40   29   49 1   
    41   30   50 1   
    42   31   51 1   
@<TRIPOS>SUBSTRUCTURE
     1 HP8         1 TEMP              0 ****  ****    0 ROOT
