@<TRIPOS>MOLECULE
HP8
   52    55     1     0     0
SMALL
bcc


@<TRIPOS>ATOM
      1 S           0.4600   -1.0470    2.3800 s6        1 HP8      1.634400
      2 N1          8.7640   -0.9290    5.4270 nb        1 HP8     -0.782000
      3 C2          8.7550   -0.3740    4.1910 ca        1 HP8      0.706900
      4 N3          7.7420   -0.2530    3.2950 nb        1 HP8     -0.770000
      5 C4          6.5740   -0.7810    3.7610 ca        1 HP8      0.461800
      6 C5          6.4200   -1.4140    5.0620 ca        1 HP8     -0.236200
      7 C6          7.5870   -1.4710    5.9010 ca        1 HP8      0.776200
      8 N6          7.5240   -2.0440    7.1370 nv        1 HP8     -0.945500
      9 N7          5.0980   -1.8560    5.2270 nc        1 HP8     -0.522100
     10 C8          4.4650   -1.5200    4.0970 cd        1 HP8      0.401700
     11 N9          5.3040   -0.8640    3.1570 na        1 HP8     -0.314000
     12 O9          2.1990    1.8210    3.8250 o         1 HP8     -0.406100
     13 C1'         5.0080   -0.2850    1.8740 c3        1 HP8      0.258800
     14 C1S        -0.1700    1.7160    4.2750 ca        1 HP8     -0.229600
     15 C2'         5.7660   -0.9710    0.6880 c3        1 HP8      0.083100
     16 O2'         6.1940    0.0360   -0.2020 oh        1 HP8     -0.600800
     17 C21         1.0630    1.4870    3.5190 c         1 HP8      0.590700
     18 C2S        -1.3830    2.1040    3.6800 ca        1 HP8      0.169100
     19 O2S        -1.4390    2.2220    2.3160 oh        1 HP8     -0.539100
     20 C3'         4.6900   -1.8140   -0.0300 c3        1 HP8      0.140100
     21 O3'         4.8000   -1.8410   -1.4250 oh        1 HP8     -0.566800
     22 C3S        -2.5050    2.3760    4.5020 ca        1 HP8      0.060100
     23 O3S        -3.6430    2.7470    3.8250 oh        1 HP8     -0.504100
     24 C4'         3.3550   -1.1810    0.4190 c3        1 HP8      0.053100
     25 O4'         3.5960   -0.3750    1.5820 os        1 HP8     -0.493600
     26 C4S        -2.4120    2.2620    5.8890 ca        1 HP8     -0.104000
     27 C5'         2.3040   -2.2250    0.7710 c3        1 HP8      0.173400
     28 O5'         1.0480   -1.5800    0.9650 os        1 HP8     -0.562500
     29 C5S        -1.1970    1.8860    6.4690 ca        1 HP8     -0.117000
     30 C6S        -0.0860    1.6260    5.6800 ca        1 HP8     -0.058000
     31 NHS         0.9420    0.7210    2.2260 ny        1 HP8     -0.646700
     32 OS1        -0.8990   -1.0560    2.2660 o         1 HP8     -0.566300
     33 OS2         1.2070   -1.5710    3.3970 o         1 HP8     -0.566300
     34 HN6         6.6710   -2.4440    7.4410 hn        1 HP8      0.457800
     35 HN6A        8.3290   -2.1000    7.7130 hn        1 HP8      0.457800
     36 H1'         5.2390    0.8250    1.9030 h2        1 HP8      0.114700
     37 H2'         6.6210   -1.6090    1.0330 h1        1 HP8      0.108700
     38 HO2'        7.1090    0.2550    0.0240 ho        1 HP8      0.448000
     39 HO2S       -2.3350    2.5060    2.0550 ho        1 HP8      0.489000
     40 H3'         4.7540   -2.8910    0.2920 h1        1 HP8      0.101700
     41 HO3'        5.0850   -0.9680   -1.7350 ho        1 HP8      0.439000
     42 HO3S       -4.3430    2.9270    4.4720 ho        1 HP8      0.457000
     43 H4'         2.9640   -0.4880   -0.3780 h1        1 HP8      0.092700
     44 H4S        -3.2890    2.4730    6.5220 ha        1 HP8      0.169000
     45 H5'         2.5780   -2.8040    1.6940 h1        1 HP8      0.106700
     46 H5'A        2.1260   -2.9110   -0.1050 h1        1 HP8      0.106700
     47 H5S        -1.1210    1.8030    7.5660 ha        1 HP8      0.173000
     48 H6S         0.8770    1.3510    6.1440 ha        1 HP8      0.173000
     49 HNHS        1.8510    0.7940    1.7440 hn        1 HP8      0.490300
     50 H2          9.7330    0.0460    3.8630 h5        1 HP8      0.063100
     51 HHS2        0.2540    1.2170    1.6440 hn        1 HP8      0.490300
     52 H8          3.4070   -1.7120    3.8810 h5        1 HP8      0.079800
@<TRIPOS>BOND
     1    1   28 1   
     2    1   31 1   
     3    1   32 2   
     4    1   33 2   
     5    2    3 ar  
     6    2    7 ar  
     7    3    4 ar  
     8    3   50 1   
     9    4    5 ar  
    10    5    6 ar  
    11    5   11 1   
    12    6    7 ar  
    13    6    9 1   
    14    7    8 1   
    15    8   34 1   
    16    8   35 1   
    17    9   10 2   
    18   10   11 1   
    19   10   52 1   
    20   11   13 1   
    21   12   17 2   
    22   13   15 1   
    23   13   25 1   
    24   13   36 1   
    25   14   17 1   
    26   14   18 ar  
    27   14   30 ar  
    28   15   16 1   
    29   15   20 1   
    30   15   37 1   
    31   16   38 1   
    32   17   31 1   
    33   18   19 1   
    34   18   22 ar  
    35   19   39 1   
    36   20   21 1   
    37   20   24 1   
    38   20   40 1   
    39   21   41 1   
    40   22   23 1   
    41   22   26 ar  
    42   23   42 1   
    43   24   25 1   
    44   24   27 1   
    45   24   43 1   
    46   26   29 ar  
    47   26   44 1   
    48   27   28 1   
    49   27   45 1   
    50   27   46 1   
    51   29   30 ar  
    52   29   47 1   
    53   30   48 1   
    54   31   49 1   
    55   31   51 1   
@<TRIPOS>SUBSTRUCTURE
     1 HP8         1 TEMP              0 ****  ****    0 ROOT
