@<TRIPOS>MOLECULE
HP8
   52    55     1     0     0
SMALL
bcc


@<TRIPOS>ATOM
      1 S           1.3280   -2.6910    3.0880 s6        1 HP8      1.727100
      2 N1          5.7670   -1.6900    6.5260 nb        1 HP8     -0.760000
      3 C2          4.6880   -1.5640    5.7610 ca        1 HP8      0.643400
      4 N3          4.6030   -0.9170    4.5430 na        1 HP8     -0.280900
      5 C4          5.7770   -0.3960    4.0510 ca        1 HP8      0.042500
      6 C5          7.0100   -0.4810    4.8180 ca        1 HP8     -0.158900
      7 C6          6.9820   -1.1430    6.0970 ca        1 HP8      0.816200
      8 N6          8.0900   -1.2400    6.8580 nh        1 HP8     -0.882500
      9 N7          8.0480    0.1290    4.1010 nc        1 HP8     -0.505100
     10 C8          7.4910    0.5590    2.9620 cd        1 HP8      0.431700
     11 N9          6.0990    0.2610    2.8680 na        1 HP8     -0.166300
     12 O9          1.7500   -0.0070    4.2750 o         1 HP8     -0.621100
     13 C1'         5.2350    0.6360    1.7600 c3        1 HP8      0.246800
     14 C1S        -0.5240    0.7270    4.1960 ca        1 HP8     -0.175600
     15 C2'         5.7990    0.2060    0.3700 c3        1 HP8      0.073100
     16 O2'         6.0060    1.4060   -0.3420 oh        1 HP8     -0.591800
     17 C21         0.5660   -0.2430    3.9570 c         1 HP8      0.748700
     18 C2S        -1.6720    0.8380    3.3940 ca        1 HP8      0.159100
     19 O2S        -1.8170    0.0120    2.3100 oh        1 HP8     -0.515100
     20 C3'         4.6950   -0.6650   -0.2700 c3        1 HP8      0.094100
     21 O3'         4.2620   -0.1080   -1.4870 oh        1 HP8     -0.567800
     22 C3S        -2.6500    1.8150    3.7120 ca        1 HP8      0.045100
     23 O3S        -3.7370    1.8510    2.8670 oh        1 HP8     -0.511100
     24 C4'         3.5720   -0.7530    0.7770 c3        1 HP8      0.073100
     25 O4'         3.9470    0.0420    1.9190 os        1 HP8     -0.425600
     26 C4S        -2.4860    2.6600    4.8090 ca        1 HP8     -0.126000
     27 C5'         3.2880   -2.1880    1.2310 c3        1 HP8      0.191400
     28 O5'         1.9290   -2.3000    1.5660 os        1 HP8     -0.578500
     29 C5S        -1.3370    2.5450    5.5950 ca        1 HP8     -0.129000
     30 C6S        -0.3690    1.5980    5.2910 ca        1 HP8     -0.073000
     31 NHS         0.2780   -1.4980    3.4020 n         1 HP8     -0.686300
     32 OS1         0.6690   -3.8840    2.8840 o         1 HP8     -0.652800
     33 OS2         2.4650   -2.6390    3.8950 o         1 HP8     -0.652800
     34 HN6         8.9460   -0.8470    6.5310 hn        1 HP8      0.478800
     35 HN6A        8.0740   -1.7020    7.7400 hn        1 HP8      0.478800
     36 H1'         5.0820    1.7600    1.8070 h2        1 HP8      0.130700
     37 H2'         6.7640   -0.3640    0.4470 h1        1 HP8      0.077700
     38 HO2'        6.1720    1.1680   -1.2680 ho        1 HP8      0.445000
     39 HO2S       -2.6500    0.2310    1.8570 ho        1 HP8      0.468000
     40 H3'         5.0900   -1.6800   -0.5530 h1        1 HP8      0.113700
     41 HO3'        3.8640    0.7550   -1.3020 ho        1 HP8      0.423000
     42 HO3S       -4.3410    2.5420    3.1780 ho        1 HP8      0.448000
     43 H4'         2.6200   -0.2880    0.3900 h1        1 HP8      0.114700
     44 H4S        -3.2540    3.4120    5.0500 ha        1 HP8      0.157000
     45 H5'         3.9420   -2.4710    2.0990 h1        1 HP8      0.070700
     46 H5'A        3.4490   -2.8980    0.3710 h1        1 HP8      0.070700
     47 H5S        -1.2010    3.2130    6.4600 ha        1 HP8      0.158000
     48 H6S         0.5440    1.5190    5.9040 ha        1 HP8      0.158000
     49 HNHS        3.7280   -0.8650    4.0340 hn        1 HP8      0.382700
     50 H2          3.7360   -2.0350    6.1150 h5        1 HP8      0.110100
     51 HHS2       -0.6820   -1.6090    3.1260 hn        1 HP8      0.377500
     52 H8          8.0060    1.1010    2.1540 h5        1 HP8      0.108800
@<TRIPOS>BOND
     1    1   28 1   
     2    1   31 1   
     3    1   32 2   
     4    1   33 2   
     5    2    3 ar  
     6    2    7 ar  
     7    3    4 2   
     8    3   50 1   
     9    4    5 1   
    10    4   49 1   
    11    5    6 ar  
    12    5   11 1   
    13    6    7 ar  
    14    6    9 1   
    15    7    8 1   
    16    8   34 1   
    17    8   35 1   
    18    9   10 2   
    19   10   11 1   
    20   10   52 1   
    21   11   13 1   
    22   12   17 2   
    23   13   15 1   
    24   13   25 1   
    25   13   36 1   
    26   14   17 1   
    27   14   18 ar  
    28   14   30 ar  
    29   15   16 1   
    30   15   20 1   
    31   15   37 1   
    32   16   38 1   
    33   17   31 1   
    34   18   19 1   
    35   18   22 ar  
    36   19   39 1   
    37   20   21 1   
    38   20   24 1   
    39   20   40 1   
    40   21   41 1   
    41   22   23 1   
    42   22   26 ar  
    43   23   42 1   
    44   24   25 1   
    45   24   27 1   
    46   24   43 1   
    47   26   29 ar  
    48   26   44 1   
    49   27   28 1   
    50   27   45 1   
    51   27   46 1   
    52   29   30 ar  
    53   29   47 1   
    54   30   48 1   
    55   31   51 1   
@<TRIPOS>SUBSTRUCTURE
     1 HP8         1 TEMP              0 ****  ****    0 ROOT
