@<TRIPOS>MOLECULE
HPA
   14    15     1     0     0
SMALL
bcc


@<TRIPOS>ATOM
      1 N1          0.1930   -0.0000    2.0140 n         1 HPA     -0.485400
      2 C2          1.5070   -0.0000    1.5460 cc        1 HPA      0.469800
      3 N3          1.9150   -0.0000    0.2930 nd        1 HPA     -0.628700
      4 C4          0.8950   -0.0000   -0.6590 cd        1 HPA      0.553300
      5 C5         -0.4960   -0.0000   -0.2670 cc        1 HPA     -0.328200
      6 C6         -0.9020   -0.0000    1.1270 c         1 HPA      0.733100
      7 O6         -2.0700   -0.0000    1.5580 o         1 HPA     -0.633500
      8 N7         -1.2410   -0.0000   -1.4390 na        1 HPA     -0.276900
      9 C8         -0.3130   -0.0000   -2.4830 cc        1 HPA      0.435400
     10 N9          0.9760   -0.0000   -2.0610 nd        1 HPA     -0.633000
     11 HN1         0.0110   -0.0000    2.9920 hn        1 HPA      0.341500
     12 H2          2.2940   -0.0000    2.3330 h5        1 HPA      0.058800
     13 HN7        -2.2270   -0.0000   -1.4960 hn        1 HPA      0.323700
     14 H8         -0.6180   -0.0000   -3.5380 h5        1 HPA      0.070100
@<TRIPOS>BOND
     1    1    2 1   
     2    1    6 1   
     3    1   11 1   
     4    2    3 2   
     5    2   12 1   
     6    3    4 1   
     7    4    5 2   
     8    4   10 1   
     9    5    6 1   
    10    5    8 1   
    11    6    7 2   
    12    8    9 1   
    13    8   13 1   
    14    9   10 2   
    15    9   14 1   
@<TRIPOS>SUBSTRUCTURE
     1 HPA         1 TEMP              0 ****  ****    0 ROOT
