@<TRIPOS>MOLECULE
HPB
   27    25     1     0     0
SMALL
bcc


@<TRIPOS>ATOM
      1 C1         -3.1290   -1.3900   -0.9750 c3        1 HPB     -0.240000
      2 C2         -1.6510   -1.2650   -1.2110 c3        1 HPB      0.034000
      3 C3         -0.9980   -0.6480   -0.0050 c3        1 HPB     -0.028000
      4 C4          0.4830   -0.9180   -0.0420 c3        1 HPB     -0.165000
      5 C1'         1.2500    0.3760    0.3110 c2        1 HPB     -0.074000
      6 C2'         1.9780    1.0600   -0.6880 c1        1 HPB     -0.123000
      7 C3'         2.7690    2.1690   -0.3470 c1        1 HPB     -0.129000
      8 C4'         2.8380    2.5980    0.9820 c1        1 HPB     -0.129000
      9 C5'         2.1110    1.9150    1.9850 c1        1 HPB     -0.127000
     10 C6'         1.3180    0.8060    1.6450 c2        1 HPB     -0.140000
     11 O2         -1.4200   -0.4350   -2.3480 oh        1 HPB     -0.336000
     12 N3         -1.5630   -1.2140    1.1950 n3        1 HPB     -0.335000
     13 H11        -3.4880   -0.5180   -0.6420 hc        1 HPB      0.085667
     14 H12        -3.5910   -1.6370   -1.8460 hc        1 HPB      0.085667
     15 H13        -3.2990   -2.1070   -0.2910 hc        1 HPB      0.085667
     16 H2         -1.2660   -2.1600   -1.3710 h1        1 HPB      0.069000
     17 H3         -1.1490    0.3060   -0.0100 h1        1 HPB      0.114000
     18 H41         0.6960   -1.5880    0.5820 hc        1 HPB      0.103000
     19 H42         0.7380   -1.2140   -0.9370 hc        1 HPB      0.103000
     20 H2'         1.9330    0.7600   -1.6190 ha        1 HPB      0.137000
     21 H3'         3.2710    2.6410   -1.0380 ha        1 HPB      0.131500
     22 H4'         3.3870    3.3660    1.2170 ha        1 HPB      0.131500
     23 H5'         2.1590    2.2130    2.9100 ha        1 HPB      0.130000
     24 H6'         0.8020    0.3220    2.3530 ha        1 HPB      0.126000
     25 HO2        -1.5490   -0.9200   -3.1110 ho        1 HPB      0.202000
     26 HN31       -1.0720   -1.9230    1.4530 hn        1 HPB      0.144500
     27 HN32       -1.5590   -0.5930    1.8490 hn        1 HPB      0.144500
@<TRIPOS>BOND
     1    1    2 1   
     2    1   13 1   
     3    1   14 1   
     4    1   15 1   
     5    2    3 1   
     6    2   11 1   
     7    2   16 1   
     8    3    4 1   
     9    3   12 1   
    10    3   17 1   
    11    4    5 1   
    12    4   18 1   
    13    4   19 1   
    14    5    6 1   
    15    5   10 1   
    16    6   20 1   
    17    7    8 1   
    18    7   21 1   
    19    8   22 1   
    20    9   10 1   
    21    9   23 1   
    22   10   24 1   
    23   11   25 1   
    24   12   26 1   
    25   12   27 1   
@<TRIPOS>SUBSTRUCTURE
     1 HPB         1 TEMP              0 ****  ****    0 ROOT
