@<TRIPOS>MOLECULE
HPB
   28    28     1     0     0
SMALL
bcc


@<TRIPOS>ATOM
      1 C1          0.0530   -0.1280   -0.1640 c3        1 HPB     -0.164100
      2 C2          1.5600   -0.0060   -0.0490 c3        1 HPB      0.132100
      3 C3          2.0450    0.0150    1.4250 c3        1 HPB      0.114500
      4 C4          3.5760   -0.0390    1.4770 c3        1 HPB     -0.054100
      5 C1'         4.0730   -0.0300    2.8780 ca        1 HPB     -0.156300
      6 C2'         4.3500   -1.2380    3.5340 ca        1 HPB     -0.137500
      7 C3'         4.8390   -1.2300    4.8390 ca        1 HPB     -0.112500
      8 C4'         5.0550   -0.0180    5.4980 ca        1 HPB     -0.100000
      9 C5'         4.7860    1.1860    4.8460 ca        1 HPB     -0.112500
     10 C6'         4.2980    1.1820    3.5390 ca        1 HPB     -0.137500
     11 O2          2.0210    1.2380   -0.5540 oh        1 HPB     -0.585800
     12 N3          1.4430   -1.1060    2.2220 nz        1 HPB     -0.840600
     13 H11        -0.4620    0.5970    0.5120 hc        1 HPB      0.064700
     14 H12        -0.2890   -1.1650    0.0660 hc        1 HPB      0.064700
     15 H13        -0.2630    0.1060   -1.2120 hc        1 HPB      0.064700
     16 H2          2.0660   -0.8470   -0.6030 h1        1 HPB      0.061700
     17 H3          1.6950    0.9810    1.9030 hx        1 HPB      0.127700
     18 H41         3.9420    0.8690    0.9160 hc        1 HPB      0.100700
     19 H42         3.9540   -0.9420    0.9260 hc        1 HPB      0.100700
     20 H2'         4.2330   -2.1950    3.0030 ha        1 HPB      0.136000
     21 H3'         5.0710   -2.1800    5.3450 ha        1 HPB      0.155500
     22 H4'         5.4490   -0.0130    6.5270 ha        1 HPB      0.159000
     23 H5'         4.9710    2.1440    5.3590 ha        1 HPB      0.155500
     24 H6'         4.1070    2.1350    3.0220 ha        1 HPB      0.136000
     25 HO2         1.6970    1.3200   -1.4620 ho        1 HPB      0.441000
     26 HN31        0.4340   -0.9680    2.3160 hn        1 HPB      0.461133
     27 HN32        1.8880   -1.1230    3.1520 hn        1 HPB      0.461133
     28 H33         1.6190   -2.0010    1.7570 hn        1 HPB      0.461133
@<TRIPOS>BOND
     1    1    2 1   
     2    1   13 1   
     3    1   14 1   
     4    1   15 1   
     5    2    3 1   
     6    2   11 1   
     7    2   16 1   
     8    3    4 1   
     9    3   12 1   
    10    3   17 1   
    11    4    5 1   
    12    4   18 1   
    13    4   19 1   
    14    5    6 ar  
    15    5   10 ar  
    16    6    7 ar  
    17    6   20 1   
    18    7    8 ar  
    19    7   21 1   
    20    8    9 ar  
    21    8   22 1   
    22    9   10 ar  
    23    9   23 1   
    24   10   24 1   
    25   11   25 1   
    26   12   26 1   
    27   12   27 1   
    28   12   28 1   
@<TRIPOS>SUBSTRUCTURE
     1 HPB         1 TEMP              0 ****  ****    0 ROOT
