@<TRIPOS>MOLECULE
HPB
   28    28     1     0     0
SMALL
bcc


@<TRIPOS>ATOM
      1 C1          0.0500   -0.1230   -0.1600 c3        1 HPB     -0.164100
      2 C2          1.5570   -0.0030   -0.0470 c3        1 HPB      0.132100
      3 C3          2.0440    0.0160    1.4260 c3        1 HPB      0.114500
      4 C4          3.5750   -0.0400    1.4760 c3        1 HPB     -0.054100
      5 C1'         4.0740   -0.0330    2.8760 ca        1 HPB     -0.156300
      6 C2'         4.3500   -1.2410    3.5320 ca        1 HPB     -0.137500
      7 C3'         4.8400   -1.2340    4.8360 ca        1 HPB     -0.112500
      8 C4'         5.0600   -0.0220    5.4950 ca        1 HPB     -0.100000
      9 C5'         4.7930    1.1820    4.8440 ca        1 HPB     -0.112500
     10 C6'         4.3030    1.1790    3.5370 ca        1 HPB     -0.137500
     11 O2          2.0190    1.2400   -0.5520 oh        1 HPB     -0.585800
     12 N3          1.4420   -1.1040    2.2240 n4        1 HPB     -0.840600
     13 H11        -0.2930   -1.1600    0.0690 hc        1 HPB      0.064700
     14 H12        -0.2680    0.1110   -1.2080 hc        1 HPB      0.064700
     15 H13        -0.4630    0.6020    0.5170 hc        1 HPB      0.064700
     16 H2          2.0610   -0.8450   -0.6020 h1        1 HPB      0.061700
     17 H3          1.6960    0.9830    1.9050 hx        1 HPB      0.127700
     18 H41         3.9410    0.8680    0.9140 hc        1 HPB      0.100700
     19 H42         3.9510   -0.9430    0.9240 hc        1 HPB      0.100700
     20 H2'         4.2290   -2.1970    3.0010 ha        1 HPB      0.136000
     21 H3'         5.0710   -2.1850    5.3420 ha        1 HPB      0.155500
     22 H4'         5.4560   -0.0190    6.5230 ha        1 HPB      0.159000
     23 H5'         4.9800    2.1390    5.3560 ha        1 HPB      0.155500
     24 H6'         4.1120    2.1330    3.0200 ha        1 HPB      0.136000
     25 HO2         1.6930    1.3230   -1.4600 ho        1 HPB      0.441000
     26 HN31        1.8870   -1.1210    3.1530 hn        1 HPB      0.461133
     27 HN32        0.4320   -0.9640    2.3180 hn        1 HPB      0.461133
     28 H33         1.6150   -1.9990    1.7590 hn        1 HPB      0.461133
@<TRIPOS>BOND
     1    1    2 1   
     2    1   13 1   
     3    1   14 1   
     4    1   15 1   
     5    2    3 1   
     6    2   11 1   
     7    2   16 1   
     8    3    4 1   
     9    3   12 1   
    10    3   17 1   
    11    4    5 1   
    12    4   18 1   
    13    4   19 1   
    14    5    6 ar  
    15    5   10 ar  
    16    6    7 ar  
    17    6   20 1   
    18    7    8 ar  
    19    7   21 1   
    20    8    9 ar  
    21    8   22 1   
    22    9   10 ar  
    23    9   23 1   
    24   10   24 1   
    25   11   25 1   
    26   12   26 1   
    27   12   27 1   
    28   12   28 1   
@<TRIPOS>SUBSTRUCTURE
     1 HPB         1 TEMP              0 ****  ****    0 ROOT
