@<TRIPOS>MOLECULE
HPB
   27    27     1     0     0
SMALL
bcc


@<TRIPOS>ATOM
      1 C1         -0.5420   -0.7770    3.7880 c3        1 HPB     -0.119100
      2 C2          0.0060    0.2100    2.7760 c3        1 HPB      0.140100
      3 C3         -0.2880   -0.2300    1.3170 c3        1 HPB      0.136500
      4 C4          0.2930    0.8430    0.3720 c3        1 HPB     -0.082100
      5 C1'         0.2200    0.4220   -1.0520 ca        1 HPB     -0.081300
      6 C2'        -0.9090    0.7250   -1.8240 ca        1 HPB     -0.132000
      7 C3'        -0.9760    0.3310   -3.1590 ca        1 HPB     -0.125000
      8 C4'         0.0830   -0.3680   -3.7360 ca        1 HPB     -0.131000
      9 C5'         1.2120   -0.6710   -2.9740 ca        1 HPB     -0.125000
     10 C6'         1.2810   -0.2780   -1.6390 ca        1 HPB     -0.132000
     11 O2          1.4050    0.3810    2.9460 oh        1 HPB     -0.599800
     12 N3         -1.6890   -0.5300    1.1090 n3        1 HPB     -0.898800
     13 H11        -0.2450   -1.8190    3.5200 hc        1 HPB      0.046700
     14 H12        -0.1380   -0.5380    4.8010 hc        1 HPB      0.046700
     15 H13        -1.6550   -0.7240    3.8200 hc        1 HPB      0.046700
     16 H2         -0.4130    1.2400    2.9580 h1        1 HPB      0.071700
     17 H3          0.2790   -1.1920    1.1300 h1        1 HPB      0.059700
     18 H41        -0.2600    1.8080    0.5170 hc        1 HPB      0.062700
     19 H42         1.3620    1.0240    0.6680 hc        1 HPB      0.062700
     20 H2'        -1.7430    1.2840   -1.3750 ha        1 HPB      0.130000
     21 H3'        -1.8660    0.5740   -3.7580 ha        1 HPB      0.131500
     22 H4'         0.0300   -0.6790   -4.7900 ha        1 HPB      0.132000
     23 H5'         2.0500   -1.2200   -3.4270 ha        1 HPB      0.131500
     24 H6'         2.1730   -0.5150   -1.0410 ha        1 HPB      0.130000
     25 HO2         1.8120   -0.4920    2.8860 ho        1 HPB      0.398000
     26 HN31       -2.2570    0.2620    1.3420 hn        1 HPB      0.349800
     27 HN32       -1.8450   -0.7660    0.1470 hn        1 HPB      0.349800
@<TRIPOS>BOND
     1    1    2 1   
     2    1   13 1   
     3    1   14 1   
     4    1   15 1   
     5    2    3 1   
     6    2   11 1   
     7    2   16 1   
     8    3    4 1   
     9    3   12 1   
    10    3   17 1   
    11    4    5 1   
    12    4   18 1   
    13    4   19 1   
    14    5    6 ar  
    15    5   10 ar  
    16    6    7 ar  
    17    6   20 1   
    18    7    8 ar  
    19    7   21 1   
    20    8    9 ar  
    21    8   22 1   
    22    9   10 ar  
    23    9   23 1   
    24   10   24 1   
    25   11   25 1   
    26   12   26 1   
    27   12   27 1   
@<TRIPOS>SUBSTRUCTURE
     1 HPB         1 TEMP              0 ****  ****    0 ROOT
