@<TRIPOS>MOLECULE
HPB
   28    28     1     0     0
SMALL
bcc


@<TRIPOS>ATOM
      1 C1          0.0550   -0.1220   -0.1670 c3        1 HPB     -0.164100
      2 C2          1.5620   -0.0030   -0.0500 c3        1 HPB      0.132100
      3 C3          2.0460    0.0170    1.4240 c3        1 HPB      0.114500
      4 C4          3.5770   -0.0400    1.4780 c3        1 HPB     -0.054100
      5 C1'         4.0720   -0.0330    2.8790 ca        1 HPB     -0.156300
      6 C2'         4.3460   -1.2410    3.5360 ca        1 HPB     -0.137500
      7 C3'         4.8340   -1.2350    4.8410 ca        1 HPB     -0.112500
      8 C4'         5.0510   -0.0230    5.5000 ca        1 HPB     -0.100000
      9 C5'         4.7860    1.1810    4.8480 ca        1 HPB     -0.112500
     10 C6'         4.2990    1.1790    3.5410 ca        1 HPB     -0.137500
     11 O2          2.0260    1.2400   -0.5550 oh        1 HPB     -0.585800
     12 N3          1.4410   -1.1030    2.2210 n4        1 HPB     -0.840600
     13 H11        -0.4590    0.6040    0.5090 hc        1 HPB      0.064700
     14 H12        -0.2600    0.1120   -1.2160 hc        1 HPB      0.064700
     15 H13        -0.2890   -1.1590    0.0620 hc        1 HPB      0.064700
     16 H2          2.0680   -0.8450   -0.6040 h1        1 HPB      0.061700
     17 H3          1.6970    0.9830    1.9020 hx        1 HPB      0.127700
     18 H41         3.9530   -0.9440    0.9270 hc        1 HPB      0.100700
     19 H42         3.9450    0.8670    0.9170 hc        1 HPB      0.100700
     20 H2'         4.2280   -2.1980    3.0050 ha        1 HPB      0.136000
     21 H3'         5.0640   -2.1850    5.3470 ha        1 HPB      0.155500
     22 H4'         5.4450   -0.0190    6.5290 ha        1 HPB      0.159000
     23 H5'         4.9720    2.1390    5.3610 ha        1 HPB      0.155500
     24 H6'         4.1100    2.1320    3.0230 ha        1 HPB      0.136000
     25 HO2         1.7040    1.3220   -1.4630 ho        1 HPB      0.441000
     26 HN31        0.4320   -0.9630    2.3130 hn        1 HPB      0.461133
     27 HN32        1.6150   -1.9980    1.7560 hn        1 HPB      0.461133
     28 H33         1.8850   -1.1200    3.1510 hn        1 HPB      0.461133
@<TRIPOS>BOND
     1    1    2 1   
     2    1   13 1   
     3    1   14 1   
     4    1   15 1   
     5    2    3 1   
     6    2   11 1   
     7    2   16 1   
     8    3    4 1   
     9    3   12 1   
    10    3   17 1   
    11    4    5 1   
    12    4   18 1   
    13    4   19 1   
    14    5    6 ar  
    15    5   10 ar  
    16    6    7 ar  
    17    6   20 1   
    18    7    8 ar  
    19    7   21 1   
    20    8    9 ar  
    21    8   22 1   
    22    9   10 ar  
    23    9   23 1   
    24   10   24 1   
    25   11   25 1   
    26   12   26 1   
    27   12   27 1   
    28   12   28 1   
@<TRIPOS>SUBSTRUCTURE
     1 HPB         1 TEMP              0 ****  ****    0 ROOT
