@<TRIPOS>MOLECULE
HPC
   25    23     1     0     0
SMALL
bcc


@<TRIPOS>ATOM
      1 N           0.0740   -0.8300    2.0310 n3        1 HPC     -0.330000
      2 CA          0.5840   -1.0210    0.7170 c3        1 HPC     -0.074000
      3 C           1.7580   -1.9710    0.7650 c2        1 HPC      0.233000
      4 O           2.8490   -1.5700    1.1200 o         1 HPC     -0.290000
      5 CB          1.0320    0.3070    0.1530 c3        1 HPC     -0.161000
      6 CG         -0.1660    1.0570   -0.3830 c2        1 HPC     -0.078000
      7 CD1        -0.6070    2.2040    0.2580 c1        1 HPC     -0.133000
      8 CD2        -0.7750    0.6410   -1.5560 c2        1 HPC     -0.124000
      9 CE1        -1.6580    2.9340   -0.2750 c1        1 HPC     -0.126500
     10 CE2        -1.8260    1.3710   -2.0880 c1        1 HPC     -0.125000
     11 CZ         -2.2680    2.5180   -1.4470 c1        1 HPC     -0.126500
     12 CH          1.5710   -3.4250    0.3940 c3        1 HPC     -0.267000
     13 H          -0.8180   -0.6300    1.9860 hn        1 HPC      0.156000
     14 HN2         0.5220   -0.1410    2.4350 hn        1 HPC      0.156000
     15 HA         -0.1160   -1.3970    0.1470 h1        1 HPC      0.112000
     16 HB1         1.6720    0.1540   -0.5720 hc        1 HPC      0.099500
     17 HB2         1.4580    0.8340    0.8580 hc        1 HPC      0.099500
     18 HD1        -0.1780    2.4980    1.0840 ha        1 HPC      0.132000
     19 HD2        -0.4640   -0.1670   -2.0080 ha        1 HPC      0.131000
     20 HE1        -1.9690    3.7420    0.1770 ha        1 HPC      0.134000
     21 HE2        -2.2560    1.0770   -2.9150 ha        1 HPC      0.133000
     22 HZ         -3.0080    3.0320   -1.8220 ha        1 HPC      0.134000
     23 HCH1        2.3760   -3.9290    0.6350 hc        1 HPC      0.106333
     24 HCH2        1.4150   -3.4990   -0.5710 hc        1 HPC      0.106333
     25 HCH3        0.8010   -3.7890    0.8790 hc        1 HPC      0.106333
@<TRIPOS>BOND
     1    1    2 1   
     2    1   13 1   
     3    1   14 1   
     4    2    3 1   
     5    2    5 1   
     6    2   15 1   
     7    3    4 1   
     8    3   12 1   
     9    5    6 1   
    10    5   16 1   
    11    5   17 1   
    12    6    7 1   
    13    6    8 1   
    14    7   18 1   
    15    8   10 1   
    16    8   19 1   
    17    9   11 1   
    18    9   20 1   
    19   10   21 1   
    20   11   22 1   
    21   12   23 1   
    22   12   24 1   
    23   12   25 1   
@<TRIPOS>SUBSTRUCTURE
     1 HPC         1 TEMP              0 ****  ****    0 ROOT
