@<TRIPOS>MOLECULE
HPC
   25    25     1     0     0
SMALL
bcc


@<TRIPOS>ATOM
      1 N          -1.2800   -1.1040    1.1770 n3        1 HPC     -0.897800
      2 CA         -0.0400   -0.3830    1.3650 c3        1 HPC      0.073500
      3 C           0.1080    0.1110    2.8070 c         1 HPC      0.572100
      4 O          -0.7960    0.7270    3.3760 o         1 HPC     -0.529100
      5 CB          0.1740    0.8430    0.4510 c3        1 HPC     -0.075100
      6 CG          0.1460    0.4660   -0.9860 ca        1 HPC     -0.085300
      7 CD1        -1.0540    0.5110   -1.7060 ca        1 HPC     -0.128500
      8 CD2         1.3200    0.0670   -1.6370 ca        1 HPC     -0.128500
      9 CE1        -1.0790    0.1600   -3.0550 ca        1 HPC     -0.125000
     10 CE2         1.2930   -0.2830   -2.9860 ca        1 HPC     -0.125000
     11 CZ          0.0940   -0.2370   -3.6970 ca        1 HPC     -0.128000
     12 CH          1.4180   -0.1930    3.4500 c3        1 HPC     -0.199100
     13 H          -1.4460   -1.2480    0.1980 hn        1 HPC      0.360800
     14 HN2        -2.0490   -0.5940    1.5700 hn        1 HPC      0.360800
     15 HA          0.7920   -1.1210    1.1500 h1        1 HPC      0.072700
     16 HB1        -0.6180    1.6070    0.6680 hc        1 HPC      0.060200
     17 HB2         1.1660    1.3020    0.7060 hc        1 HPC      0.060200
     18 HD1        -1.9800    0.8330   -1.2060 ha        1 HPC      0.131500
     19 HD2         2.2680    0.0320   -1.0790 ha        1 HPC      0.131500
     20 HE1        -2.0260    0.2000   -3.6140 ha        1 HPC      0.133500
     21 HE2         2.2200   -0.5940   -3.4900 ha        1 HPC      0.133500
     22 HZ          0.0730   -0.5130   -4.7610 ha        1 HPC      0.134000
     23 HCH1        1.5000    0.3070    4.4450 hc        1 HPC      0.067033
     24 HCH2        1.5110   -1.2990    3.5920 hc        1 HPC      0.067033
     25 HCH3        2.2550    0.1540    2.7950 hc        1 HPC      0.067033
@<TRIPOS>BOND
     1    1    2 1   
     2    1   13 1   
     3    1   14 1   
     4    2    3 1   
     5    2    5 1   
     6    2   15 1   
     7    3    4 2   
     8    3   12 1   
     9    5    6 1   
    10    5   16 1   
    11    5   17 1   
    12    6    7 ar  
    13    6    8 ar  
    14    7    9 ar  
    15    7   18 1   
    16    8   10 ar  
    17    8   19 1   
    18    9   11 ar  
    19    9   20 1   
    20   10   11 ar  
    21   10   21 1   
    22   11   22 1   
    23   12   23 1   
    24   12   24 1   
    25   12   25 1   
@<TRIPOS>SUBSTRUCTURE
     1 HPC         1 TEMP              0 ****  ****    0 ROOT
