@<TRIPOS>MOLECULE
HPD
   24    20     1     0     0
SMALL
bcc


@<TRIPOS>ATOM
      1 P          -0.1130   -0.6590    0.1340 p5        1 HPD      1.527500
      2 O5'         1.6720   -0.8880    0.6360 os        1 HPD     -0.501000
      3 O1P        -0.6050   -0.8030    1.5380 o         1 HPD     -0.888167
      4 O2P        -0.0560    0.7170   -0.4390 o         1 HPD     -0.888167
      5 O3P        -0.3300   -1.8110   -0.7870 o         1 HPD     -0.888167
      6 C5'         2.5800   -0.9500   -0.2270 c1        1 HPD     -0.039000
      7 O4'         4.0710   -1.4540    1.7600 oh        1 HPD     -0.393000
      8 O3'         4.4590   -2.1030   -1.7610 oh        1 HPD     -0.316000
      9 O1'         4.8660   -4.0250    2.7230 oh        1 HPD     -0.226000
     10 C3'         4.8540   -1.9440   -0.4550 c2        1 HPD      0.108000
     11 C4'         4.0090   -1.0420    0.3990 c3        1 HPD     -0.121000
     12 H5'1        1.1520   -1.2980    3.1680 ha        1 HPD      0.001250
     13 H5'2        1.6150   -1.4520    3.6450 ha        1 HPD      0.001250
     14 HO'4        3.1470   -1.5030    2.0620 ho        1 HPD      0.238000
     15 HO'3        3.5510   -1.7260   -1.8420 ho        1 HPD      0.282000
     16 H1'1        6.5640   -3.2040   -0.7140 ha        1 HPD      0.104500
     17 H1'2        5.9520   -5.1830    3.8760 ha        1 HPD     -0.024000
     18 HO'1        4.8940   -3.2450    2.1100 ho        1 HPD      0.310000
     19 H3'         3.6750   -2.0850    4.1150 ha        1 HPD      0.001250
     20 H4'         4.4530   -0.0060    0.3520 h1        1 HPD      0.085000
     21 C2'         5.9830   -2.5580   -0.0510 c2        1 HPD     -0.398000
     22 C1'         6.0510   -4.2930    3.1890 c1        1 HPD     -0.080000
     23 H2'1        4.3480   -2.1300    4.1810 ha        1 HPD      0.001250
     24 H2'2        6.3650   -2.4220    0.9650 ha        1 HPD      0.104500
@<TRIPOS>BOND
     1    1    2 1   
     2    1    3 1   
     3    1    4 1   
     4    1    5 1   
     5    2    6 1   
     6    6   11 1   
     7    7   11 1   
     8    7   14 1   
     9    8   10 1   
    10    8   15 1   
    11    9   18 1   
    12    9   22 1   
    13   10   11 1   
    14   10   21 1   
    15   11   20 1   
    16   12   13 1   
    17   16   21 1   
    18   17   22 1   
    19   19   23 1   
    20   21   24 1   
@<TRIPOS>SUBSTRUCTURE
     1 HPD         1 TEMP              0 ****  ****    0 ROOT
