@<TRIPOS>MOLECULE
HPD
   24    23     1     0     0
SMALL
bcc


@<TRIPOS>ATOM
      1 P           0.4060   -1.0390   -1.9160 p5        1 HPD      1.330900
      2 O5'        -0.6190    0.2050   -1.2450 os        1 HPD     -0.574200
      3 O1P         1.1160   -1.4500   -0.6410 o         1 HPD     -0.930833
      4 O2P        -0.5860   -2.0140   -2.4740 o         1 HPD     -0.930833
      5 O3P         1.2560   -0.2680   -2.8830 o         1 HPD     -0.930833
      6 C5'         0.0720    1.1660   -0.5530 c3        1 HPD      0.206400
      7 O4'        -1.8260    1.1980    0.9740 oh        1 HPD     -0.661800
      8 O3'         1.5650    0.0210    1.6960 oh        1 HPD     -0.683800
      9 O1'        -0.1870   -0.8280    5.3700 oh        1 HPD     -0.628800
     10 C3'         0.1510    0.0580    1.7570 c3        1 HPD      0.141100
     11 C4'        -0.4050    1.2250    0.9190 c3        1 HPD      0.088100
     12 H5'1       -0.1450    2.1860   -0.9940 h1        1 HPD     -0.001800
     13 H5'2        1.1820    0.9860   -0.5820 h1        1 HPD     -0.001800
     14 HO'4       -2.1050    0.6110    0.2520 ho        1 HPD      0.435000
     15 HO'3        1.7820   -0.4790    0.8750 ho        1 HPD      0.493000
     16 H1'1        1.1530   -1.3220    3.8370 h1        1 HPD      0.030200
     17 H1'2       -0.5710   -1.8940    3.6200 h1        1 HPD      0.030200
     18 HO'1        0.1040   -1.6260    5.8230 ho        1 HPD      0.370000
     19 H3'        -0.2760   -0.9020    1.3500 h1        1 HPD      0.084700
     20 H4'        -0.1080    2.2020    1.3870 h1        1 HPD      0.011700
     21 C2'        -0.2390    0.2260    3.2270 c3        1 HPD     -0.081400
     22 C1'         0.0730   -1.0490    3.9840 c3        1 HPD      0.125400
     23 H2'1       -1.3320    0.4590    3.2880 hc        1 HPD      0.040700
     24 H2'2        0.3280    1.0770    3.6800 hc        1 HPD      0.040700
@<TRIPOS>BOND
     1    1    2 1   
     2    1    3 1   
     3    1    4 1   
     4    1    5 1   
     5    2    6 1   
     6    6   11 1   
     7    6   12 1   
     8    6   13 1   
     9    7   11 1   
    10    7   14 1   
    11    8   10 1   
    12    8   15 1   
    13    9   18 1   
    14    9   22 1   
    15   10   11 1   
    16   10   19 1   
    17   10   21 1   
    18   11   20 1   
    19   16   22 1   
    20   17   22 1   
    21   21   22 1   
    22   21   23 1   
    23   21   24 1   
@<TRIPOS>SUBSTRUCTURE
     1 HPD         1 TEMP              0 ****  ****    0 ROOT
