@<TRIPOS>MOLECULE
HPD
   24    20     1     0     0
SMALL
bcc


@<TRIPOS>ATOM
      1 P           0.1690   -0.9100    0.7700 p5        1 HPD      1.535500
      2 O5'         1.8020   -0.1030    0.3200 os        1 HPD     -0.505000
      3 O1P         0.7300   -2.0220    1.6010 o         1 HPD     -0.891167
      4 O2P        -0.4090    0.2570    1.4980 o         1 HPD     -0.891167
      5 O3P        -0.3990   -1.2260   -0.5710 o         1 HPD     -0.891167
      6 C5'         2.6750   -0.9220   -0.0660 c1        1 HPD     -0.054000
      7 O4'         4.3330    0.9630    0.3090 oh        1 HPD     -0.370000
      8 O3'         4.5330   -2.6220    0.7160 oh        1 HPD     -0.343000
      9 O1'         4.3450   -4.8360    2.4790 oh        1 HPD     -0.215000
     10 C3'         5.0060   -1.3360    0.5830 c2        1 HPD      0.100000
     11 C4'         4.1170   -0.3630   -0.1510 c3        1 HPD     -0.103000
     12 H5'1        2.6410   -2.3490    2.7210 ha        1 HPD      0.001750
     13 H5'2        3.1690   -2.4510    3.1430 ha        1 HPD      0.001750
     14 HO'4        3.5310    1.2000    0.7980 ho        1 HPD      0.218000
     15 HO'3        3.5760   -2.6230    0.4540 ho        1 HPD      0.296000
     16 H1'1        6.8380   -1.7820    1.5960 ha        1 HPD      0.100500
     17 H1'2        5.2880   -6.2580    3.4460 ha        1 HPD     -0.028000
     18 HO'1        4.2520   -3.8560    2.3770 ho        1 HPD      0.309000
     19 H3'         2.0230   -3.8580    1.2460 ha        1 HPD      0.001750
     20 H4'         4.4180   -0.3640   -1.2370 h1        1 HPD      0.085000
     21 C2'         6.2260   -1.0460    1.0690 c2        1 HPD     -0.379000
     22 C1'         5.2320   -5.1320    3.3830 c1        1 HPD     -0.083000
     23 H2'1        2.4300   -4.3920    1.1220 ha        1 HPD      0.001750
     24 H2'2        6.6300   -0.0350    0.9720 ha        1 HPD      0.100500
@<TRIPOS>BOND
     1    1    2 1   
     2    1    3 1   
     3    1    4 1   
     4    1    5 1   
     5    2    6 1   
     6    6   11 1   
     7    7   11 1   
     8    7   14 1   
     9    8   10 1   
    10    8   15 1   
    11    9   18 1   
    12    9   22 1   
    13   10   11 1   
    14   10   21 1   
    15   11   20 1   
    16   12   13 1   
    17   16   21 1   
    18   17   22 1   
    19   19   23 1   
    20   21   24 1   
@<TRIPOS>SUBSTRUCTURE
     1 HPD         1 TEMP              0 ****  ****    0 ROOT
