@<TRIPOS>MOLECULE
HPD
   24    22     1     0     0
SMALL
bcc


@<TRIPOS>ATOM
      1 P          -3.8550   -1.4890   -1.0500 p3        1 HPD      2.521000
      2 O5'        -2.2850   -1.5310   -0.8730 o         1 HPD     -0.729000
      3 O1P        -4.5150   -1.5310    0.3070 o         1 HPD     -1.249333
      4 O2P        -4.3020   -2.6790   -1.8650 o         1 HPD     -1.249333
      5 O3P        -4.2470   -0.2160   -1.7610 o         1 HPD     -1.249333
      6 C5'        -1.6430   -0.4150   -0.3020 c3        1 HPD      0.062000
      7 O4'         0.3500   -1.2060   -1.3460 oh        1 HPD     -0.386000
      8 O3'        -0.1090    1.1790    1.3170 oh        1 HPD     -0.408000
      9 C1'         2.8150    1.4780    0.6490 c3        1 HPD     -0.023000
     10 O1'         4.1600    1.1450    0.9120 oh        1 HPD     -0.369000
     11 C3'         0.5590    0.5570    0.2460 c3        1 HPD      0.069000
     12 C4'        -0.1700   -0.7110   -0.1350 c3        1 HPD     -0.052000
     13 C2'         1.9730    0.2210    0.6610 c3        1 HPD     -0.210000
     14 H5'1       -2.0400   -0.2230    0.5730 h1        1 HPD      0.035500
     15 H5'2       -1.7560    0.3620   -0.8880 h1        1 HPD      0.035500
     16 HO'4        0.5720   -2.0610   -1.2450 ho        1 HPD      0.204000
     17 HO'3       -0.2440    2.0370    1.1250 ho        1 HPD      0.311000
     18 H1'1        2.7500    1.9060   -0.2300 h1        1 HPD      0.082500
     19 H1'2        2.4900    2.0950    1.3370 h1        1 HPD      0.082500
     20 HO'1        4.6510    1.8860    0.9250 ho        1 HPD      0.190000
     21 H3'         0.5800    1.1630   -0.5210 h1        1 HPD      0.053000
     22 H4'        -0.0500   -1.3790    0.5690 h1        1 HPD      0.113000
     23 H2'1        2.3500   -0.4300    0.0350 hc        1 HPD      0.084000
     24 H2'2        1.9670   -0.1590    1.5620 hc        1 HPD      0.084000
@<TRIPOS>BOND
     1    1    3 1   
     2    1    4 1   
     3    1    5 1   
     4    2    6 1   
     5    6   12 1   
     6    6   14 1   
     7    6   15 1   
     8    7   12 1   
     9    7   16 1   
    10    8   11 1   
    11    8   17 1   
    12    9   10 1   
    13    9   13 1   
    14    9   18 1   
    15    9   19 1   
    16   10   20 1   
    17   11   12 1   
    18   11   13 1   
    19   11   21 1   
    20   12   22 1   
    21   13   23 1   
    22   13   24 1   
@<TRIPOS>SUBSTRUCTURE
     1 HPD         1 TEMP              0 ****  ****    0 ROOT
