@<TRIPOS>MOLECULE
HPE
   25    25     1     0     0
SMALL
bcc


@<TRIPOS>ATOM
      1 N           1.7400    0.8920    2.3130 n3        1 HPE     -0.892800
      2 CA          0.3350    0.5680    2.0930 c3        1 HPE      0.015500
      3 C          -0.2750   -0.4080    3.1550 c         1 HPE      0.888600
      4 O           0.4830   -0.8390    4.0700 o         1 HPE     -0.842800
      5 CB          0.0590   -0.0070    0.7030 c3        1 HPE     -0.057400
      6 CG          0.2820    1.0210   -0.3900 c3        1 HPE     -0.045100
      7 CD          0.0450    0.4590   -1.7480 ca        1 HPE     -0.047300
      8 CE1        -1.0920    0.8140   -2.4840 ca        1 HPE     -0.132500
      9 CE2         0.9690   -0.4310   -2.3140 ca        1 HPE     -0.132500
     10 CZ1        -1.2990    0.2930   -3.7610 ca        1 HPE     -0.135000
     11 CZ2         0.7600   -0.9510   -3.5890 ca        1 HPE     -0.135000
     12 CH         -0.3740   -0.5880   -4.3170 ca        1 HPE     -0.153000
     13 OXT        -1.5000   -0.6920    3.0470 o         1 HPE     -0.842800
     14 H           1.8510    1.0670    3.2990 hn        1 HPE      0.330300
     15 H2          2.2880    0.0730    2.1140 hn        1 HPE      0.330300
     16 HA         -0.2350    1.5370    2.1910 h1        1 HPE      0.040700
     17 HB2         0.7090   -0.9020    0.5150 hc        1 HPE      0.050200
     18 HB3        -1.0080   -0.3550    0.6930 hc        1 HPE      0.050200
     19 HG2        -0.4000    1.8960   -0.2140 hc        1 HPE      0.048200
     20 HG3         1.3360    1.4060   -0.3340 hc        1 HPE      0.048200
     21 HE1        -1.8300    1.5020   -2.0450 ha        1 HPE      0.133500
     22 HE2         1.8580   -0.7230   -1.7350 ha        1 HPE      0.133500
     23 HZ1        -2.1980    0.5760   -4.3270 ha        1 HPE      0.116500
     24 HZ2         1.4890   -1.6510   -4.0220 ha        1 HPE      0.116500
     25 HH         -0.5380   -0.9990   -5.3220 ha        1 HPE      0.114000
@<TRIPOS>BOND
     1    1    2 1   
     2    1   14 1   
     3    1   15 1   
     4    2    3 1   
     5    2    5 1   
     6    2   16 1   
     7    3    4 1   
     8    3   13 1   
     9    5    6 1   
    10    5   17 1   
    11    5   18 1   
    12    6    7 1   
    13    6   19 1   
    14    6   20 1   
    15    7    8 ar  
    16    7    9 ar  
    17    8   10 ar  
    18    8   21 1   
    19    9   11 ar  
    20    9   22 1   
    21   10   12 ar  
    22   10   23 1   
    23   11   12 ar  
    24   11   24 1   
    25   12   25 1   
@<TRIPOS>SUBSTRUCTURE
     1 HPE         1 TEMP              0 ****  ****    0 ROOT
