@<TRIPOS>MOLECULE
HPF
   30    30     1     0     0
SMALL
bcc


@<TRIPOS>ATOM
      1 C1         -0.3810   -0.5190    0.0970 ca        1 HPF     -0.097000
      2 C2          0.8810   -1.0720   -0.0860 ca        1 HPF     -0.265000
      3 C3          1.8620   -0.8580    0.8900 ca        1 HPF     -0.113000
      4 C4          1.6180   -0.0910    2.0110 ca        1 HPF     -0.195000
      5 C5          0.3460    0.5330    2.2250 ca        1 HPF      0.221600
      6 C6         -0.6500    0.2570    1.2230 ca        1 HPF     -0.084900
      7 O7         -1.9220    0.8150    1.3100 oh        1 HPF     -0.542100
      8 N8          0.1000    1.3830    3.2550 nh        1 HPF     -0.776600
      9 C9          0.7980    1.4680    4.6060 c3        1 HPF      0.657000
     10 C10        -0.2430    1.0400    5.7260 c3        1 HPF      0.039100
     11 C11         0.3250    1.4070    7.1030 c3        1 HPF      0.169400
     12 O12        -0.6890    1.3190    8.0680 os        1 HPF     -0.605200
     13 P13        -0.4270    0.3620    9.3790 p5        1 HPF      1.433800
     14 O14        -1.6030    0.4880   10.2640 o         1 HPF     -0.848500
     15 O15        -0.4450   -1.0940    8.6350 oh        1 HPF     -0.786400
     16 O16         0.9820    0.5190    9.8040 o         1 HPF     -0.848500
     17 O17         1.9110    0.7980    4.6920 o         1 HPF     -0.831500
     18 O18        -1.4840    1.7020    5.5020 oh        1 HPF     -0.653800
     19 H1         -1.1790   -0.6810   -0.6400 ha        1 HPF      0.098000
     20 H2          1.1010   -1.6730   -0.9750 ha        1 HPF      0.088000
     21 H3          2.8540   -1.3150    0.7600 ha        1 HPF      0.091000
     22 H4          2.3920    0.0510    2.7880 ha        1 HPF      0.193000
     23 HO7        -2.2840    0.5240    2.1600 ho        1 HPF      0.398000
     24 HN8        -0.8380    1.7270    3.2920 hn        1 HPF      0.386800
     25 H9          0.9030    2.6050    4.7040 h2        1 HPF     -0.058300
     26 H10        -0.4220   -0.0680    5.6780 h1        1 HPF      0.024700
     27 H111        1.1820    0.7320    7.3620 h1        1 HPF      0.034700
     28 H112        0.6890    2.4730    7.0730 h1        1 HPF      0.034700
     29 H17         0.3890   -1.3000    8.2290 ho        1 HPF      0.425000
     30 H18        -1.9440    1.7190    6.3510 ho        1 HPF      0.410000
@<TRIPOS>BOND
     1    1    2 ar  
     2    1    6 ar  
     3    1   19 1   
     4    2    3 ar  
     5    2   20 1   
     6    3    4 ar  
     7    3   21 1   
     8    4    5 ar  
     9    4   22 1   
    10    5    6 ar  
    11    5    8 1   
    12    6    7 1   
    13    7   23 1   
    14    8    9 1   
    15    8   24 1   
    16    9   10 1   
    17    9   17 1   
    18    9   25 1   
    19   10   11 1   
    20   10   18 1   
    21   10   26 1   
    22   11   12 1   
    23   11   27 1   
    24   11   28 1   
    25   12   13 1   
    26   13   14 1   
    27   13   15 1   
    28   13   16 1   
    29   15   29 1   
    30   18   30 1   
@<TRIPOS>SUBSTRUCTURE
     1 HPF         1 TEMP              0 ****  ****    0 ROOT
