@<TRIPOS>MOLECULE
HPF
   30    30     1     0     0
SMALL
bcc


@<TRIPOS>ATOM
      1 C1         -0.2870   -0.5400    0.0930 ca        1 HPF     -0.097000
      2 C2          0.9670   -1.1210   -0.0530 ca        1 HPF     -0.265000
      3 C3          1.9260   -0.9210    0.9480 ca        1 HPF     -0.113000
      4 C4          1.6690   -0.1410    2.0560 ca        1 HPF     -0.194000
      5 C5          0.4060    0.5130    2.2320 ca        1 HPF      0.221600
      6 C6         -0.5680    0.2510    1.2050 ca        1 HPF     -0.084900
      7 O7         -1.8300    0.8380    1.2540 oh        1 HPF     -0.542100
      8 N8          0.1510    1.3760    3.2480 nu        1 HPF     -0.776600
      9 C9          0.8140    1.4560    4.6170 c3        1 HPF      0.657000
     10 C10        -0.2660    1.0580    5.7110 c3        1 HPF      0.039100
     11 C11         0.2720    1.4230    7.1010 c3        1 HPF      0.169400
     12 O12        -0.7680    1.3630    8.0380 os        1 HPF     -0.605200
     13 P13        -0.5620    0.4100    9.3620 p5        1 HPF      1.433800
     14 O14        -1.7600    0.5680   10.2130 o         1 HPF     -0.848500
     15 O15        -0.5920   -1.0510    8.6270 oh        1 HPF     -0.786400
     16 O16         0.8380    0.5410    9.8240 o         1 HPF     -0.848500
     17 O17         1.9100    0.7630    4.7370 o         1 HPF     -0.831500
     18 O18        -1.4860    1.7440    5.4490 oh        1 HPF     -0.653800
     19 H1         -1.0680   -0.6900   -0.6650 ha        1 HPF      0.098000
     20 H2          1.1970   -1.7350   -0.9310 ha        1 HPF      0.088000
     21 H3          2.9110   -1.4010    0.8480 ha        1 HPF      0.091000
     22 H4          2.4250   -0.0100    2.8520 ha        1 HPF      0.193000
     23 HO7        -2.2210    0.5620    2.0960 ho        1 HPF      0.398000
     24 HN8        -0.7790    1.7410    3.2570 hn        1 HPF      0.386800
     25 H9          0.9410    2.5910    4.7100 h2        1 HPF     -0.058300
     26 H10        -0.4660   -0.0460    5.6650 h1        1 HPF      0.024700
     27 H111        0.6590    2.4810    7.0740 h1        1 HPF      0.034700
     28 H112        1.1080    0.7310    7.3880 h1        1 HPF      0.034700
     29 H17         0.2490   -1.2780    8.2460 ho        1 HPF      0.425000
     30 H18        -1.9680    1.7770    6.2850 ho        1 HPF      0.410000
@<TRIPOS>BOND
     1    1    2 ar  
     2    1    6 ar  
     3    1   19 1   
     4    2    3 ar  
     5    2   20 1   
     6    3    4 ar  
     7    3   21 1   
     8    4    5 ar  
     9    4   22 1   
    10    5    6 ar  
    11    5    8 1   
    12    6    7 1   
    13    7   23 1   
    14    8    9 1   
    15    8   24 1   
    16    9   10 1   
    17    9   17 1   
    18    9   25 1   
    19   10   11 1   
    20   10   18 1   
    21   10   26 1   
    22   11   12 1   
    23   11   27 1   
    24   11   28 1   
    25   12   13 1   
    26   13   14 1   
    27   13   15 1   
    28   13   16 1   
    29   15   29 1   
    30   18   30 1   
@<TRIPOS>SUBSTRUCTURE
     1 HPF         1 TEMP              0 ****  ****    0 ROOT
