@<TRIPOS>MOLECULE
HPF
   30    30     1     0     0
SMALL
bcc


@<TRIPOS>ATOM
      1 C1         -0.3600   -0.5750    0.1100 ca        1 HPF     -0.097000
      2 C2          0.8890   -1.1610   -0.0510 ca        1 HPF     -0.265000
      3 C3          1.8650   -0.9550    0.9320 ca        1 HPF     -0.114000
      4 C4          1.6290   -0.1640    2.0370 ca        1 HPF     -0.194000
      5 C5          0.3710    0.4960    2.2270 ca        1 HPF      0.221600
      6 C6         -0.6210    0.2280    1.2190 ca        1 HPF     -0.084900
      7 O7         -1.8800    0.8180    1.2830 oh        1 HPF     -0.542100
      8 N8          0.1350    1.3690    3.2390 nh        1 HPF     -0.776600
      9 C9          0.8200    1.4580    4.5970 c3        1 HPF      0.657000
     10 C10        -0.2420    1.0700    5.7110 c3        1 HPF      0.039100
     11 C11         0.3180    1.4450    7.0890 c3        1 HPF      0.169400
     12 O12        -0.7070    1.3930    8.0440 os        1 HPF     -0.605200
     13 P13        -0.4800    0.4500    9.3720 p5        1 HPF      1.433800
     14 O14        -1.6630    0.6150   10.2410 o         1 HPF     -0.848500
     15 O15        -0.5210   -1.0160    8.6490 oh        1 HPF     -0.786400
     16 O16         0.9270    0.5840    9.8100 o         1 HPF     -0.848500
     17 O17         1.9180    0.7660    4.7050 o         1 HPF     -0.831500
     18 O18        -1.4660    1.7550    5.4630 oh        1 HPF     -0.653800
     19 H1         -1.1550   -0.7300   -0.6330 ha        1 HPF      0.098000
     20 H2          1.1030   -1.7830   -0.9270 ha        1 HPF      0.088000
     21 H3          2.8470   -1.4380    0.8200 ha        1 HPF      0.091000
     22 H4          2.3990   -0.0270    2.8190 ha        1 HPF      0.193000
     23 HO7        -2.2580    0.5510    2.1350 ho        1 HPF      0.398000
     24 HN8        -0.7940    1.7360    3.2600 hn        1 HPF      0.386800
     25 H9          0.9500    2.5940    4.6790 h2        1 HPF     -0.058300
     26 H10        -0.4440   -0.0350    5.6770 h1        1 HPF      0.024700
     27 H111        0.7060    2.5020    7.0480 h1        1 HPF      0.034700
     28 H112        1.1580    0.7550    7.3680 h1        1 HPF      0.034700
     29 H17         0.3120   -1.2460    8.2560 ho        1 HPF      0.425000
     30 H18        -1.9350    1.7950    6.3070 ho        1 HPF      0.410000
@<TRIPOS>BOND
     1    1    2 ar  
     2    1    6 ar  
     3    1   19 1   
     4    2    3 ar  
     5    2   20 1   
     6    3    4 ar  
     7    3   21 1   
     8    4    5 ar  
     9    4   22 1   
    10    5    6 ar  
    11    5    8 1   
    12    6    7 1   
    13    7   23 1   
    14    8    9 1   
    15    8   24 1   
    16    9   10 1   
    17    9   17 1   
    18    9   25 1   
    19   10   11 1   
    20   10   18 1   
    21   10   26 1   
    22   11   12 1   
    23   11   27 1   
    24   11   28 1   
    25   12   13 1   
    26   13   14 1   
    27   13   15 1   
    28   13   16 1   
    29   15   29 1   
    30   18   30 1   
@<TRIPOS>SUBSTRUCTURE
     1 HPF         1 TEMP              0 ****  ****    0 ROOT
