@<TRIPOS>MOLECULE
HPF
   30    27     1     0     0
SMALL
bcc


@<TRIPOS>ATOM
      1 C1          4.2080    0.8740   -1.0340 c1        1 HPF     -0.064500
      2 C2          4.1560    0.5310   -2.3880 c1        1 HPF     -0.101500
      3 C3          2.9420    0.1990   -2.9730 c1        1 HPF     -0.101500
      4 C4          1.7640    0.2070   -2.2040 c1        1 HPF     -0.120500
      5 C5          1.8150    0.5470   -0.8580 c1        1 HPF      0.132800
      6 C6          3.0380    0.8820   -0.2700 c1        1 HPF     -0.000400
      7 O7          3.1140    1.0800    1.0990 oh        1 HPF     -0.507600
      8 N8          0.5780    0.6780   -0.0890 n3        1 HPF     -0.736800
      9 C9         -0.3300   -0.4080   -0.0170 c3        1 HPF      0.368300
     10 C10        -1.7240    0.1140    0.3770 c3        1 HPF      0.106100
     11 C11        -2.3300   -0.7920    1.4100 c3        1 HPF      0.203400
     12 O12        -3.6880   -0.4140    1.6370 os        1 HPF     -0.560200
     13 P13        -4.5550   -1.2990    2.5680 p5        1 HPF      1.324900
     14 O14        -5.0840   -2.4720    1.7920 o         1 HPF     -0.915167
     15 O15        -5.7350   -0.4700    3.1150 o         1 HPF     -0.915167
     16 O16        -3.7250   -1.7860    3.7020 o         1 HPF     -0.915167
     17 O17        -0.4030   -1.0330   -1.2520 oh        1 HPF     -0.621800
     18 O18        -1.6020    1.4190    0.9090 oh        1 HPF     -0.714800
     19 H1          5.0730    1.1120   -0.6150 ha        1 HPF      0.063500
     20 H2          4.9920    0.4420   -2.9060 ha        1 HPF      0.050500
     21 H3          2.9060   -0.0380   -3.9080 ha        1 HPF      0.050500
     22 H4          0.9070   -0.0280   -2.6180 ha        1 HPF      0.103500
     23 HO7         3.2620    1.9370    1.2660 ho        1 HPF      0.416000
     24 HN8         0.4380    1.4160    0.4160 hn        1 HPF      0.437800
     25 H9         -0.0280   -1.0320    0.6400 h2        1 HPF      0.068700
     26 H10        -2.2860    0.1350   -0.3950 h1        1 HPF      0.010700
     27 H111       -2.2970   -1.7410    1.0850 h1        1 HPF      0.002700
     28 H112       -1.8280   -0.7160    2.2450 h1        1 HPF      0.002700
     29 H17        -1.2490   -1.2460   -1.4260 ho        1 HPF      0.405000
     30 H18        -2.3310    1.9050    0.6940 ho        1 HPF      0.526000
@<TRIPOS>BOND
     1    1    6 3   
     2    1   19 1   
     3    2    3 3   
     4    2   20 1   
     5    3   21 1   
     6    4    5 3   
     7    4   22 1   
     8    5    8 1   
     9    6    7 1   
    10    7   23 1   
    11    8    9 1   
    12    8   24 1   
    13    9   10 1   
    14    9   17 1   
    15    9   25 1   
    16   10   11 1   
    17   10   18 1   
    18   10   26 1   
    19   11   12 1   
    20   11   27 1   
    21   11   28 1   
    22   12   13 1   
    23   13   14 1   
    24   13   15 1   
    25   13   16 1   
    26   17   29 1   
    27   18   30 1   
@<TRIPOS>SUBSTRUCTURE
     1 HPF         1 TEMP              0 ****  ****    0 ROOT
