@<TRIPOS>MOLECULE
HPF
   30    30     1     0     0
SMALL
bcc


@<TRIPOS>ATOM
      1 C1         -5.4490   -0.3980   -0.2170 ca        1 HPF     -0.097000
      2 C2         -5.7260    0.8760   -0.6960 ca        1 HPF     -0.265000
      3 C3         -4.7230    1.8530   -0.6410 ca        1 HPF     -0.114000
      4 C4         -3.4820    1.5910   -0.0980 ca        1 HPF     -0.194000
      5 C5         -3.1620    0.3040    0.4460 ca        1 HPF      0.221600
      6 C6         -4.2020   -0.6850    0.3340 ca        1 HPF     -0.084900
      7 O7         -4.0190   -1.9710    0.8360 oh        1 HPF     -0.542100
      8 N8         -1.9960    0.0380    1.0870 nh        1 HPF     -0.776600
      9 C9         -0.6490    0.7330    0.9390 c3        1 HPF      0.657000
     10 C10         0.3670   -0.2960    0.2830 c3        1 HPF      0.039100
     11 C11         1.7920    0.2620    0.4050 c3        1 HPF      0.169400
     12 O12         2.7180   -0.7490    0.1130 os        1 HPF     -0.605200
     13 P13         3.8320   -0.4600   -1.0630 p5        1 HPF      1.433800
     14 O14         4.7180   -1.6400   -1.1340 o         1 HPF     -0.848500
     15 O15         2.8310   -0.4380   -2.3570 oh        1 HPF     -0.786400
     16 O16         4.2850    0.9440   -0.9490 o         1 HPF     -0.848500
     17 O17        -0.6830    1.8640    0.2950 o         1 HPF     -0.831500
     18 O18         0.2630   -1.5540    0.9420 oh        1 HPF     -0.653800
     19 H1         -6.2070   -1.1930   -0.2610 ha        1 HPF      0.098000
     20 H2         -6.7090    1.1100   -1.1200 ha        1 HPF      0.088000
     21 H3         -4.9310    2.8550   -1.0420 ha        1 HPF      0.091000
     22 H4         -2.6900    2.3620   -0.0820 ha        1 HPF      0.193000
     23 HO7        -3.2380   -2.3250    0.3860 ho        1 HPF      0.398000
     24 HN8        -1.9010   -0.9080    1.3960 hn        1 HPF      0.386800
     25 H9         -0.3420    0.8080    2.0410 h2        1 HPF     -0.058300
     26 H10         0.1140   -0.4440   -0.8010 h1        1 HPF      0.024700
     27 H111        1.9260    1.1380   -0.2830 h1        1 HPF      0.034700
     28 H112        1.9610    0.5960    1.4680 h1        1 HPF      0.034700
     29 H17         2.3980    0.4010   -2.4620 ho        1 HPF      0.425000
     30 H18         1.0990   -2.0150    0.7890 ho        1 HPF      0.410000
@<TRIPOS>BOND
     1    1    2 ar  
     2    1    6 ar  
     3    1   19 1   
     4    2    3 ar  
     5    2   20 1   
     6    3    4 ar  
     7    3   21 1   
     8    4    5 ar  
     9    4   22 1   
    10    5    6 ar  
    11    5    8 1   
    12    6    7 1   
    13    7   23 1   
    14    8    9 1   
    15    8   24 1   
    16    9   10 1   
    17    9   17 1   
    18    9   25 1   
    19   10   11 1   
    20   10   18 1   
    21   10   26 1   
    22   11   12 1   
    23   11   27 1   
    24   11   28 1   
    25   12   13 1   
    26   13   14 1   
    27   13   15 1   
    28   13   16 1   
    29   15   29 1   
    30   18   30 1   
@<TRIPOS>SUBSTRUCTURE
     1 HPF         1 TEMP              0 ****  ****    0 ROOT
