@<TRIPOS>MOLECULE
HPG
   13    12     1     0     0
SMALL
bcc


@<TRIPOS>ATOM
      1 O1          0.3750    2.2680   -1.3960 oh        1 HPG     -0.597800
      2 C1          0.4770    0.9500   -1.9110 c3        1 HPG      0.132400
      3 C2          0.7490    0.0340   -0.7320 c3        1 HPG     -0.126400
      4 C3          0.9590   -1.3920   -1.2080 c3        1 HPG      0.132400
      5 O3          1.0990   -2.2910   -0.1250 oh        1 HPG     -0.597800
      6 H11         1.3170    0.8960   -2.6560 h1        1 HPG      0.033200
      7 H12        -0.4800    0.6610   -2.4230 h1        1 HPG      0.033200
      8 H21         1.6550    0.3950   -0.1800 hc        1 HPG      0.062700
      9 H22        -0.1120    0.0740   -0.0160 hc        1 HPG      0.062700
     10 H31         1.8610   -1.4530   -1.8750 h1        1 HPG      0.033200
     11 H32         0.0610   -1.7680   -1.7690 h1        1 HPG      0.033200
     12 HO3         1.8250   -1.9700    0.4230 ho        1 HPG      0.400000
     13 HO1         0.1700    2.8400   -2.1440 ho        1 HPG      0.400000
@<TRIPOS>BOND
     1    1    2 1   
     2    1   13 1   
     3    2    3 1   
     4    2    6 1   
     5    2    7 1   
     6    3    4 1   
     7    3    8 1   
     8    3    9 1   
     9    4    5 1   
    10    4   10 1   
    11    4   11 1   
    12    5   12 1   
@<TRIPOS>SUBSTRUCTURE
     1 HPG         1 TEMP              0 ****  ****    0 ROOT
