@<TRIPOS>MOLECULE
HPG
   13    12     1     0     0
SMALL
bcc


@<TRIPOS>ATOM
      1 O1         -2.2540   -0.0000   -0.9470 oh        1 HPG     -0.597800
      2 C1         -0.8430   -0.0000   -0.9470 c3        1 HPG      0.132400
      3 C2         -0.3390   -0.0000    0.4790 c3        1 HPG     -0.088400
      4 C3          1.1740    0.0000    0.4790 c3        1 HPG      0.132400
      5 O3          1.6440   -0.0000    1.8090 oh        1 HPG     -0.597800
      6 H11        -0.5180    0.7970   -1.4070 h1        1 HPG      0.019700
      7 H12        -0.5180   -0.7970   -1.4070 h1        1 HPG      0.019700
      8 H21        -0.6640   -0.7970    0.9390 hc        1 HPG      0.070700
      9 H22        -0.6640    0.7970    0.9390 hc        1 HPG      0.070700
     10 H31         1.4990    0.7970    0.0190 h1        1 HPG      0.019700
     11 H32         1.4990   -0.7970    0.0190 h1        1 HPG      0.019700
     12 HO3         2.5320    0.0000    1.8090 ho        1 HPG      0.400000
     13 HO1        -2.5500   -0.0000   -1.7840 ho        1 HPG      0.400000
@<TRIPOS>BOND
     1    1    2 1   
     2    1   13 1   
     3    2    3 1   
     4    2    6 1   
     5    2    7 1   
     6    3    4 1   
     7    3    8 1   
     8    3    9 1   
     9    4    5 1   
    10    4   10 1   
    11    4   11 1   
    12    5   12 1   
@<TRIPOS>SUBSTRUCTURE
     1 HPG         1 TEMP              0 ****  ****    0 ROOT
