@<TRIPOS>MOLECULE
HPH
   25    25     1     0     0
SMALL
bcc


@<TRIPOS>ATOM
      1 C          -2.7170   -0.1150    0.2020 c3        1 HPH      0.281900
      2 O          -2.8490   -1.5010    0.0100 oh        1 HPH     -0.633800
      3 CA         -1.2940    0.4280   -0.1300 c3        1 HPH      0.156500
      4 N          -1.2100    1.8690   -0.1900 n3        1 HPH     -0.891800
      5 CB         -0.3290   -0.1920    0.8960 c3        1 HPH     -0.036100
      6 CG          1.0810   -0.1720    0.4220 ca        1 HPH     -0.078300
      7 CD1         1.8380    1.0030    0.4850 ca        1 HPH     -0.117000
      8 CD2         1.6700   -1.3410   -0.0760 ca        1 HPH     -0.117000
      9 CE1         3.1630    1.0090    0.0530 ca        1 HPH     -0.132500
     10 CE2         2.9960   -1.3330   -0.5060 ca        1 HPH     -0.132500
     11 CZ          3.7450   -0.1580   -0.4430 ca        1 HPH     -0.130000
     12 OXT        -3.6260    0.4690   -0.7060 oh        1 HPH     -0.633800
     13 HO         -2.5240   -1.7160   -0.8740 ho        1 HPH      0.418000
     14 HA         -1.0240    0.0410   -1.1570 h1        1 HPH      0.074700
     15 H          -1.8440    2.2180   -0.8840 hn        1 HPH      0.356300
     16 H2         -1.4360    2.2770    0.6960 hn        1 HPH      0.356300
     17 HB2        -0.4050    0.3530    1.8750 hc        1 HPH      0.057200
     18 HB3        -0.6570   -1.2520    1.0760 hc        1 HPH      0.057200
     19 HD1         1.3790    1.9280    0.8650 ha        1 HPH      0.134000
     20 HD2         1.0850   -2.2710   -0.1260 ha        1 HPH      0.134000
     21 HE1         3.7510    1.9380    0.1020 ha        1 HPH      0.129500
     22 HE2         3.4510   -2.2550   -0.8950 ha        1 HPH      0.129500
     23 HZ          4.7910   -0.1520   -0.7820 ha        1 HPH      0.129000
     24 HC         -3.0070    0.0720    1.2730 h2        1 HPH      0.069700
     25 HXT        -4.4960    0.0920   -0.5300 ho        1 HPH      0.418000
@<TRIPOS>BOND
     1    1    2 1   
     2    1    3 1   
     3    1   12 1   
     4    1   24 1   
     5    2   13 1   
     6    3    4 1   
     7    3    5 1   
     8    3   14 1   
     9    4   15 1   
    10    4   16 1   
    11    5    6 1   
    12    5   17 1   
    13    5   18 1   
    14    6    7 ar  
    15    6    8 ar  
    16    7    9 ar  
    17    7   19 1   
    18    8   10 ar  
    19    8   20 1   
    20    9   11 ar  
    21    9   21 1   
    22   10   11 ar  
    23   10   22 1   
    24   11   23 1   
    25   12   25 1   
@<TRIPOS>SUBSTRUCTURE
     1 HPH         1 TEMP              0 ****  ****    0 ROOT
