@<TRIPOS>MOLECULE
HPI
   60    61     1     0     0
SMALL
bcc


@<TRIPOS>ATOM
      1 C01         1.9040    0.1120   -0.9210 ca        1 HPI     -0.101000
      2 C02         3.1620   -0.0860   -0.3500 ca        1 HPI     -0.116000
      3 C03         3.2830   -0.2840    1.0250 ca        1 HPI     -0.129000
      4 C04         2.1420   -0.2850    1.8370 ca        1 HPI     -0.155300
      5 C05         0.8810   -0.0930    1.2600 ca        1 HPI     -0.129000
      6 C06         0.7650    0.1070   -0.1150 ca        1 HPI     -0.116000
      7 C07         2.2700   -0.5250    3.2990 c3        1 HPI     -0.053100
      8 C08         2.1550    0.7820    4.0980 c3        1 HPI      0.071500
      9 N09         3.0060    1.8710    3.5130 n4        1 HPI     -0.732000
     10 C10         3.5040    2.8850    4.5050 c3        1 HPI     -0.033500
     11 C11         4.0720    4.1170    3.8180 c3        1 HPI     -0.098400
     12 C12         5.3180    3.8190    3.0060 c3        1 HPI     -0.039100
     13 C13         5.9630    5.0720    2.5270 ca        1 HPI     -0.102300
     14 C14         6.6230    5.9100    3.4340 ca        1 HPI     -0.123000
     15 C15         7.2380    7.0790    2.9890 ca        1 HPI     -0.120000
     16 C16         7.1990    7.4190    1.6360 ca        1 HPI     -0.115000
     17 C17         6.5430    6.5870    0.7300 ca        1 HPI     -0.120000
     18 C18         5.9270    5.4170    1.1720 ca        1 HPI     -0.123000
     19 C19         2.3560    3.3300    5.4840 c         1 HPI      0.911600
     20 O20         1.1710    3.2650    5.0650 o         1 HPI     -0.797800
     21 O21         2.7190    3.6000    6.6540 o         1 HPI     -0.797800
     22 C22         2.5340    0.4980    5.5640 c         1 HPI      0.664100
     23 O23         3.6030   -0.0750    5.8670 o         1 HPI     -0.637100
     24 N24         1.6180    0.8430    6.5490 n         1 HPI     -0.514900
     25 C25         2.1400    1.0580    7.8780 c3        1 HPI      0.064700
     26 C26         2.2480   -0.2990    8.5990 c         1 HPI      0.549100
     27 O27         1.3600   -1.0300    8.9940 o         1 HPI     -0.398100
     28 N28         3.6630   -0.7650    8.8130 n4        1 HPI     -0.758400
     29 C29         1.3140    2.0160    8.7490 c3        1 HPI     -0.210400
     30 C30         2.0030    2.1600   10.0750 c         1 HPI      0.665100
     31 O31         2.8790    1.3840   10.4910 o         1 HPI     -0.589000
     32 O32         1.6940    3.1640   10.9180 oh        1 HPI     -0.521100
     33 H01         1.8100    0.2630   -2.0080 ha        1 HPI      0.155000
     34 H02         4.0600   -0.0960   -0.9870 ha        1 HPI      0.153500
     35 H03         4.2750   -0.4710    1.4640 ha        1 HPI      0.136500
     36 H05        -0.0220   -0.1110    1.8900 ha        1 HPI      0.136500
     37 H06        -0.2300    0.2530   -0.5650 ha        1 HPI      0.153500
     38 H071        3.2490   -1.0250    3.5350 hc        1 HPI      0.090700
     39 H072        1.4480   -1.2050    3.6530 hc        1 HPI      0.090700
     40 H08         1.0850    1.1710    4.0450 hx        1 HPI      0.151700
     41 H09         2.4210    2.3680    2.8270 hn        1 HPI      0.454300
     42 H10         4.3090    2.3760    5.1120 hx        1 HPI      0.094700
     43 H111        3.2930    4.6080    3.1760 hc        1 HPI      0.096200
     44 H112        4.3220    4.8470    4.6400 hc        1 HPI      0.096200
     45 H121        6.0510    3.2470    3.6390 hc        1 HPI      0.036700
     46 H122        5.0600    3.1710    2.1250 hc        1 HPI      0.036700
     47 H14         6.6570    5.6440    4.5010 ha        1 HPI      0.128000
     48 H15         7.7550    7.7340    3.7070 ha        1 HPI      0.141500
     49 H16         7.6840    8.3420    1.2860 ha        1 HPI      0.144000
     50 H17         6.5120    6.8520   -0.3380 ha        1 HPI      0.141500
     51 H18         5.4140    4.7650    0.4500 ha        1 HPI      0.128000
     52 H24         0.8530    1.4480    6.2850 hn        1 HPI      0.377500
     53 H25         3.1770    1.5300    7.7950 h1        1 HPI      0.121700
     54 H281        3.6840   -1.7190    9.1840 hn        1 HPI      0.480467
     55 H282        4.1060   -0.1260    9.4950 hn        1 HPI      0.480467
     56 H291        1.2740    3.0170    8.2160 hc        1 HPI      0.142700
     57 H292        0.2680    1.6420    8.9050 hc        1 HPI      0.142700
     58 H092        3.8030    1.4520    3.0190 hn        1 HPI      0.454300
     59 H242        1.0440    3.7630   10.5120 ho        1 HPI      0.457000
     60 H283        4.1680   -0.7230    7.9160 hn        1 HPI      0.480467
@<TRIPOS>BOND
     1    1    2 ar  
     2    1    6 ar  
     3    1   33 1   
     4    2    3 ar  
     5    2   34 1   
     6    3    4 ar  
     7    3   35 1   
     8    4    5 ar  
     9    4    7 1   
    10    5    6 ar  
    11    5   36 1   
    12    6   37 1   
    13    7    8 1   
    14    7   38 1   
    15    7   39 1   
    16    8    9 1   
    17    8   22 1   
    18    8   40 1   
    19    9   10 1   
    20    9   41 1   
    21    9   58 1   
    22   10   11 1   
    23   10   19 1   
    24   10   42 1   
    25   11   12 1   
    26   11   43 1   
    27   11   44 1   
    28   12   13 1   
    29   12   45 1   
    30   12   46 1   
    31   13   14 ar  
    32   13   18 ar  
    33   14   15 ar  
    34   14   47 1   
    35   15   16 ar  
    36   15   48 1   
    37   16   17 ar  
    38   16   49 1   
    39   17   18 ar  
    40   17   50 1   
    41   18   51 1   
    42   19   20 1   
    43   19   21 1   
    44   22   23 2   
    45   22   24 1   
    46   24   25 1   
    47   24   52 1   
    48   25   26 1   
    49   25   29 1   
    50   25   53 1   
    51   26   27 2   
    52   26   28 1   
    53   28   54 1   
    54   28   55 1   
    55   28   60 1   
    56   29   30 1   
    57   29   56 1   
    58   29   57 1   
    59   30   31 2   
    60   30   32 1   
    61   32   59 1   
@<TRIPOS>SUBSTRUCTURE
     1 HPI         1 TEMP              0 ****  ****    0 ROOT
