@<TRIPOS>MOLECULE
HPI
   60    61     1     0     0
SMALL
bcc


@<TRIPOS>ATOM
      1 C01         1.9900   -0.0010   -0.8980 ca        1 HPI     -0.101000
      2 C02         3.2490   -0.1590   -0.3150 ca        1 HPI     -0.116000
      3 C03         3.3640   -0.3340    1.0630 ca        1 HPI     -0.129000
      4 C04         2.2180   -0.3510    1.8680 ca        1 HPI     -0.155300
      5 C05         0.9570   -0.2000    1.2780 ca        1 HPI     -0.129000
      6 C06         0.8460   -0.0230   -0.1000 ca        1 HPI     -0.116000
      7 C07         2.3410   -0.5660    3.3330 c3        1 HPI     -0.053100
      8 C08         2.1870    0.7490    4.1120 c3        1 HPI      0.071500
      9 N09         3.0150    1.8500    3.5160 ny        1 HPI     -0.732000
     10 C10         3.4800    2.8910    4.4970 c3        1 HPI     -0.033500
     11 C11         4.0220    4.1270    3.7950 c3        1 HPI     -0.098400
     12 C12         5.2800    3.8480    2.9970 c3        1 HPI     -0.039100
     13 C13         5.8970    5.1110    2.5040 ca        1 HPI     -0.102300
     14 C14         6.5290    5.9790    3.4030 ca        1 HPI     -0.123000
     15 C15         7.1170    7.1560    2.9450 ca        1 HPI     -0.120000
     16 C16         7.0800    7.4750    1.5870 ca        1 HPI     -0.115000
     17 C17         6.4530    6.6120    0.6880 ca        1 HPI     -0.120000
     18 C18         5.8630    5.4340    1.1430 ca        1 HPI     -0.123000
     19 C19         2.3140    3.3210    5.4610 c         1 HPI      0.911600
     20 O20         1.1340    3.2200    5.0350 o         1 HPI     -0.797800
     21 O21         2.6620    3.6170    6.6300 o         1 HPI     -0.797800
     22 C22         2.5630    0.4970    5.5850 c         1 HPI      0.664100
     23 O23         3.6430   -0.0450    5.9040 o         1 HPI     -0.637100
     24 N24         1.6310    0.8330    6.5580 ns        1 HPI     -0.514900
     25 C25         2.1380    1.0800    7.8880 c3        1 HPI      0.064700
     26 C26         2.2760   -0.2630    8.6290 c         1 HPI      0.549100
     27 O27         1.4030   -1.0110    9.0280 o         1 HPI     -0.398100
     28 N28         3.7000   -0.6900    8.8600 nz        1 HPI     -0.758400
     29 C29         1.2810    2.0290    8.7380 c3        1 HPI     -0.210400
     30 C30         1.9570    2.2100   10.0670 c         1 HPI      0.665100
     31 O31         2.8490    1.4620   10.5000 o         1 HPI     -0.589000
     32 O32         1.6160    3.2180   10.8930 oh        1 HPI     -0.521100
     33 H01         1.9010    0.1310   -1.9880 ha        1 HPI      0.155000
     34 H02         4.1520   -0.1560   -0.9450 ha        1 HPI      0.153500
     35 H03         4.3570   -0.4900    1.5120 ha        1 HPI      0.136500
     36 H05         0.0500   -0.2310    1.9020 ha        1 HPI      0.136500
     37 H06        -0.1490    0.0910   -0.5590 ha        1 HPI      0.153500
     38 H071        3.3300   -1.0380    3.5840 hc        1 HPI      0.090700
     39 H072        1.5340   -1.2620    3.6920 hc        1 HPI      0.090700
     40 H08         1.1090    1.1090    4.0460 hx        1 HPI      0.151700
     41 H09         2.4230    2.3220    2.8190 hn        1 HPI      0.454300
     42 H10         4.2930    2.4120    5.1170 hx        1 HPI      0.094700
     43 H111        3.2350    4.5880    3.1400 hc        1 HPI      0.096200
     44 H112        4.2470    4.8750    4.6080 hc        1 HPI      0.096200
     45 H121        6.0230    3.3050    3.6430 hc        1 HPI      0.036700
     46 H122        5.0450    3.1820    2.1240 hc        1 HPI      0.036700
     47 H14         6.5610    5.7290    4.4740 ha        1 HPI      0.128000
     48 H15         7.6120    7.8350    3.6560 ha        1 HPI      0.141500
     49 H16         7.5440    8.4050    1.2260 ha        1 HPI      0.144000
     50 H17         6.4230    6.8610   -0.3840 ha        1 HPI      0.141500
     51 H18         5.3730    4.7580    0.4270 ha        1 HPI      0.128000
     52 H24         0.9540    3.7940   10.4730 ho        1 HPI      0.457000
     53 H25         3.1630    1.5770    7.8050 h1        1 HPI      0.121700
     54 H281        3.7420   -1.6380    9.2450 hn        1 HPI      0.480467
     55 H282        4.1210   -0.0300    9.5350 hn        1 HPI      0.480467
     56 H291        0.2440    1.6310    8.8920 hc        1 HPI      0.142700
     57 H292        1.2210    3.0220    8.1910 hc        1 HPI      0.142700
     58 H092        3.8260    1.4450    3.0340 hn        1 HPI      0.454300
     59 H242        0.8530    1.4140    6.2800 hn        1 HPI      0.377500
     60 H283        4.2100   -0.6480    7.9660 hn        1 HPI      0.480467
@<TRIPOS>BOND
     1    1    2 ar  
     2    1    6 ar  
     3    1   33 1   
     4    2    3 ar  
     5    2   34 1   
     6    3    4 ar  
     7    3   35 1   
     8    4    5 ar  
     9    4    7 1   
    10    5    6 ar  
    11    5   36 1   
    12    6   37 1   
    13    7    8 1   
    14    7   38 1   
    15    7   39 1   
    16    8    9 1   
    17    8   22 1   
    18    8   40 1   
    19    9   10 1   
    20    9   41 1   
    21    9   58 1   
    22   10   11 1   
    23   10   19 1   
    24   10   42 1   
    25   11   12 1   
    26   11   43 1   
    27   11   44 1   
    28   12   13 1   
    29   12   45 1   
    30   12   46 1   
    31   13   14 ar  
    32   13   18 ar  
    33   14   15 ar  
    34   14   47 1   
    35   15   16 ar  
    36   15   48 1   
    37   16   17 ar  
    38   16   49 1   
    39   17   18 ar  
    40   17   50 1   
    41   18   51 1   
    42   19   20 1   
    43   19   21 1   
    44   22   23 2   
    45   22   24 1   
    46   24   25 1   
    47   24   59 1   
    48   25   26 1   
    49   25   29 1   
    50   25   53 1   
    51   26   27 2   
    52   26   28 1   
    53   28   54 1   
    54   28   55 1   
    55   28   60 1   
    56   29   30 1   
    57   29   56 1   
    58   29   57 1   
    59   30   31 2   
    60   30   32 1   
    61   32   52 1   
@<TRIPOS>SUBSTRUCTURE
     1 HPI         1 TEMP              0 ****  ****    0 ROOT
