@<TRIPOS>MOLECULE
HPI
   57    58     1     0     0
SMALL
bcc


@<TRIPOS>ATOM
      1 C01         1.4240   -5.4530    1.3920 ca        1 HPI     -0.157000
      2 C02         0.2910   -5.2010    0.6180 ca        1 HPI     -0.146000
      3 C03         0.2550   -4.1160   -0.2580 ca        1 HPI     -0.120000
      4 C04         1.3650   -3.2650   -0.3640 ca        1 HPI     -0.073300
      5 C05         2.4970   -3.5200    0.4230 ca        1 HPI     -0.120000
      6 C06         2.5280   -4.6070    1.2940 ca        1 HPI     -0.146000
      7 C07         1.3870   -2.1220   -1.3180 c3        1 HPI     -0.035100
      8 C08         0.2710   -1.0820   -1.0420 c3        1 HPI      0.145500
      9 N09        -0.9730   -1.4830   -1.6610 n3        1 HPI     -0.829200
     10 C10        -2.1190   -1.6660   -0.7930 c3        1 HPI      0.056500
     11 C11        -2.9450   -0.4150   -0.4720 c3        1 HPI     -0.099400
     12 C12        -2.2160    0.5530    0.4300 c3        1 HPI     -0.047100
     13 C13        -2.9750    1.7840    0.7880 ca        1 HPI     -0.061300
     14 C14        -2.2720    2.8460    1.3830 ca        1 HPI     -0.129500
     15 C15        -2.9420    4.0100    1.7500 ca        1 HPI     -0.146000
     16 C16        -4.3160    4.1320    1.5330 ca        1 HPI     -0.167000
     17 C17        -5.0160    3.0840    0.9410 ca        1 HPI     -0.146000
     18 C18        -4.3490    1.9160    0.5690 ca        1 HPI     -0.129500
     19 C19        -3.0750   -2.7360   -1.4380 c         1 HPI      0.927600
     20 O20        -3.9360   -2.3540   -2.2760 o         1 HPI     -0.845800
     21 O21        -2.9240   -3.9300   -1.0540 o         1 HPI     -0.845800
     22 C22         0.8140    0.2750   -1.5690 c         1 HPI      0.622100
     23 O23         0.5580    0.6600   -2.7350 o         1 HPI     -0.668100
     24 N24         1.6710    0.9760   -0.7430 n         1 HPI     -0.536900
     25 C25         2.1280    2.3100   -1.0740 c3        1 HPI      0.056700
     26 C26         3.3490    2.2430   -2.0300 c         1 HPI      0.643100
     27 O27         4.5150    2.5060   -1.6660 o         1 HPI     -0.654100
     28 N28         3.1050    1.9310   -3.3460 n         1 HPI     -0.675000
     29 C29         2.5320    3.1300    0.1540 c3        1 HPI     -0.199400
     30 C30         1.4060    3.2460    1.1900 c         1 HPI      0.904600
     31 O31         1.0000    4.3990    1.5060 o         1 HPI     -0.847300
     32 O32         0.9480    2.1810    1.7080 o         1 HPI     -0.847300
     33 H01         1.4440   -6.3080    2.0810 ha        1 HPI      0.103000
     34 H02        -0.5930   -5.8510    0.6970 ha        1 HPI      0.119500
     35 H03        -0.6720   -3.9300   -0.8460 ha        1 HPI      0.170000
     36 H05         3.3680   -2.8500    0.3590 ha        1 HPI      0.170000
     37 H06         3.4200   -4.7920    1.9080 ha        1 HPI      0.119500
     38 H071        1.2790   -2.5200   -2.3630 hc        1 HPI      0.050700
     39 H072        2.3830   -1.6070   -1.2560 hc        1 HPI      0.050700
     40 H08         0.1420   -1.0040    0.0800 h1        1 HPI      0.073700
     41 H09        -1.1940   -0.9360   -2.4690 hn        1 HPI      0.393800
     42 H10        -1.7560   -2.1070    0.1820 h1        1 HPI      0.043700
     43 H111       -3.2490    0.0870   -1.4270 hc        1 HPI      0.048700
     44 H112       -3.8860   -0.7690    0.0260 hc        1 HPI      0.048700
     45 H121       -1.9320    0.0300    1.3860 hc        1 HPI      0.052700
     46 H122       -1.2500    0.8690   -0.0560 hc        1 HPI      0.052700
     47 H14        -1.1760    2.7630    1.5540 ha        1 HPI      0.172000
     48 H15        -2.3740    4.8360    2.2040 ha        1 HPI      0.116500
     49 H16        -4.8410    5.0520    1.8230 ha        1 HPI      0.098000
     50 H17        -6.0960    3.1740    0.7620 ha        1 HPI      0.116500
     51 H18        -4.9130    1.1000    0.0920 ha        1 HPI      0.172000
     52 H24         1.5860    0.8180    0.2500 hn        1 HPI      0.360500
     53 H25         1.3030    2.8640   -1.6200 h1        1 HPI      0.068700
     54 H281        3.8700    1.7670   -3.9500 hn        1 HPI      0.307500
     55 H282        2.2120    1.5870   -3.6120 hn        1 HPI      0.307500
     56 H291        3.4220    2.6640    0.6460 hc        1 HPI      0.050700
     57 H292        2.8240    4.1510   -0.1990 hc        1 HPI      0.050700
@<TRIPOS>BOND
     1    1    2 ar  
     2    1    6 ar  
     3    1   33 1   
     4    2    3 ar  
     5    2   34 1   
     6    3    4 ar  
     7    3   35 1   
     8    4    5 ar  
     9    4    7 1   
    10    5    6 ar  
    11    5   36 1   
    12    6   37 1   
    13    7    8 1   
    14    7   38 1   
    15    7   39 1   
    16    8    9 1   
    17    8   22 1   
    18    8   40 1   
    19    9   10 1   
    20    9   41 1   
    21   10   11 1   
    22   10   19 1   
    23   10   42 1   
    24   11   12 1   
    25   11   43 1   
    26   11   44 1   
    27   12   13 1   
    28   12   45 1   
    29   12   46 1   
    30   13   14 ar  
    31   13   18 ar  
    32   14   15 ar  
    33   14   47 1   
    34   15   16 ar  
    35   15   48 1   
    36   16   17 ar  
    37   16   49 1   
    38   17   18 ar  
    39   17   50 1   
    40   18   51 1   
    41   19   20 1   
    42   19   21 1   
    43   22   23 2   
    44   22   24 1   
    45   24   25 1   
    46   24   52 1   
    47   25   26 1   
    48   25   29 1   
    49   25   53 1   
    50   26   27 2   
    51   26   28 1   
    52   28   54 1   
    53   28   55 1   
    54   29   30 1   
    55   29   56 1   
    56   29   57 1   
    57   30   31 1   
    58   30   32 1   
@<TRIPOS>SUBSTRUCTURE
     1 HPI         1 TEMP              0 ****  ****    0 ROOT
