@<TRIPOS>MOLECULE
HPI
   60    61     1     0     0
SMALL
bcc


@<TRIPOS>ATOM
      1 C01         2.0170    0.0170   -0.9130 ca        1 HPI     -0.101000
      2 C02         3.2710   -0.1440   -0.3230 ca        1 HPI     -0.116000
      3 C03         3.3780   -0.3230    1.0550 ca        1 HPI     -0.129000
      4 C04         2.2260   -0.3410    1.8530 ca        1 HPI     -0.155300
      5 C05         0.9700   -0.1850    1.2560 ca        1 HPI     -0.129000
      6 C06         0.8670   -0.0040   -0.1220 ca        1 HPI     -0.116000
      7 C07         2.3400   -0.5600    3.3190 c3        1 HPI     -0.053100
      8 C08         2.1840    0.7530    4.1000 c3        1 HPI      0.071500
      9 N09         3.0190    1.8530    3.5130 n4        1 HPI     -0.732000
     10 C10         3.4800    2.8900    4.5000 c3        1 HPI     -0.033500
     11 C11         4.0300    4.1270    3.8050 c3        1 HPI     -0.098400
     12 C12         5.2920    3.8470    3.0130 c3        1 HPI     -0.039100
     13 C13         5.9160    5.1090    2.5290 ca        1 HPI     -0.102300
     14 C14         6.5470    5.9700    3.4350 ca        1 HPI     -0.123000
     15 C15         7.1420    7.1470    2.9850 ca        1 HPI     -0.120000
     16 C16         7.1130    7.4730    1.6290 ca        1 HPI     -0.115000
     17 C17         6.4870    6.6170    0.7230 ca        1 HPI     -0.120000
     18 C18         5.8900    5.4390    1.1700 ca        1 HPI     -0.123000
     19 C19         2.3100    3.3210    5.4580 c         1 HPI      0.911600
     20 O20         1.1320    3.2240    5.0240 o         1 HPI     -0.797800
     21 O21         2.6510    3.6120    6.6300 o         1 HPI     -0.797800
     22 C22         2.5500    0.4950    5.5750 c         1 HPI      0.664100
     23 O23         3.6270   -0.0500    5.8990 o         1 HPI     -0.637100
     24 N24         1.6130    0.8310    6.5430 n         1 HPI     -0.514900
     25 C25         2.1120    1.0730    7.8760 c3        1 HPI      0.064700
     26 C26         2.2420   -0.2720    8.6140 c         1 HPI      0.549100
     27 O27         1.3650   -1.0190    9.0060 o         1 HPI     -0.398100
     28 N28         3.6630   -0.7040    8.8530 n4        1 HPI     -0.758400
     29 C29         1.2520    2.0220    8.7240 c3        1 HPI     -0.210400
     30 C30         1.9200    2.1970   10.0570 c         1 HPI      0.665100
     31 O31         2.8080    1.4460   10.4950 o         1 HPI     -0.589000
     32 O32         1.5760    3.2040   10.8840 oh        1 HPI     -0.521100
     33 H01         1.9340    0.1530   -2.0030 ha        1 HPI      0.155000
     34 H02         4.1780   -0.1420   -0.9480 ha        1 HPI      0.153500
     35 H03         4.3680   -0.4820    1.5100 ha        1 HPI      0.136500
     36 H05         0.0590   -0.2170    1.8740 ha        1 HPI      0.136500
     37 H06        -0.1240    0.1130   -0.5870 ha        1 HPI      0.153500
     38 H071        3.3270   -1.0350    3.5740 hc        1 HPI      0.090700
     39 H072        1.5290   -1.2550    3.6700 hc        1 HPI      0.090700
     40 H08         1.1070    1.1160    4.0280 hx        1 HPI      0.151700
     41 H09         2.4320    2.3300    2.8130 hn        1 HPI      0.454300
     42 H10         4.2880    2.4070    5.1230 hx        1 HPI      0.094700
     43 H111        4.2530    4.8710    4.6220 hc        1 HPI      0.096200
     44 H112        3.2490    4.5930    3.1480 hc        1 HPI      0.096200
     45 H121        6.0290    3.2980    3.6610 hc        1 HPI      0.036700
     46 H122        5.0600    3.1850    2.1360 hc        1 HPI      0.036700
     47 H14         6.5730    5.7160    4.5050 ha        1 HPI      0.128000
     48 H15         7.6360    7.8210    3.7020 ha        1 HPI      0.141500
     49 H16         7.5830    8.4030    1.2750 ha        1 HPI      0.144000
     50 H17         6.4630    6.8710   -0.3480 ha        1 HPI      0.141500
     51 H18         5.4010    4.7690    0.4480 ha        1 HPI      0.128000
     52 H24         0.9190    3.7820   10.4620 ho        1 HPI      0.457000
     53 H25         3.1390    1.5680    7.8010 h1        1 HPI      0.121700
     54 H281        3.7010   -1.6530    9.2360 hn        1 HPI      0.480467
     55 H282        4.1790   -0.6600    7.9630 hn        1 HPI      0.480467
     56 H291        0.2130    1.6260    8.8700 hc        1 HPI      0.142700
     57 H292        1.1980    3.0160    8.1790 hc        1 HPI      0.142700
     58 H092        3.8320    1.4480    3.0350 hn        1 HPI      0.454300
     59 H242        0.8390    1.4150    6.2620 hn        1 HPI      0.377500
     60 H283        4.0820   -0.0470    9.5330 hn        1 HPI      0.480467
@<TRIPOS>BOND
     1    1    2 ar  
     2    1    6 ar  
     3    1   33 1   
     4    2    3 ar  
     5    2   34 1   
     6    3    4 ar  
     7    3   35 1   
     8    4    5 ar  
     9    4    7 1   
    10    5    6 ar  
    11    5   36 1   
    12    6   37 1   
    13    7    8 1   
    14    7   38 1   
    15    7   39 1   
    16    8    9 1   
    17    8   22 1   
    18    8   40 1   
    19    9   10 1   
    20    9   41 1   
    21    9   58 1   
    22   10   11 1   
    23   10   19 1   
    24   10   42 1   
    25   11   12 1   
    26   11   43 1   
    27   11   44 1   
    28   12   13 1   
    29   12   45 1   
    30   12   46 1   
    31   13   14 ar  
    32   13   18 ar  
    33   14   15 ar  
    34   14   47 1   
    35   15   16 ar  
    36   15   48 1   
    37   16   17 ar  
    38   16   49 1   
    39   17   18 ar  
    40   17   50 1   
    41   18   51 1   
    42   19   20 1   
    43   19   21 1   
    44   22   23 2   
    45   22   24 1   
    46   24   25 1   
    47   24   59 1   
    48   25   26 1   
    49   25   29 1   
    50   25   53 1   
    51   26   27 2   
    52   26   28 1   
    53   28   54 1   
    54   28   55 1   
    55   28   60 1   
    56   29   30 1   
    57   29   56 1   
    58   29   57 1   
    59   30   31 2   
    60   30   32 1   
    61   32   52 1   
@<TRIPOS>SUBSTRUCTURE
     1 HPI         1 TEMP              0 ****  ****    0 ROOT
