@<TRIPOS>MOLECULE
HPJ
   49    52     1     0     0
SMALL
bcc


@<TRIPOS>ATOM
      1 C4         -0.0640   -0.0150    0.0630 c3        1 HPJ     -0.109400
      2 C14         2.8290    2.9280   -4.1790 ca        1 HPJ     -0.231100
      3 C5          1.4530    0.1840    0.0480 c3        1 HPJ      0.044300
      4 C11         2.2430    1.2070   -2.1290 ca        1 HPJ      0.437800
      5 C7          2.3700   -1.0530   -1.9520 cc        1 HPJ     -0.101100
      6 C8          2.8070   -0.7580   -3.2380 cd        1 HPJ     -0.169200
      7 C9          2.7430    0.6730   -3.3930 ca        1 HPJ     -0.207100
      8 C10         3.0400    1.5700   -4.4170 ca        1 HPJ      0.003000
      9 C13         2.3390    3.3480   -2.9060 ca        1 HPJ      0.438200
     10 C3         -0.5630    0.0900    1.4930 c3        1 HPJ      0.130400
     11 C1         -2.5690   -0.1050    2.7290 c3        1 HPJ      0.115700
     12 O2         -1.9550   -0.2180    1.4570 os        1 HPJ     -0.419600
     13 N6          2.0530    0.1240   -1.2530 na        1 HPJ     -0.168100
     14 N12         2.0450    2.5390   -1.8870 nb        1 HPJ     -0.673000
     15 C15         3.0690    3.9480   -5.2060 cc        1 HPJ      0.163400
     16 C16         2.1470    4.9610   -5.4020 cd        1 HPJ     -0.246000
     17 N17         4.2290    3.9260   -5.9800 n         1 HPJ     -0.218500
     18 O18         5.0210    2.8640   -5.8910 oh        1 HPJ     -0.392100
     19 C20         4.4620    4.8660   -7.0300 c         1 HPJ      0.683700
     20 O21         5.5240    4.7470   -7.6720 o         1 HPJ     -0.643500
     21 C22         3.4610    5.9040   -7.2000 cc        1 HPJ     -0.261200
     22 C23         2.3420    5.9500   -6.4150 cd        1 HPJ      0.084800
     23 C24         1.3300    6.9910   -6.5970 ca        1 HPJ     -0.069800
     24 C25         0.9700    7.4080   -7.8860 ca        1 HPJ     -0.107500
     25 C26         0.0060    8.3990   -8.0590 ca        1 HPJ     -0.132500
     26 C27        -0.6030    8.9860   -6.9500 ca        1 HPJ     -0.118000
     27 C28        -0.2470    8.5780   -5.6640 ca        1 HPJ     -0.132500
     28 C29         0.7120    7.5830   -5.4860 ca        1 HPJ     -0.107500
     29 H1         -0.3370   -1.0180   -0.3560 hc        1 HPJ      0.069200
     30 H2         -0.5710    0.7610   -0.5670 hc        1 HPJ      0.069200
     31 H3          1.6960    1.1880    0.5020 h1        1 HPJ      0.067200
     32 H4          1.9330   -0.6180    0.6810 h1        1 HPJ      0.067200
     33 H5          2.2700   -2.0210   -1.4570 h4        1 HPJ      0.171000
     34 H6          3.1390   -1.4660   -3.9920 ha        1 HPJ      0.163000
     35 H7          3.4320    1.2120   -5.3820 ha        1 HPJ      0.161000
     36 H8          2.1830    4.4260   -2.7100 h4        1 HPJ      0.026100
     37 H9         -0.4140    1.1270    1.8970 h1        1 HPJ      0.027700
     38 H10        -0.0360   -0.6410    2.1630 h1        1 HPJ      0.027700
     39 H11        -2.1040   -0.8150    3.4570 h1        1 HPJ      0.034367
     40 H12        -2.4890    0.9420    3.1150 h1        1 HPJ      0.034367
     41 H13        -3.6390   -0.3750    2.5460 h1        1 HPJ      0.034367
     42 H14         1.2360    4.9870   -4.7890 ha        1 HPJ      0.159000
     43 H15         5.9410    3.1990   -5.9840 ho        1 HPJ      0.442000
     44 H16         3.6630    6.6300   -8.0000 ha        1 HPJ      0.169000
     45 H17         1.4470    6.9450   -8.7630 ha        1 HPJ      0.138000
     46 H18        -0.2740    8.7190   -9.0740 ha        1 HPJ      0.135500
     47 H19        -1.3620    9.7700   -7.0880 ha        1 HPJ      0.134000
     48 H20        -0.7230    9.0410   -4.7880 ha        1 HPJ      0.135500
     49 H21         0.9940    7.2670   -4.4700 ha        1 HPJ      0.138000
@<TRIPOS>BOND
     1    1    3 1   
     2    1   10 1   
     3    1   29 1   
     4    1   30 1   
     5    2    8 ar  
     6    2    9 ar  
     7    2   15 1   
     8    3   13 1   
     9    3   31 1   
    10    3   32 1   
    11    4    7 ar  
    12    4   13 1   
    13    4   14 ar  
    14    5    6 2   
    15    5   13 1   
    16    5   33 1   
    17    6    7 1   
    18    6   34 1   
    19    7    8 ar  
    20    8   35 1   
    21    9   14 ar  
    22    9   36 1   
    23   10   12 1   
    24   10   37 1   
    25   10   38 1   
    26   11   12 1   
    27   11   39 1   
    28   11   40 1   
    29   11   41 1   
    30   15   16 2   
    31   15   17 1   
    32   16   22 1   
    33   16   42 1   
    34   17   18 1   
    35   17   19 1   
    36   18   43 1   
    37   19   20 2   
    38   19   21 1   
    39   21   22 2   
    40   21   44 1   
    41   22   23 1   
    42   23   24 ar  
    43   23   28 ar  
    44   24   25 ar  
    45   24   45 1   
    46   25   26 ar  
    47   25   46 1   
    48   26   27 ar  
    49   26   47 1   
    50   27   28 ar  
    51   27   48 1   
    52   28   49 1   
@<TRIPOS>SUBSTRUCTURE
     1 HPJ         1 TEMP              0 ****  ****    0 ROOT
