@<TRIPOS>MOLECULE
HPJ
   49    52     1     0     0
SMALL
bcc


@<TRIPOS>ATOM
      1 C4         -0.0620   -0.0110    0.0660 c3        1 HPJ     -0.109400
      2 C14         2.8280    2.9250   -4.1810 ca        1 HPJ     -0.231100
      3 C5          1.4550    0.1840    0.0480 c3        1 HPJ      0.044300
      4 C11         2.2420    1.2050   -2.1300 ca        1 HPJ      0.437800
      5 C7          2.3660   -1.0540   -1.9530 cc        1 HPJ     -0.101100
      6 C8          2.8020   -0.7610   -3.2400 cd        1 HPJ     -0.169200
      7 C9          2.7400    0.6710   -3.3950 ca        1 HPJ     -0.207100
      8 C10         3.0360    1.5670   -4.4200 ca        1 HPJ      0.003000
      9 C13         2.3410    3.3460   -2.9080 ca        1 HPJ      0.438200
     10 C3         -0.5590    0.0950    1.4960 c3        1 HPJ      0.130400
     11 C1         -2.5640   -0.0960    2.7360 c3        1 HPJ      0.115700
     12 O2         -1.9520   -0.2110    1.4630 os        1 HPJ     -0.419600
     13 N6          2.0520    0.1230   -1.2540 na        1 HPJ     -0.168100
     14 N12         2.0470    2.5380   -1.8880 nb        1 HPJ     -0.673000
     15 C15         3.0670    3.9450   -5.2090 cc        1 HPJ      0.163400
     16 C16         2.1470    4.9590   -5.4030 cd        1 HPJ     -0.246000
     17 N17         4.2250    3.9210   -5.9850 n         1 HPJ     -0.218500
     18 O18         5.0160    2.8570   -5.8970 oh        1 HPJ     -0.392100
     19 C20         4.4580    4.8610   -7.0360 c         1 HPJ      0.683700
     20 O21         5.5180    4.7400   -7.6800 o         1 HPJ     -0.643500
     21 C22         3.4580    5.9000   -7.2040 cc        1 HPJ     -0.261200
     22 C23         2.3410    5.9480   -6.4170 cd        1 HPJ      0.084800
     23 C24         1.3300    6.9900   -6.5970 ca        1 HPJ     -0.069800
     24 C25         0.9680    7.4080   -7.8860 ca        1 HPJ     -0.107500
     25 C26         0.0050    8.4000   -8.0560 ca        1 HPJ     -0.132500
     26 C27        -0.6010    8.9880   -6.9460 ca        1 HPJ     -0.117000
     27 C28        -0.2430    8.5790   -5.6620 ca        1 HPJ     -0.132500
     28 C29         0.7150    7.5830   -5.4850 ca        1 HPJ     -0.107500
     29 H1         -0.3380   -1.0140   -0.3530 hc        1 HPJ      0.069200
     30 H2         -0.5690    0.7660   -0.5630 hc        1 HPJ      0.069200
     31 H3          1.7010    1.1870    0.5020 h1        1 HPJ      0.067200
     32 H4          1.9340   -0.6190    0.6810 h1        1 HPJ      0.067200
     33 H5          2.2660   -2.0230   -1.4580 h4        1 HPJ      0.171000
     34 H6          3.1310   -1.4690   -3.9940 ha        1 HPJ      0.163000
     35 H7          3.4250    1.2080   -5.3850 ha        1 HPJ      0.161000
     36 H8          2.1860    4.4240   -2.7110 h4        1 HPJ      0.026100
     37 H9         -0.4070    1.1310    1.9000 h1        1 HPJ      0.027700
     38 H10        -0.0330   -0.6380    2.1650 h1        1 HPJ      0.027700
     39 H11        -2.0990   -0.8070    3.4630 h1        1 HPJ      0.034367
     40 H12        -2.4800    0.9500    3.1220 h1        1 HPJ      0.034367
     41 H13        -3.6350   -0.3630    2.5550 h1        1 HPJ      0.034367
     42 H14         1.2360    4.9870   -4.7890 ha        1 HPJ      0.159000
     43 H15         5.9360    3.1920   -5.9920 ho        1 HPJ      0.442000
     44 H16         3.6600    6.6250   -8.0050 ha        1 HPJ      0.169000
     45 H17         1.4430    6.9440   -8.7640 ha        1 HPJ      0.138000
     46 H18        -0.2760    8.7200   -9.0710 ha        1 HPJ      0.135500
     47 H19        -1.3590    9.7730   -7.0830 ha        1 HPJ      0.134000
     48 H20        -0.7170    9.0430   -4.7840 ha        1 HPJ      0.135500
     49 H21         0.9980    7.2670   -4.4700 ha        1 HPJ      0.138000
@<TRIPOS>BOND
     1    1    3 1   
     2    1   10 1   
     3    1   29 1   
     4    1   30 1   
     5    2    8 ar  
     6    2    9 ar  
     7    2   15 1   
     8    3   13 1   
     9    3   31 1   
    10    3   32 1   
    11    4    7 ar  
    12    4   13 1   
    13    4   14 ar  
    14    5    6 2   
    15    5   13 1   
    16    5   33 1   
    17    6    7 1   
    18    6   34 1   
    19    7    8 ar  
    20    8   35 1   
    21    9   14 ar  
    22    9   36 1   
    23   10   12 1   
    24   10   37 1   
    25   10   38 1   
    26   11   12 1   
    27   11   39 1   
    28   11   40 1   
    29   11   41 1   
    30   15   16 2   
    31   15   17 1   
    32   16   22 1   
    33   16   42 1   
    34   17   18 1   
    35   17   19 1   
    36   18   43 1   
    37   19   20 2   
    38   19   21 1   
    39   21   22 2   
    40   21   44 1   
    41   22   23 1   
    42   23   24 ar  
    43   23   28 ar  
    44   24   25 ar  
    45   24   45 1   
    46   25   26 ar  
    47   25   46 1   
    48   26   27 ar  
    49   26   47 1   
    50   27   28 ar  
    51   27   48 1   
    52   28   49 1   
@<TRIPOS>SUBSTRUCTURE
     1 HPJ         1 TEMP              0 ****  ****    0 ROOT
