@<TRIPOS>MOLECULE
HPJ
   49    52     1     0     0
SMALL
bcc


@<TRIPOS>ATOM
      1 C4         -0.0630   -0.0110    0.0650 c3        1 HPJ     -0.109400
      2 C14         2.8300    2.9270   -4.1780 ca        1 HPJ     -0.231100
      3 C5          1.4530    0.1860    0.0500 c3        1 HPJ      0.044300
      4 C11         2.2440    1.2070   -2.1270 ca        1 HPJ      0.437800
      5 C7          2.3710   -1.0520   -1.9480 cc        1 HPJ     -0.101100
      6 C8          2.8080   -0.7580   -3.2350 cd        1 HPJ     -0.169200
      7 C9          2.7440    0.6730   -3.3900 ca        1 HPJ     -0.207100
      8 C10         3.0410    1.5690   -4.4150 ca        1 HPJ      0.003000
      9 C13         2.3400    3.3480   -2.9060 ca        1 HPJ      0.438200
     10 C3         -0.5630    0.0950    1.4940 c3        1 HPJ      0.130400
     11 C1         -2.5700   -0.0980    2.7300 c3        1 HPJ      0.115700
     12 O2         -1.9560   -0.2120    1.4580 os        1 HPJ     -0.419600
     13 N6          2.0540    0.1250   -1.2510 na        1 HPJ     -0.168100
     14 N12         2.0460    2.5400   -1.8860 nb        1 HPJ     -0.673000
     15 C15         3.0690    3.9470   -5.2060 cc        1 HPJ      0.163400
     16 C16         2.1480    4.9590   -5.4030 cd        1 HPJ     -0.246000
     17 N17         4.2290    3.9250   -5.9810 n         1 HPJ     -0.218500
     18 O18         5.0220    2.8620   -5.8900 oh        1 HPJ     -0.392100
     19 C20         4.4630    4.8640   -7.0310 c         1 HPJ      0.683700
     20 O21         5.5240    4.7450   -7.6740 o         1 HPJ     -0.643500
     21 C22         3.4610    5.9010   -7.2020 cc        1 HPJ     -0.261200
     22 C23         2.3420    5.9480   -6.4160 cd        1 HPJ      0.084800
     23 C24         1.3290    6.9880   -6.5990 ca        1 HPJ     -0.069800
     24 C25         0.9690    7.4040   -7.8890 ca        1 HPJ     -0.107500
     25 C26         0.0040    8.3950   -8.0620 ca        1 HPJ     -0.132500
     26 C27        -0.6040    8.9820   -6.9530 ca        1 HPJ     -0.118000
     27 C28        -0.2480    8.5740   -5.6680 ca        1 HPJ     -0.132500
     28 C29         0.7120    7.5800   -5.4890 ca        1 HPJ     -0.107500
     29 H1         -0.5700    0.7650   -0.5660 hc        1 HPJ      0.069200
     30 H2         -0.3370   -1.0140   -0.3540 hc        1 HPJ      0.069200
     31 H3          1.9320   -0.6160    0.6840 h1        1 HPJ      0.067200
     32 H4          1.6970    1.1900    0.5040 h1        1 HPJ      0.067200
     33 H5          2.2720   -2.0200   -1.4530 h4        1 HPJ      0.171000
     34 H6          3.1410   -1.4660   -3.9880 ha        1 HPJ      0.163000
     35 H7          3.4330    1.2100   -5.3800 ha        1 HPJ      0.161000
     36 H8          2.1830    4.4260   -2.7100 h4        1 HPJ      0.026100
     37 H9         -0.0380   -0.6380    2.1640 h1        1 HPJ      0.027700
     38 H10        -0.4130    1.1310    1.8980 h1        1 HPJ      0.027700
     39 H11        -2.4890    0.9490    3.1150 h1        1 HPJ      0.034367
     40 H12        -3.6410   -0.3660    2.5460 h1        1 HPJ      0.034367
     41 H13        -2.1070   -0.8080    3.4580 h1        1 HPJ      0.034367
     42 H14         1.2360    4.9860   -4.7900 ha        1 HPJ      0.159000
     43 H15         5.9410    3.1980   -5.9840 ho        1 HPJ      0.442000
     44 H16         3.6630    6.6260   -8.0020 ha        1 HPJ      0.169000
     45 H17         1.4460    6.9400   -8.7650 ha        1 HPJ      0.138000
     46 H18        -0.2760    8.7130   -9.0770 ha        1 HPJ      0.135500
     47 H19        -1.3640    9.7650   -7.0920 ha        1 HPJ      0.134000
     48 H20        -0.7240    9.0380   -4.7910 ha        1 HPJ      0.135500
     49 H21         0.9940    7.2650   -4.4730 ha        1 HPJ      0.138000
@<TRIPOS>BOND
     1    1    3 1   
     2    1   10 1   
     3    1   29 1   
     4    1   30 1   
     5    2    8 ar  
     6    2    9 ar  
     7    2   15 1   
     8    3   13 1   
     9    3   31 1   
    10    3   32 1   
    11    4    7 ar  
    12    4   13 1   
    13    4   14 ar  
    14    5    6 2   
    15    5   13 1   
    16    5   33 1   
    17    6    7 1   
    18    6   34 1   
    19    7    8 ar  
    20    8   35 1   
    21    9   14 ar  
    22    9   36 1   
    23   10   12 1   
    24   10   37 1   
    25   10   38 1   
    26   11   12 1   
    27   11   39 1   
    28   11   40 1   
    29   11   41 1   
    30   15   16 2   
    31   15   17 1   
    32   16   22 1   
    33   16   42 1   
    34   17   18 1   
    35   17   19 1   
    36   18   43 1   
    37   19   20 2   
    38   19   21 1   
    39   21   22 2   
    40   21   44 1   
    41   22   23 1   
    42   23   24 ar  
    43   23   28 ar  
    44   24   25 ar  
    45   24   45 1   
    46   25   26 ar  
    47   25   46 1   
    48   26   27 ar  
    49   26   47 1   
    50   27   28 ar  
    51   27   48 1   
    52   28   49 1   
@<TRIPOS>SUBSTRUCTURE
     1 HPJ         1 TEMP              0 ****  ****    0 ROOT
