@<TRIPOS>MOLECULE
HPJ
   49    42     1     0     0
SMALL
bcc


@<TRIPOS>ATOM
      1 C4          0.8930   -5.4300   -1.3960 c3        1 HPJ     -0.182000
      2 C14         0.5260    0.8830    0.3030 c1        1 HPJ     -0.154000
      3 C5          0.4670   -4.3970   -0.2460 c3        1 HPJ     -0.016000
      4 C11         0.8040   -1.8570   -0.2100 c1        1 HPJ      0.045000
      5 C7          2.5830   -3.2250   -0.1490 c1        1 HPJ     -0.069000
      6 C8          3.0130   -1.9590    0.1830 c1        1 HPJ     -0.190000
      7 C9          1.9120   -1.1080    0.1460 c1        1 HPJ     -0.131000
      8 C10         1.7750    0.2760    0.4060 c1        1 HPJ     -0.017000
      9 C13        -0.5700    0.1340   -0.0500 c2        1 HPJ     -0.012000
     10 C3          0.3750   -6.8340   -1.0310 c3        1 HPJ     -0.023000
     11 C1          1.3650   -9.0120   -1.2280 c3        1 HPJ     -0.073000
     12 O2          1.5290   -7.7320   -0.7610 os        1 HPJ     -0.287000
     13 N6          1.2130   -3.1640   -0.3930 n2        1 HPJ     -0.150000
     14 N12        -0.4300   -1.2550   -0.3100 n1        1 HPJ     -0.148000
     15 C15        -0.1600    2.0470    0.9850 c1        1 HPJ      0.149000
     16 C16        -0.4040    3.3810    0.1940 c1        1 HPJ     -0.246000
     17 N17        -0.7160    1.8850    2.3210 n2        1 HPJ     -0.143000
     18 O18        -0.4370    0.7380    3.0580 oh        1 HPJ     -0.196000
     19 C20        -1.5070    2.9810    2.9320 c2        1 HPJ      0.323000
     20 O21        -1.8270    2.9210    4.1510 o         1 HPJ     -0.367000
     21 C22        -1.7980    4.2270    2.1450 c2        1 HPJ     -0.242000
     22 C23        -1.1670    4.4310    0.7880 c1        1 HPJ      0.073000
     23 C24        -1.4530    5.7800   -0.0320 c2        1 HPJ     -0.059000
     24 C25        -2.6020    5.8800   -0.8310 c2        1 HPJ     -0.108000
     25 C26        -2.9030    7.0720   -1.4680 c1        1 HPJ     -0.133000
     26 C27        -2.0700    8.1640   -1.3170 c1        1 HPJ     -0.125500
     27 C28        -0.9210    8.0610   -0.5160 c1        1 HPJ     -0.125500
     28 C29        -0.6230    6.8630    0.1220 c1        1 HPJ     -0.107000
     29 H1          0.4820   -5.1350   -2.2960 hc        1 HPJ      0.105000
     30 H2          1.9510   -5.4500   -1.4810 hc        1 HPJ      0.105000
     31 H3          0.6700   -4.8200    0.6990 h1        1 HPJ      0.113500
     32 H4         -0.5080   -4.2060   -0.3200 h1        1 HPJ      0.113500
     33 H5          3.1450   -4.0010   -0.2640 DU        1 HPJ      0.167500
     34 H6          3.9540   -1.6970    0.4100 DU        1 HPJ      0.167500
     35 H7          2.5260    0.7830    0.6460 ha        1 HPJ      0.147000
     36 H8         -1.4370    0.5540   -0.1250 h4        1 HPJ      0.178000
     37 H9         -0.1260   -7.1740   -1.7370 h1        1 HPJ      0.073000
     38 H10        -0.1900   -6.7770   -0.2300 h1        1 HPJ      0.073000
     39 H11         1.3150   -9.0020   -2.2460 h1        1 HPJ      0.073667
     40 H12         0.5410   -9.3880   -0.8660 h1        1 HPJ      0.073667
     41 H13         2.1220   -9.5570   -0.9460 h1        1 HPJ      0.073667
     42 H14         0.0120    3.5120   -0.6970 ha        1 HPJ      0.158000
     43 H15         0.2920    0.8560    3.5120 ho        1 HPJ      0.241000
     44 H16        -2.3180    4.9450    2.5490 ha        1 HPJ      0.169000
     45 H17        -3.1890    5.1120   -0.9360 ha        1 HPJ      0.139000
     46 H18        -3.7080    7.1390   -2.0280 ha        1 HPJ      0.135000
     47 H19        -2.2620    8.9310   -1.7260 ha        1 HPJ      0.135000
     48 H20        -0.3270    8.8350   -0.4060 ha        1 HPJ      0.135000
     49 H21         0.1900    6.7900    0.6910 ha        1 HPJ      0.140000
@<TRIPOS>BOND
     1    1    3 1   
     2    1   10 1   
     3    1   29 1   
     4    1   30 1   
     5    2    8 1   
     6    2    9 1   
     7    3   13 1   
     8    3   31 1   
     9    3   32 1   
    10    4    7 1   
    11    5    6 1   
    12    5   13 1   
    13    6    7 1   
    14    8   35 1   
    15    9   14 1   
    16    9   36 1   
    17   10   12 1   
    18   10   37 1   
    19   10   38 1   
    20   11   12 1   
    21   11   39 1   
    22   11   40 1   
    23   11   41 1   
    24   15   16 1   
    25   16   42 1   
    26   17   18 1   
    27   17   19 1   
    28   18   43 1   
    29   19   20 1   
    30   19   21 1   
    31   21   22 1   
    32   21   44 1   
    33   22   23 1   
    34   23   24 1   
    35   23   28 1   
    36   24   25 1   
    37   24   45 1   
    38   25   46 1   
    39   26   27 1   
    40   26   47 1   
    41   27   48 1   
    42   28   49 1   
@<TRIPOS>SUBSTRUCTURE
     1 HPJ         1 TEMP              0 ****  ****    0 ROOT
