@<TRIPOS>MOLECULE
HPJ
   49    52     1     0     0
SMALL
bcc


@<TRIPOS>ATOM
      1 C4         -5.3930    0.9490   -0.2320 c3        1 HPJ     -0.109400
      2 C14         0.1310   -1.1520    0.0780 ca        1 HPJ     -0.231100
      3 C5         -4.9770   -0.2240    0.6580 c3        1 HPJ      0.044300
      4 C11        -2.6000   -0.9590    0.1900 ca        1 HPJ      0.437800
      5 C7         -4.2540   -2.1140   -0.8500 cc        1 HPJ     -0.101100
      6 C8         -3.0680   -2.6740   -1.3090 cd        1 HPJ     -0.169200
      7 C9         -1.9870   -1.9670   -0.6690 ca        1 HPJ     -0.207100
      8 C10        -0.5970   -2.0490   -0.7040 ca        1 HPJ      0.003000
      9 C13        -0.5650   -0.2040    0.8870 ca        1 HPJ      0.438200
     10 C3         -6.4180    1.7920    0.5060 c3        1 HPJ      0.130400
     11 C1         -7.7790    3.6950    0.1660 c3        1 HPJ      0.115700
     12 O2         -6.8510    2.7940   -0.4120 os        1 HPJ     -0.419600
     13 N6         -3.9950   -1.0950    0.0820 na        1 HPJ     -0.168100
     14 N12        -1.8910   -0.0830    0.9670 nb        1 HPJ     -0.673000
     15 C15         1.5980   -1.1260    0.0780 cc        1 HPJ      0.163400
     16 C16         2.2680    0.0820    0.0160 cd        1 HPJ     -0.246000
     17 N17         2.3340   -2.3080    0.1620 n         1 HPJ     -0.218500
     18 O18         1.6820   -3.4600    0.0610 oh        1 HPJ     -0.392100
     19 C20         3.7610   -2.3220    0.1020 c         1 HPJ      0.683700
     20 O21         4.3210   -3.4340    0.1690 o         1 HPJ     -0.643500
     21 C22         4.4160   -1.0290    0.0280 cc        1 HPJ     -0.261200
     22 C23         3.6960    0.1330   -0.0140 cd        1 HPJ      0.084800
     23 C24         4.3590    1.4350   -0.1010 ca        1 HPJ     -0.069800
     24 C25         5.4910    1.5980   -0.9120 ca        1 HPJ     -0.107500
     25 C26         6.1220    2.8380   -0.9940 ca        1 HPJ     -0.132500
     26 C27         5.6360    3.9220   -0.2640 ca        1 HPJ     -0.118000
     27 C28         4.5120    3.7650    0.5480 ca        1 HPJ     -0.132500
     28 C29         3.8740    2.5290    0.6290 ca        1 HPJ     -0.107500
     29 H1         -4.5060    1.5820   -0.4920 hc        1 HPJ      0.069200
     30 H2         -5.8350    0.5800   -1.1940 hc        1 HPJ      0.069200
     31 H3         -4.5650    0.1800    1.6270 h1        1 HPJ      0.067200
     32 H4         -5.8890   -0.8460    0.8920 h1        1 HPJ      0.067200
     33 H5         -5.2860   -2.3710   -1.1000 h4        1 HPJ      0.171000
     34 H6         -2.9640   -3.4930   -2.0150 ha        1 HPJ      0.163000
     35 H7         -0.0930   -2.8030   -1.3290 ha        1 HPJ      0.161000
     36 H8          0.0090    0.5010    1.5180 h4        1 HPJ      0.026100
     37 H9         -7.2980    1.1730    0.8260 h1        1 HPJ      0.027700
     38 H10        -5.9640    2.2770    1.4110 h1        1 HPJ      0.027700
     39 H11        -8.0240    4.4090   -0.6600 h1        1 HPJ      0.034367
     40 H12        -8.6970    3.1540    0.5040 h1        1 HPJ      0.034367
     41 H13        -7.3180    4.2370    1.0290 h1        1 HPJ      0.034367
     42 H14         1.6930    1.0160   -0.0430 ha        1 HPJ      0.159000
     43 H15         2.1410   -4.0890    0.6620 ho        1 HPJ      0.442000
     44 H16         5.5150   -1.0550   -0.0010 ha        1 HPJ      0.169000
     45 H17         5.8760    0.7450   -1.4920 ha        1 HPJ      0.138000
     46 H18         7.0070    2.9590   -1.6360 ha        1 HPJ      0.135500
     47 H19         6.1370    4.8990   -0.3280 ha        1 HPJ      0.134000
     48 H20         4.1280    4.6170    1.1270 ha        1 HPJ      0.135500
     49 H21         2.9900    2.4080    1.2740 ha        1 HPJ      0.138000
@<TRIPOS>BOND
     1    1    3 1   
     2    1   10 1   
     3    1   29 1   
     4    1   30 1   
     5    2    8 ar  
     6    2    9 ar  
     7    2   15 1   
     8    3   13 1   
     9    3   31 1   
    10    3   32 1   
    11    4    7 ar  
    12    4   13 1   
    13    4   14 ar  
    14    5    6 2   
    15    5   13 1   
    16    5   33 1   
    17    6    7 1   
    18    6   34 1   
    19    7    8 ar  
    20    8   35 1   
    21    9   14 ar  
    22    9   36 1   
    23   10   12 1   
    24   10   37 1   
    25   10   38 1   
    26   11   12 1   
    27   11   39 1   
    28   11   40 1   
    29   11   41 1   
    30   15   16 2   
    31   15   17 1   
    32   16   22 1   
    33   16   42 1   
    34   17   18 1   
    35   17   19 1   
    36   18   43 1   
    37   19   20 2   
    38   19   21 1   
    39   21   22 2   
    40   21   44 1   
    41   22   23 1   
    42   23   24 ar  
    43   23   28 ar  
    44   24   25 ar  
    45   24   45 1   
    46   25   26 ar  
    47   25   46 1   
    48   26   27 ar  
    49   26   47 1   
    50   27   28 ar  
    51   27   48 1   
    52   28   49 1   
@<TRIPOS>SUBSTRUCTURE
     1 HPJ         1 TEMP              0 ****  ****    0 ROOT
