@<TRIPOS>MOLECULE
HPK
   25    25     1     0     0
SMALL
bcc


@<TRIPOS>ATOM
      1 CB3         4.3600   -1.5450    0.1990 ca        1 HPK     -0.145000
      2 CB4         5.1610   -0.7990   -0.6660 ca        1 HPK     -0.117000
      3 CB5         4.7540    0.4720   -1.0690 ca        1 HPK     -0.145000
      4 CB6         3.5480    0.9980   -0.6080 ca        1 HPK     -0.087500
      5 CB1         2.7350    0.2490    0.2520 ca        1 HPK     -0.162600
      6 CB2         3.1490   -1.0260    0.6550 ca        1 HPK     -0.087500
      7 CA6         1.4510    0.8290    0.7230 c         1 HPK      0.579700
      8 OA4         1.3300    2.0500    0.8760 o         1 HPK     -0.529100
      9 CA5         0.3500   -0.1530    1.0070 c3        1 HPK     -0.137200
     10 CA4        -1.0080    0.4050    0.7910 c2        1 HPK     -0.174200
     11 CA3        -2.0510   -0.3570    0.4530 ce        1 HPK     -0.203200
     12 CA2        -3.4180    0.1630    0.2030 c         1 HPK      0.452300
     13 OA3        -3.8570    1.1530    0.8000 o         1 HPK     -0.574100
     14 CA1        -4.2160   -0.6760   -0.8130 c         1 HPK      0.858600
     15 OA2        -4.5790   -1.8190   -0.4260 o         1 HPK     -0.810800
     16 OA1        -4.4130   -0.1830   -1.9530 o         1 HPK     -0.810800
     17 HB3         4.6800   -2.5470    0.5190 ha        1 HPK      0.129000
     18 HB4         6.1120   -1.2140   -1.0300 ha        1 HPK      0.125000
     19 HB5         5.3830    1.0620   -1.7510 ha        1 HPK      0.129000
     20 HB6         3.2210    2.0060   -0.9110 ha        1 HPK      0.145000
     21 HB2         2.5190   -1.6200    1.3350 ha        1 HPK      0.145000
     22 HA51        0.4960   -1.0720    0.3770 hc        1 HPK      0.066200
     23 HA52        0.4520   -0.4620    2.0860 hc        1 HPK      0.066200
     24 HA4        -1.1120    1.4930    0.9380 ha        1 HPK      0.149000
     25 HA3        -1.9650   -1.4470    0.3000 ha        1 HPK      0.139000
@<TRIPOS>BOND
     1    1    2 ar  
     2    1    6 ar  
     3    1   17 1   
     4    2    3 ar  
     5    2   18 1   
     6    3    4 ar  
     7    3   19 1   
     8    4    5 ar  
     9    4   20 1   
    10    5    6 ar  
    11    5    7 1   
    12    6   21 1   
    13    7    8 2   
    14    7    9 1   
    15    9   10 1   
    16    9   22 1   
    17    9   23 1   
    18   10   11 2   
    19   10   24 1   
    20   11   12 1   
    21   11   25 1   
    22   12   13 2   
    23   12   14 1   
    24   14   15 1   
    25   14   16 1   
@<TRIPOS>SUBSTRUCTURE
     1 HPK         1 TEMP              0 ****  ****    0 ROOT
