@<TRIPOS>MOLECULE
HPK
   25    25     1     0     0
SMALL
bcc


@<TRIPOS>ATOM
      1 CB3        -0.6910    1.0080    0.8130 ca        1 HPK     -0.156000
      2 CB4         0.4990    0.5540    0.2500 ca        1 HPK     -0.121000
      3 CB5         1.3150   -0.3270    0.9640 ca        1 HPK     -0.156000
      4 CB6         0.9370   -0.7460    2.2350 ca        1 HPK     -0.081000
      5 CB1        -0.2550   -0.2790    2.8120 ca        1 HPK     -0.175600
      6 CB2        -1.0740    0.5980    2.0930 ca        1 HPK     -0.081000
      7 CA6        -0.6130   -0.7550    4.1690 c         1 HPK      0.593700
      8 OA4        -0.2520   -1.8770    4.5580 o         1 HPK     -0.574100
      9 CA5        -1.3710    0.1820    5.0690 c3        1 HPK     -0.164200
     10 CA4        -2.5160   -0.4930    5.7280 c2        1 HPK     -0.156200
     11 CA3        -3.6580    0.1160    6.0540 ce        1 HPK     -0.216200
     12 CA2        -3.9890    1.5360    5.7850 c         1 HPK      0.456300
     13 OA3        -4.0210    2.3650    6.7030 o         1 HPK     -0.573100
     14 CA1        -4.3210    1.8760    4.3210 c         1 HPK      0.864600
     15 OA2        -3.3550    2.2300    3.5870 o         1 HPK     -0.815300
     16 OA1        -5.5170    1.7620    3.9540 o         1 HPK     -0.815300
     17 HB3        -1.3410    1.7000    0.2560 ha        1 HPK      0.128500
     18 HB4         0.7970    0.8850   -0.7550 ha        1 HPK      0.116000
     19 HB5         2.2520   -0.6910    0.5210 ha        1 HPK      0.128500
     20 HB6         1.5630   -1.4540    2.8000 ha        1 HPK      0.176500
     21 HB2        -2.0270    0.9790    2.5200 ha        1 HPK      0.176500
     22 HA51       -1.7310    1.0940    4.5070 hc        1 HPK      0.099700
     23 HA52       -0.6500    0.5380    5.8580 hc        1 HPK      0.099700
     24 HA4        -2.3640   -1.5640    5.9440 ha        1 HPK      0.119000
     25 HA3        -4.4730   -0.4410    6.5460 ha        1 HPK      0.127000
@<TRIPOS>BOND
     1    1    2 ar  
     2    1    6 ar  
     3    1   17 1   
     4    2    3 ar  
     5    2   18 1   
     6    3    4 ar  
     7    3   19 1   
     8    4    5 ar  
     9    4   20 1   
    10    5    6 ar  
    11    5    7 1   
    12    6   21 1   
    13    7    8 2   
    14    7    9 1   
    15    9   10 1   
    16    9   22 1   
    17    9   23 1   
    18   10   11 2   
    19   10   24 1   
    20   11   12 1   
    21   11   25 1   
    22   12   13 2   
    23   12   14 1   
    24   14   15 1   
    25   14   16 1   
@<TRIPOS>SUBSTRUCTURE
     1 HPK         1 TEMP              0 ****  ****    0 ROOT
