@<TRIPOS>MOLECULE
HPL
   27    26     1     0     0
SMALL
bcc


@<TRIPOS>ATOM
      1 C1         -3.0670    0.0480   -1.6100 c3        1 HPL     -0.080400
      2 C2         -1.5750   -0.0520   -1.5960 c3        1 HPL     -0.079400
      3 C3         -1.0590    0.0480   -0.1280 c3        1 HPL     -0.079400
      4 C4          0.4840   -0.0580   -0.1150 c3        1 HPL     -0.077400
      5 C5          0.9990    0.1100    1.3250 c3        1 HPL     -0.110400
      6 C6         -3.5630   -0.0420   -3.0290 c3        1 HPL     -0.093100
      7 C12         2.5220   -0.0870    1.3520 c3        1 HPL      0.092000
      8 N13         3.0000    0.0470    2.7020 n         1 HPL     -0.581900
      9 C14         4.3990   -0.0070    2.9690 c         1 HPL      0.653900
     10 O16         4.8060    0.1630    4.0880 o         1 HPL     -0.606100
     11 H11        -3.3380    0.8980   -1.2250 hc        1 HPL      0.039700
     12 H12        -3.4460   -0.6810   -1.0870 hc        1 HPL      0.039700
     13 H21        -1.3030   -0.9090   -1.9800 hc        1 HPL      0.039700
     14 H22        -1.1960    0.6750   -2.1240 hc        1 HPL      0.039700
     15 H31        -1.3320    0.9150    0.2580 hc        1 HPL      0.041700
     16 H32        -1.4450   -0.6890    0.4110 hc        1 HPL      0.041700
     17 H41         0.7540   -0.9360   -0.4580 hc        1 HPL      0.041200
     18 H42         0.8610    0.6400   -0.6780 hc        1 HPL      0.041200
     19 H51         0.5720   -0.5570    1.9060 hc        1 HPL      0.048200
     20 H52         0.7810    1.0030    1.6430 hc        1 HPL      0.048200
     21 H61        -4.5430   -0.0090   -3.0360 hc        1 HPL      0.033033
     22 H62        -3.2600   -0.8880   -3.4300 hc        1 HPL      0.033033
     23 H63        -3.2070    0.7100   -3.5480 hc        1 HPL      0.033033
     24 H121        2.9500    0.5920    0.7840 h1        1 HPL      0.049200
     25 H122        2.7440   -0.9900    1.0120 h1        1 HPL      0.049200
     26 H13         2.4250    0.1960    3.3670 hn        1 HPL      0.311500
     27 H14         5.0370   -0.1410    2.2270 h5        1 HPL      0.030200
@<TRIPOS>BOND
     1    1    2 1   
     2    1    6 1   
     3    1   11 1   
     4    1   12 1   
     5    2    3 1   
     6    2   13 1   
     7    2   14 1   
     8    3    4 1   
     9    3   15 1   
    10    3   16 1   
    11    4    5 1   
    12    4   17 1   
    13    4   18 1   
    14    5    7 1   
    15    5   19 1   
    16    5   20 1   
    17    6   21 1   
    18    6   22 1   
    19    6   23 1   
    20    7    8 1   
    21    7   24 1   
    22    7   25 1   
    23    8    9 1   
    24    8   26 1   
    25    9   10 2   
    26    9   27 1   
@<TRIPOS>SUBSTRUCTURE
     1 HPL         1 TEMP              0 ****  ****    0 ROOT
