@<TRIPOS>MOLECULE
HPL
   27    26     1     0     0
SMALL
bcc


@<TRIPOS>ATOM
      1 C1          0.3860   -0.0000    4.2820 c3        1 HPL     -0.079400
      2 C2         -0.3930   -0.0000    2.9840 c3        1 HPL     -0.079400
      3 C3          0.5330   -0.0000    1.7860 c3        1 HPL     -0.079400
      4 C4         -0.2480   -0.0000    0.4900 c3        1 HPL     -0.077400
      5 C5          0.6800    0.0000   -0.7060 c3        1 HPL     -0.093400
      6 C6         -0.5310    0.0000    5.4770 c3        1 HPL     -0.093100
      7 C12        -0.1370   -0.0000   -1.9960 c3        1 HPL      0.089000
      8 N13         0.6680    0.0000   -3.1890 n         1 HPL     -0.588900
      9 C14         0.1090    0.0000   -4.4420 c         1 HPL      0.655900
     10 O16        -1.1180    0.0000   -4.6360 o         1 HPL     -0.606100
     11 H11         1.0520    0.9020    4.3180 hc        1 HPL      0.038700
     12 H12         1.0520   -0.9020    4.3180 hc        1 HPL      0.038700
     13 H21        -1.0580   -0.9030    2.9450 hc        1 HPL      0.041700
     14 H22        -1.0580    0.9030    2.9450 hc        1 HPL      0.041700
     15 H31         1.1980    0.9030    1.8250 hc        1 HPL      0.039700
     16 H32         1.1980   -0.9030    1.8250 hc        1 HPL      0.039700
     17 H41        -0.9130   -0.9030    0.4510 hc        1 HPL      0.045700
     18 H42        -0.9130    0.9030    0.4510 hc        1 HPL      0.045700
     19 H51         1.3420    0.9040   -0.6670 hc        1 HPL      0.043700
     20 H52         1.3420   -0.9040   -0.6670 hc        1 HPL      0.043700
     21 H61         0.0630    0.0000    6.4230 hc        1 HPL      0.033700
     22 H62        -1.1860    0.9050    5.4720 hc        1 HPL      0.033700
     23 H63        -1.1860   -0.9050    5.4720 hc        1 HPL      0.033700
     24 H121       -0.8090   -0.9070   -2.0130 h1        1 HPL      0.050700
     25 H122       -0.8090    0.9070   -2.0130 h1        1 HPL      0.050700
     26 H13         1.6530    0.0000   -3.0860 hn        1 HPL      0.309500
     27 H14         0.8540    0.0000   -5.2720 h5        1 HPL      0.024200
@<TRIPOS>BOND
     1    1    2 1   
     2    1    6 1   
     3    1   11 1   
     4    1   12 1   
     5    2    3 1   
     6    2   13 1   
     7    2   14 1   
     8    3    4 1   
     9    3   15 1   
    10    3   16 1   
    11    4    5 1   
    12    4   17 1   
    13    4   18 1   
    14    5    7 1   
    15    5   19 1   
    16    5   20 1   
    17    6   21 1   
    18    6   22 1   
    19    6   23 1   
    20    7    8 1   
    21    7   24 1   
    22    7   25 1   
    23    8    9 1   
    24    8   26 1   
    25    9   10 2   
    26    9   27 1   
@<TRIPOS>SUBSTRUCTURE
     1 HPL         1 TEMP              0 ****  ****    0 ROOT
