@<TRIPOS>MOLECULE
HPL
   28    27     1     0     0
SMALL
bcc


@<TRIPOS>ATOM
      1 C1          0.0160   -0.0010   -0.0520 c3        1 HPL     -0.079400
      2 C2          1.5290   -0.0000    0.0070 c3        1 HPL     -0.080400
      3 C3          2.0190    0.0010    1.4400 c3        1 HPL     -0.079400
      4 C4          3.5330    0.0010    1.4930 c3        1 HPL     -0.078400
      5 C5          4.0160    0.0020    2.9320 c3        1 HPL     -0.108400
      6 C6         -0.4770   -0.0020   -1.4760 c3        1 HPL     -0.096100
      7 C12         5.5380    0.0030    2.9460 c3        1 HPL      0.097800
      8 N13         6.0970    0.0040    4.3350 n4        1 HPL     -0.696800
      9 C14         7.6040    0.0040    4.3840 c         1 HPL      0.543900
     10 O16         8.2280    0.0040    3.3440 o         1 HPL     -0.359100
     11 H11        -0.3800    0.9020    0.4840 hc        1 HPL      0.042700
     12 H12        -0.3790   -0.9040    0.4840 hc        1 HPL      0.042700
     13 H21         1.9260   -0.9030   -0.5270 hc        1 HPL      0.046700
     14 H22         1.9250    0.9030   -0.5280 hc        1 HPL      0.046700
     15 H31         1.6210    0.9040    1.9730 hc        1 HPL      0.047700
     16 H32         1.6220   -0.9030    1.9730 hc        1 HPL      0.047700
     17 H41         3.9270    0.9060    0.9600 hc        1 HPL      0.057700
     18 H42         3.9280   -0.9030    0.9600 hc        1 HPL      0.057700
     19 H51         3.6160   -0.9050    3.4580 hc        1 HPL      0.066700
     20 H52         3.6160    0.9100    3.4580 hc        1 HPL      0.066700
     21 H61        -1.5930   -0.0020   -1.4970 hc        1 HPL      0.040367
     22 H62        -0.1150    0.9040   -2.0210 hc        1 HPL      0.040367
     23 H63        -0.1140   -0.9070   -2.0200 hc        1 HPL      0.040367
     24 H121        5.9360    0.9160    2.4160 hx        1 HPL      0.115700
     25 H122        5.9360   -0.9110    2.4170 hx        1 HPL      0.115700
     26 H13         5.7510    0.8340    4.8320 hn        1 HPL      0.462800
     27 H14         7.9900    0.0050    5.4300 hx        1 HPL      0.135200
     28 H132        5.7510   -0.8260    4.8330 hn        1 HPL      0.462800
@<TRIPOS>BOND
     1    1    2 1   
     2    1    6 1   
     3    1   11 1   
     4    1   12 1   
     5    2    3 1   
     6    2   13 1   
     7    2   14 1   
     8    3    4 1   
     9    3   15 1   
    10    3   16 1   
    11    4    5 1   
    12    4   17 1   
    13    4   18 1   
    14    5    7 1   
    15    5   19 1   
    16    5   20 1   
    17    6   21 1   
    18    6   22 1   
    19    6   23 1   
    20    7    8 1   
    21    7   24 1   
    22    7   25 1   
    23    8    9 1   
    24    8   26 1   
    25    8   28 1   
    26    9   10 2   
    27    9   27 1   
@<TRIPOS>SUBSTRUCTURE
     1 HPL         1 TEMP              0 ****  ****    0 ROOT
