@<TRIPOS>MOLECULE
HPL
   28    27     1     0     0
SMALL
bcc


@<TRIPOS>ATOM
      1 C1          0.0180   -0.0000   -0.0550 c3        1 HPL     -0.079400
      2 C2          1.5310    0.0030    0.0060 c3        1 HPL     -0.080400
      3 C3          2.0190   -0.0010    1.4390 c3        1 HPL     -0.079400
      4 C4          3.5330    0.0020    1.4930 c3        1 HPL     -0.078400
      5 C5          4.0150   -0.0020    2.9320 c3        1 HPL     -0.108400
      6 C6         -0.4740    0.0040   -1.4790 c3        1 HPL     -0.096100
      7 C12         5.5370    0.0030    2.9480 c3        1 HPL      0.097800
      8 N13         6.0950   -0.0010    4.3370 ny        1 HPL     -0.696800
      9 C14         7.6020    0.0030    4.3880 c         1 HPL      0.543900
     10 O16         8.2270    0.0080    3.3480 o         1 HPL     -0.359100
     11 H11        -0.3810    0.9000    0.4840 hc        1 HPL      0.042700
     12 H12        -0.3770   -0.9060    0.4780 hc        1 HPL      0.042700
     13 H21         1.9290   -0.8980   -0.5320 hc        1 HPL      0.046700
     14 H22         1.9250    0.9090   -0.5250 hc        1 HPL      0.046700
     15 H31         1.6190    0.9000    1.9750 hc        1 HPL      0.047700
     16 H32         1.6230   -0.9080    1.9690 hc        1 HPL      0.047700
     17 H41         3.9260    0.9100    0.9640 hc        1 HPL      0.057700
     18 H42         3.9300   -0.9000    0.9570 hc        1 HPL      0.057700
     19 H51         3.6170   -0.9120    3.4550 hc        1 HPL      0.066700
     20 H52         3.6120    0.9030    3.4620 hc        1 HPL      0.066700
     21 H61        -1.5910    0.0010   -1.5010 hc        1 HPL      0.040367
     22 H62        -0.1130    0.9110   -2.0200 hc        1 HPL      0.040367
     23 H63        -0.1090   -0.8990   -2.0260 hc        1 HPL      0.040367
     24 H121        5.9330    0.9190    2.4220 hx        1 HPL      0.115700
     25 H122        5.9380   -0.9080    2.4150 hx        1 HPL      0.115700
     26 H13         5.7460    0.8270    4.8370 hn        1 HPL      0.462800
     27 H14         7.9870    0.0000    5.4340 hx        1 HPL      0.135200
     28 H132        5.7510   -0.8330    4.8320 hn        1 HPL      0.462800
@<TRIPOS>BOND
     1    1    2 1   
     2    1    6 1   
     3    1   11 1   
     4    1   12 1   
     5    2    3 1   
     6    2   13 1   
     7    2   14 1   
     8    3    4 1   
     9    3   15 1   
    10    3   16 1   
    11    4    5 1   
    12    4   17 1   
    13    4   18 1   
    14    5    7 1   
    15    5   19 1   
    16    5   20 1   
    17    6   21 1   
    18    6   22 1   
    19    6   23 1   
    20    7    8 1   
    21    7   24 1   
    22    7   25 1   
    23    8    9 1   
    24    8   26 1   
    25    8   28 1   
    26    9   10 2   
    27    9   27 1   
@<TRIPOS>SUBSTRUCTURE
     1 HPL         1 TEMP              0 ****  ****    0 ROOT
