@<TRIPOS>MOLECULE
HPL
   28    27     1     0     0
SMALL
bcc


@<TRIPOS>ATOM
      1 C1          0.0170   -0.0050   -0.0540 c3        1 HPL     -0.079400
      2 C2          1.5300   -0.0040    0.0060 c3        1 HPL     -0.080400
      3 C3          2.0190   -0.0000    1.4400 c3        1 HPL     -0.079400
      4 C4          3.5330   -0.0000    1.4930 c3        1 HPL     -0.078400
      5 C5          4.0150    0.0060    2.9320 c3        1 HPL     -0.108400
      6 C6         -0.4750   -0.0070   -1.4780 c3        1 HPL     -0.096100
      7 C12         5.5370    0.0040    2.9480 c3        1 HPL      0.097800
      8 N13         6.0960    0.0120    4.3360 n4        1 HPL     -0.696800
      9 C14         7.6030    0.0090    4.3870 c         1 HPL      0.543900
     10 O16         8.2270   -0.0070    3.3470 o         1 HPL     -0.359100
     11 H11        -0.3800    0.8980    0.4810 hc        1 HPL      0.042700
     12 H12        -0.3780   -0.9080    0.4830 hc        1 HPL      0.042700
     13 H21         1.9280   -0.9080   -0.5260 hc        1 HPL      0.046700
     14 H22         1.9270    0.8980   -0.5300 hc        1 HPL      0.046700
     15 H31         1.6210   -0.9030    1.9740 hc        1 HPL      0.047700
     16 H32         1.6210    0.9050    1.9700 hc        1 HPL      0.047700
     17 H41         3.9280    0.9020    0.9560 hc        1 HPL      0.057700
     18 H42         3.9280   -0.9070    0.9640 hc        1 HPL      0.057700
     19 H51         3.6140   -0.8990    3.4620 hc        1 HPL      0.066700
     20 H52         3.6160    0.9160    3.4540 hc        1 HPL      0.066700
     21 H61        -1.5910   -0.0080   -1.5000 hc        1 HPL      0.040367
     22 H62        -0.1130    0.8980   -2.0230 hc        1 HPL      0.040367
     23 H63        -0.1110   -0.9130   -2.0220 hc        1 HPL      0.040367
     24 H121        5.9340   -0.9130    2.4240 hx        1 HPL      0.115700
     25 H122        5.9370    0.9140    2.4120 hx        1 HPL      0.115700
     26 H13         5.7470   -0.8130    4.8400 hn        1 HPL      0.462800
     27 H14         7.9880    0.0210    5.4330 hx        1 HPL      0.135200
     28 H132        5.7510    0.8470    4.8280 hn        1 HPL      0.462800
@<TRIPOS>BOND
     1    1    2 1   
     2    1    6 1   
     3    1   11 1   
     4    1   12 1   
     5    2    3 1   
     6    2   13 1   
     7    2   14 1   
     8    3    4 1   
     9    3   15 1   
    10    3   16 1   
    11    4    5 1   
    12    4   17 1   
    13    4   18 1   
    14    5    7 1   
    15    5   19 1   
    16    5   20 1   
    17    6   21 1   
    18    6   22 1   
    19    6   23 1   
    20    7    8 1   
    21    7   24 1   
    22    7   25 1   
    23    8    9 1   
    24    8   26 1   
    25    8   28 1   
    26    9   10 2   
    27    9   27 1   
@<TRIPOS>SUBSTRUCTURE
     1 HPL         1 TEMP              0 ****  ****    0 ROOT
