@<TRIPOS>MOLECULE
HPM
   70    74     1     0     0
SMALL
bcc


@<TRIPOS>ATOM
      1 C1         -9.2170   -1.6090    1.1770 c3        1 HPM      0.165300
      2 C2        -10.7130   -1.6200    1.4850 c3        1 HPM     -0.076400
      3 C3        -11.2430   -0.2130    1.6450 c3        1 HPM     -0.079400
      4 C4        -10.9060    0.6150    0.4250 c3        1 HPM     -0.076400
      5 C5         -9.4100    0.5770    0.1210 c3        1 HPM      0.165300
      6 N6         -8.8670   -0.7730    0.0330 n3        1 HPM     -0.730600
      7 C7         -7.4310   -0.8000   -0.2020 c3        1 HPM      0.134800
      8 C8         -6.9470    0.0710   -1.3710 c3        1 HPM      0.142100
      9 C9         -5.4900   -0.2900   -1.7050 c3        1 HPM      0.087400
     10 O10        -4.7070    0.2010   -0.6090 os        1 HPM     -0.303900
     11 C11        -3.3460    0.0450   -0.7300 ca        1 HPM      0.149100
     12 C12        -2.5900    0.5740    0.3750 ca        1 HPM      0.108100
     13 C13        -1.2150    0.4900    0.3760 ca        1 HPM     -0.166000
     14 C14        -0.5320   -0.1170   -0.7060 ca        1 HPM     -0.277600
     15 C15        -1.2770   -0.6690   -1.7930 ca        1 HPM      0.447600
     16 C16        -2.7040   -0.5640   -1.7820 ca        1 HPM     -0.252300
     17 N17        -0.6550   -1.3040   -2.8520 nb        1 HPM     -0.708000
     18 C18         0.6750   -1.3680   -2.7970 ca        1 HPM      0.665900
     19 N19         1.5110   -0.8630   -1.8320 nb        1 HPM     -0.763000
     20 C20         0.9230   -0.2360   -0.7880 ca        1 HPM      0.681200
     21 N21         1.7000    0.2670    0.2710 nh        1 HPM     -0.698300
     22 C22         3.1050    0.2830    0.2170 ca        1 HPM     -0.142000
     23 C23         3.8510    1.4730    0.4370 ca        1 HPM      0.448200
     24 N24         5.1880    1.5050    0.4880 nb        1 HPM     -0.700000
     25 C25         5.8490    0.2990    0.2960 ca        1 HPM      0.750900
     26 N26         5.2160   -0.9090    0.0520 nb        1 HPM     -0.700000
     27 C27         3.8790   -0.8970    0.0220 ca        1 HPM      0.448200
     28 N28         7.2610    0.3460    0.3120 n         1 HPM     -0.548400
     29 C29         8.0990   -0.7000    0.7190 c         1 HPM      0.687700
     30 C30         9.5580   -0.4530    0.5130 ca        1 HPM     -0.151600
     31 C31        10.4440   -0.8900    1.5060 ca        1 HPM     -0.088500
     32 C32        11.8150   -0.6970    1.3450 ca        1 HPM     -0.138000
     33 C33        12.3040   -0.0790    0.1930 ca        1 HPM     -0.105000
     34 C34        11.4210    0.3440   -0.8010 ca        1 HPM     -0.138000
     35 C35        10.0480    0.1600   -0.6440 ca        1 HPM     -0.088500
     36 O36         7.6810   -1.7410    1.2420 o         1 HPM     -0.535100
     37 O37        -3.3580    1.1410    1.3700 os        1 HPM     -0.300900
     38 C38        -2.6540    1.6250    2.5090 c3        1 HPM      0.107700
     39 O39        -7.7140   -0.0530   -2.5510 oh        1 HPM     -0.588800
     40 H1C1       -8.8890   -2.6600    0.9380 h1        1 HPM      0.033950
     41 H1C2       -8.6650   -1.2840    2.1080 h1        1 HPM      0.033950
     42 H2C1      -10.8740   -2.2050    2.4260 hc        1 HPM      0.047200
     43 H2C2      -11.2650   -2.1400    0.6590 hc        1 HPM      0.047200
     44 H3C1      -10.7930    0.2590    2.5580 hc        1 HPM      0.040200
     45 H3C2      -12.3540   -0.2390    1.7930 hc        1 HPM      0.040200
     46 H4C1      -11.2040    1.6830    0.5880 hc        1 HPM      0.047200
     47 H4C2      -11.4790    0.2310   -0.4590 hc        1 HPM      0.047200
     48 H5C1       -8.8690    1.1870    0.9030 h1        1 HPM      0.033950
     49 H5C2       -9.2390    1.0660   -0.8810 h1        1 HPM      0.033950
     50 H7C1       -7.1640   -1.8740   -0.4230 h1        1 HPM      0.046700
     51 H7C2       -6.8370   -0.4790    0.7040 h1        1 HPM      0.046700
     52 H8         -7.0020    1.1650   -1.1010 h1        1 HPM      0.087700
     53 H9C1       -5.1830    0.2170   -2.6570 h1        1 HPM      0.054200
     54 H9C2       -5.3530   -1.3980   -1.8020 h1        1 HPM      0.054200
     55 H13        -0.6560    0.8790    1.2390 ha        1 HPM      0.140000
     56 H16        -3.2650   -0.9830   -2.6320 ha        1 HPM      0.166000
     57 H18         1.1930   -1.8820   -3.6350 h5        1 HPM      0.056100
     58 H21         1.3060    1.0770    0.7070 hn        1 HPM      0.423800
     59 H23         3.3540    2.4490    0.5950 h4        1 HPM      0.038600
     60 H27         3.4030   -1.8770   -0.1780 h4        1 HPM      0.038600
     61 H28         7.6730    1.2450    0.1840 hn        1 HPM      0.338500
     62 H31        10.0480   -1.3950    2.4010 ha        1 HPM      0.148000
     63 H32        12.5110   -1.0390    2.1250 ha        1 HPM      0.139000
     64 H33        13.3860    0.0700    0.0670 ha        1 HPM      0.137000
     65 H34        11.8080    0.8220   -1.7140 ha        1 HPM      0.139000
     66 H35         9.3620    0.4810   -1.4430 ha        1 HPM      0.148000
     67 H381       -1.9640    2.4550    2.2220 h1        1 HPM      0.047033
     68 H382       -3.4720    2.0050    3.1720 h1        1 HPM      0.047033
     69 H383       -2.0910    0.7990    3.0080 h1        1 HPM      0.047033
     70 H39        -8.0320   -0.9640   -2.6030 ho        1 HPM      0.414000
@<TRIPOS>BOND
     1    1    2 1   
     2    1    6 1   
     3    1   40 1   
     4    1   41 1   
     5    2    3 1   
     6    2   42 1   
     7    2   43 1   
     8    3    4 1   
     9    3   44 1   
    10    3   45 1   
    11    4    5 1   
    12    4   46 1   
    13    4   47 1   
    14    5    6 1   
    15    5   48 1   
    16    5   49 1   
    17    6    7 1   
    18    7    8 1   
    19    7   50 1   
    20    7   51 1   
    21    8    9 1   
    22    8   39 1   
    23    8   52 1   
    24    9   10 1   
    25    9   53 1   
    26    9   54 1   
    27   10   11 1   
    28   11   12 ar  
    29   11   16 ar  
    30   12   13 ar  
    31   12   37 1   
    32   13   14 ar  
    33   13   55 1   
    34   14   15 ar  
    35   14   20 ar  
    36   15   16 ar  
    37   15   17 ar  
    38   16   56 1   
    39   17   18 ar  
    40   18   19 ar  
    41   18   57 1   
    42   19   20 ar  
    43   20   21 1   
    44   21   22 1   
    45   21   58 1   
    46   22   23 ar  
    47   22   27 ar  
    48   23   24 ar  
    49   23   59 1   
    50   24   25 ar  
    51   25   26 ar  
    52   25   28 1   
    53   26   27 ar  
    54   27   60 1   
    55   28   29 1   
    56   28   61 1   
    57   29   30 1   
    58   29   36 2   
    59   30   31 ar  
    60   30   35 ar  
    61   31   32 ar  
    62   31   62 1   
    63   32   33 ar  
    64   32   63 1   
    65   33   34 ar  
    66   33   64 1   
    67   34   35 ar  
    68   34   65 1   
    69   35   66 1   
    70   37   38 1   
    71   38   67 1   
    72   38   68 1   
    73   38   69 1   
    74   39   70 1   
@<TRIPOS>SUBSTRUCTURE
     1 HPM         1 TEMP              0 ****  ****    0 ROOT
