@<TRIPOS>MOLECULE
HPM
   70    66     1     0     0
SMALL
bcc


@<TRIPOS>ATOM
      1 C1          8.2520   -1.4160   -1.6110 c3        1 HPM     -0.068000
      2 C2          9.7730   -1.4980   -1.6470 c3        1 HPM     -0.155500
      3 C3         10.4000   -0.2230   -2.0960 c3        1 HPM     -0.157000
      4 C4          9.9090    0.9440   -1.3290 c3        1 HPM     -0.155500
      5 C5          8.3890    1.0170   -1.2950 c3        1 HPM     -0.068000
      6 N6          7.7700   -0.2540   -0.8530 n3        1 HPM     -0.257000
      7 C7          6.3370   -0.1600   -0.9800 c3        1 HPM     -0.060000
      8 C8          5.7190   -0.0810    0.3790 c3        1 HPM      0.031000
      9 C9          4.2280   -0.0230    0.2400 c3        1 HPM     -0.068000
     10 O10         3.6350   -0.0100    1.5190 os        1 HPM     -0.199000
     11 C11         2.2040   -0.0760    1.5000 c2        1 HPM      0.106000
     12 C12         1.4140   -1.1740    1.8540 c2        1 HPM      0.063000
     13 C13         0.0230   -1.0430    1.9130 c1        1 HPM     -0.164000
     14 C14        -0.5880    0.2060    1.6130 c1        1 HPM     -0.147000
     15 C15         0.1850    1.2770    1.2680 c1        1 HPM      0.054000
     16 C16         1.6090    1.1440    1.2070 c1        1 HPM     -0.186000
     17 N17        -0.4020    2.4780    0.9810 n1        1 HPM     -0.183000
     18 C18        -1.7720    2.6060    1.0400 c1        1 HPM      0.004000
     19 N19        -2.5540    1.5240    1.3890 n1        1 HPM     -0.237000
     20 C20        -1.9830    0.3420    1.6720 c1        1 HPM      0.161000
     21 N21        -3.0930   -0.4810    2.1670 n3        1 HPM     -0.219000
     22 C22        -4.4360   -0.3410    1.5800 c2        1 HPM     -0.094000
     23 C23        -5.2620    0.6720    1.9910 c2        1 HPM      0.013000
     24 N24        -6.5240    0.7530    1.5080 n1        1 HPM     -0.148000
     25 C25        -6.9710   -0.1700    0.6150 c1        1 HPM      0.147000
     26 N26        -6.1450   -1.1830    0.2030 n1        1 HPM     -0.201000
     27 C27        -4.8880   -1.2670    0.6820 c1        1 HPM     -0.046000
     28 N28        -8.3300   -0.1060    0.1290 n         1 HPM     -0.314000
     29 C29        -8.8450    1.1350   -0.4340 c2        1 HPM      0.360000
     30 C30       -10.2770    1.1750   -1.0590 c2        1 HPM     -0.126000
     31 C31       -10.7290    2.3300   -1.6820 c2        1 HPM     -0.077000
     32 C32       -12.0370    2.4050   -2.1460 c1        1 HPM     -0.135000
     33 C33       -12.8910    1.3260   -1.9870 c1        1 HPM     -0.121500
     34 C34       -12.4410    0.1710   -1.3640 c1        1 HPM     -0.121500
     35 C35       -11.1310    0.0960   -0.9000 c1        1 HPM     -0.107000
     36 O36        -8.1140    2.1380   -0.4960 o         1 HPM     -0.292000
     37 O37         2.1210   -2.3310    2.3620 os        1 HPM     -0.187000
     38 C38         1.6910   -3.5860    1.7780 c3        1 HPM     -0.082000
     39 O39         6.0860   -1.2410    1.1420 oh        1 HPM     -0.330000
     40 H1C1        7.9180   -1.3560   -2.5230 h1        1 HPM      0.073750
     41 H1C2        7.8980   -2.2400   -1.1940 h1        1 HPM      0.073750
     42 H2C1       10.0400   -2.2200   -2.2640 hc        1 HPM      0.085500
     43 H2C2       10.0980   -1.7100   -0.7530 hc        1 HPM      0.085500
     44 H3C1       11.3780   -0.2910   -1.9830 hc        1 HPM      0.078500
     45 H3C2       10.1980   -0.0870   -3.0460 hc        1 HPM      0.078500
     46 H4C1       10.2380    0.8840   -0.4290 hc        1 HPM      0.085500
     47 H4C2       10.2620    1.7720   -1.7450 hc        1 HPM      0.085500
     48 H5C1        8.1130    1.7510   -0.6640 h1        1 HPM      0.073750
     49 H5C2        8.0620    1.2320   -2.1920 h1        1 HPM      0.073750
     50 H7C1        6.1060    0.6420   -1.4910 h1        1 HPM      0.082500
     51 H7C2        5.9960   -0.9550   -1.4490 h1        1 HPM      0.082500
     52 H8          6.0400    0.7360    0.8440 h1        1 HPM      0.109000
     53 H9C1        3.9150   -0.8090   -0.2580 h1        1 HPM      0.095500
     54 H9C2        3.9810    0.7790   -0.2370 h1        1 HPM      0.095500
     55 H13        -0.5250   -1.8030    2.1580 ha        1 HPM      0.140000
     56 H16         2.1780    1.9550    1.0730 ha        1 HPM      0.165000
     57 H18        -2.1860    3.4560    0.8370 ha        1 HPM      0.194000
     58 H21        -2.9560   -1.0670    2.8630 hn        1 HPM      0.220000
     59 H23        -4.9480    1.3200    2.6200 h4        1 HPM      0.190000
     60 H27        -4.2990   -1.9910    0.3860 ha        1 HPM      0.161000
     61 H28        -8.8460   -0.8600    0.1180 hn        1 HPM      0.252000
     62 H31       -10.1380    3.0780   -1.7930 ha        1 HPM      0.155000
     63 H32       -12.3550    3.2220   -2.5870 ha        1 HPM      0.140000
     64 H33       -13.8090    1.3790   -2.3120 ha        1 HPM      0.137500
     65 H34       -13.0400   -0.5860   -1.2520 ha        1 HPM      0.137500
     66 H35       -10.8180   -0.7050   -0.4680 ha        1 HPM      0.136000
     67 H381        2.2020   -4.3260    2.1770 h1        1 HPM      0.087333
     68 H382        1.8450   -3.5670    0.8120 h1        1 HPM      0.087333
     69 H383        0.7310   -3.7190    1.9540 h1        1 HPM      0.087333
     70 H39         6.3860   -0.9870    1.9460 ho        1 HPM      0.218000
@<TRIPOS>BOND
     1    1    2 1   
     2    1    6 1   
     3    1   40 1   
     4    1   41 1   
     5    2    3 1   
     6    2   42 1   
     7    2   43 1   
     8    3    4 1   
     9    3   44 1   
    10    3   45 1   
    11    4    5 1   
    12    4   46 1   
    13    4   47 1   
    14    5    6 1   
    15    5   48 1   
    16    5   49 1   
    17    6    7 1   
    18    7    8 1   
    19    7   50 1   
    20    7   51 1   
    21    8    9 1   
    22    8   39 1   
    23    8   52 1   
    24    9   10 1   
    25    9   53 1   
    26    9   54 1   
    27   10   11 1   
    28   11   12 1   
    29   11   16 1   
    30   12   13 1   
    31   12   37 1   
    32   13   55 1   
    33   14   15 1   
    34   14   20 1   
    35   15   17 1   
    36   16   56 1   
    37   18   19 1   
    38   18   57 1   
    39   20   21 1   
    40   21   22 1   
    41   21   58 1   
    42   22   23 1   
    43   22   27 1   
    44   23   24 1   
    45   23   59 1   
    46   25   26 1   
    47   25   28 1   
    48   27   60 1   
    49   28   29 1   
    50   28   61 1   
    51   29   30 1   
    52   29   36 1   
    53   30   31 1   
    54   30   35 1   
    55   31   32 1   
    56   31   62 1   
    57   32   63 1   
    58   33   34 1   
    59   33   64 1   
    60   34   65 1   
    61   35   66 1   
    62   37   38 1   
    63   38   67 1   
    64   38   68 1   
    65   38   69 1   
    66   39   70 1   
@<TRIPOS>SUBSTRUCTURE
     1 HPM         1 TEMP              0 ****  ****    0 ROOT
