@<TRIPOS>MOLECULE
HPM
   70    74     1     0     0
SMALL
bcc


@<TRIPOS>ATOM
      1 C1          0.9490   -1.3450    0.3850 c3        1 HPM      0.170300
      2 C2          1.8370   -0.4740    1.2700 c3        1 HPM     -0.077400
      3 C3          1.0800    0.7310    1.7860 c3        1 HPM     -0.079400
      4 C4         -0.1900    0.2920    2.4820 c3        1 HPM     -0.077400
      5 C5         -1.0360   -0.5980    1.5750 c3        1 HPM      0.170300
      6 N6         -0.3050   -1.7290    1.0220 n3        1 HPM     -0.733600
      7 C7         -1.1200   -2.5550    0.1450 c3        1 HPM      0.170800
      8 C8         -2.1950   -3.3660    0.8980 c3        1 HPM      0.143100
      9 C9         -3.5810   -2.7490    0.6750 c3        1 HPM      0.079400
     10 O10        -4.4660   -3.5290    1.4940 os        1 HPM     -0.314900
     11 C11        -5.7960   -3.1860    1.4410 ca        1 HPM      0.151100
     12 C12        -6.6560   -4.0220    2.2370 ca        1 HPM      0.108100
     13 C13        -8.0130   -3.7850    2.2700 ca        1 HPM     -0.164000
     14 C14        -8.5750   -2.7220    1.5230 ca        1 HPM     -0.277600
     15 C15        -7.7250   -1.8750    0.7480 ca        1 HPM      0.447600
     16 C16        -6.3190   -2.1390    0.7180 ca        1 HPM     -0.252300
     17 N17        -8.2250   -0.8030    0.0310 nb        1 HPM     -0.709000
     18 C18        -9.5410   -0.6120    0.1050 ca        1 HPM      0.666900
     19 N19       -10.4720   -1.3580    0.7880 nb        1 HPM     -0.763000
     20 C20       -10.0030   -2.4110    1.4940 ca        1 HPM      0.682200
     21 N21       -10.8780   -3.1980    2.2650 nh        1 HPM     -0.698300
     22 C22       -12.2740   -3.0270    2.2080 ca        1 HPM     -0.143000
     23 C23       -13.1520   -4.1110    1.9350 ca        1 HPM      0.448700
     24 N24       -14.4850   -4.0050    1.9690 nb        1 HPM     -0.700000
     25 C25       -15.0040   -2.7530    2.2730 ca        1 HPM      0.751900
     26 N26       -14.2340   -1.6290    2.5320 nb        1 HPM     -0.700000
     27 C27       -12.9070   -1.7840    2.5000 ca        1 HPM      0.448700
     28 N28       -16.4120   -2.6370    2.2690 n         1 HPM     -0.548400
     29 C29       -17.1520   -1.7460    3.0560 c         1 HPM      0.687700
     30 C30       -18.6170   -1.7210    2.7690 ca        1 HPM     -0.151600
     31 C31       -19.4970   -1.6090    3.8530 ca        1 HPM     -0.088500
     32 C32       -20.8720   -1.5620    3.6290 ca        1 HPM     -0.138000
     33 C33       -21.3700   -1.6180    2.3270 ca        1 HPM     -0.105000
     34 C34       -20.4930   -1.7160    1.2470 ca        1 HPM     -0.138000
     35 C35       -19.1160   -1.7690    1.4640 ca        1 HPM     -0.088500
     36 O36       -16.6500   -1.0500    3.9490 o         1 HPM     -0.534100
     37 O37        -6.0020   -5.0290    2.9120 os        1 HPM     -0.302900
     38 C38        -6.7950   -5.8060    3.8050 c3        1 HPM      0.107700
     39 O39        -2.1510   -4.6710    0.3390 oh        1 HPM     -0.601800
     40 H1C1        0.7640   -0.7960   -0.5860 h1        1 HPM      0.029450
     41 H1C2        1.5060   -2.2930    0.1390 h1        1 HPM      0.029450
     42 H2C1        2.7220   -0.1460    0.6670 hc        1 HPM      0.048450
     43 H2C2        2.2160   -1.0780    2.1350 hc        1 HPM      0.048450
     44 H3C1        1.7240    1.3100    2.4970 hc        1 HPM      0.041200
     45 H3C2        0.8270    1.4110    0.9310 hc        1 HPM      0.041200
     46 H4C1        0.0690   -0.2630    3.4210 hc        1 HPM      0.048450
     47 H4C2       -0.8010    1.1860    2.7690 hc        1 HPM      0.048450
     48 H5C1       -1.4820    0.0450    0.7580 h1        1 HPM      0.029450
     49 H5C2       -1.8900   -1.0170    2.1810 h1        1 HPM      0.029450
     50 H7C1       -1.6250   -1.9450   -0.6600 h1        1 HPM      0.049700
     51 H7C2       -0.4440   -3.3000   -0.3680 h1        1 HPM      0.049700
     52 H8         -1.9850   -3.4260    2.0030 h1        1 HPM      0.071700
     53 H9C1       -3.6010   -1.6790    1.0050 h1        1 HPM      0.056700
     54 H9C2       -3.8910   -2.8350   -0.3990 h1        1 HPM      0.056700
     55 H13        -8.6500   -4.4200    2.9030 ha        1 HPM      0.140000
     56 H16        -5.6760   -1.4850    0.1090 ha        1 HPM      0.165000
     57 H18        -9.9620    0.2490   -0.4590 h5        1 HPM      0.056100
     58 H21       -10.5940   -4.1530    2.3440 hn        1 HPM      0.424800
     59 H23       -12.7700   -5.1200    1.6920 h4        1 HPM      0.039100
     60 H27       -12.3190   -0.8690    2.7070 h4        1 HPM      0.039100
     61 H28       -16.9110   -3.3590    1.7960 hn        1 HPM      0.338500
     62 H31       -19.0910   -1.5460    4.8760 ha        1 HPM      0.148500
     63 H32       -21.5620   -1.4770    4.4810 ha        1 HPM      0.139000
     64 H33       -22.4560   -1.5790    2.1520 ha        1 HPM      0.137000
     65 H34       -20.8850   -1.7490    0.2200 ha        1 HPM      0.139000
     66 H35       -18.4320   -1.8290    0.6030 ha        1 HPM      0.148500
     67 H381       -7.2680   -5.1580    4.5820 h1        1 HPM      0.047700
     68 H382       -7.5720   -6.3780    3.2420 h1        1 HPM      0.047700
     69 H383       -6.0500   -6.5020    4.2690 h1        1 HPM      0.047700
     70 H39        -2.8170   -5.1920    0.8050 ho        1 HPM      0.418000
@<TRIPOS>BOND
     1    1    2 1   
     2    1    6 1   
     3    1   40 1   
     4    1   41 1   
     5    2    3 1   
     6    2   42 1   
     7    2   43 1   
     8    3    4 1   
     9    3   44 1   
    10    3   45 1   
    11    4    5 1   
    12    4   46 1   
    13    4   47 1   
    14    5    6 1   
    15    5   48 1   
    16    5   49 1   
    17    6    7 1   
    18    7    8 1   
    19    7   50 1   
    20    7   51 1   
    21    8    9 1   
    22    8   39 1   
    23    8   52 1   
    24    9   10 1   
    25    9   53 1   
    26    9   54 1   
    27   10   11 1   
    28   11   12 ar  
    29   11   16 ar  
    30   12   13 ar  
    31   12   37 1   
    32   13   14 ar  
    33   13   55 1   
    34   14   15 ar  
    35   14   20 ar  
    36   15   16 ar  
    37   15   17 ar  
    38   16   56 1   
    39   17   18 ar  
    40   18   19 ar  
    41   18   57 1   
    42   19   20 ar  
    43   20   21 1   
    44   21   22 1   
    45   21   58 1   
    46   22   23 ar  
    47   22   27 ar  
    48   23   24 ar  
    49   23   59 1   
    50   24   25 ar  
    51   25   26 ar  
    52   25   28 1   
    53   26   27 ar  
    54   27   60 1   
    55   28   29 1   
    56   28   61 1   
    57   29   30 1   
    58   29   36 2   
    59   30   31 ar  
    60   30   35 ar  
    61   31   32 ar  
    62   31   62 1   
    63   32   33 ar  
    64   32   63 1   
    65   33   34 ar  
    66   33   64 1   
    67   34   35 ar  
    68   34   65 1   
    69   35   66 1   
    70   37   38 1   
    71   38   67 1   
    72   38   68 1   
    73   38   69 1   
    74   39   70 1   
@<TRIPOS>SUBSTRUCTURE
     1 HPM         1 TEMP              0 ****  ****    0 ROOT
