@<TRIPOS>MOLECULE
HPM
   72    76     1     0     0
SMALL
bcc


@<TRIPOS>ATOM
      1 C1          0.4490   -0.4410    0.0150 c3        1 HPM      0.172300
      2 C2          1.9260   -0.8090    0.1390 c3        1 HPM     -0.077900
      3 C3          2.4190   -0.6310    1.5580 c3        1 HPM     -0.081400
      4 C4          1.5410   -1.3990    2.5220 c3        1 HPM     -0.077900
      5 C5          0.0730   -1.0150    2.3520 c3        1 HPM      0.172300
      6 N6         -0.3970   -1.1380    0.9770 n3        1 HPM     -0.749600
      7 C7         -1.8030   -0.8010    0.8350 c3        1 HPM      0.141800
      8 C8         -2.7130   -2.0120    1.1360 c3        1 HPM      0.143100
      9 C9         -4.1790   -1.5760    1.0210 c3        1 HPM      0.114400
     10 O10        -4.8960   -2.4460    1.9270 os        1 HPM     -0.274900
     11 C11        -6.2340   -2.5630    1.7420 ca        1 HPM      0.196100
     12 C12        -6.8480   -3.6140    2.5460 ca        1 HPM      0.215100
     13 C13        -8.2040   -3.8540    2.4620 ca        1 HPM     -0.283000
     14 C14        -9.0140   -3.0750    1.6000 ca        1 HPM     -0.205600
     15 C15        -8.4170   -2.0220    0.7990 ca        1 HPM      0.471600
     16 C16        -7.0090   -1.7930    0.9070 ca        1 HPM     -0.265300
     17 N17        -9.1690   -1.2580   -0.0510 nb        1 HPM     -0.608000
     18 C18       -10.4830   -1.5230   -0.1230 ca        1 HPM      0.658900
     19 N19       -11.1650   -2.4830    0.5770 nb        1 HPM     -0.709000
     20 C20       -10.4220   -3.2260    1.4190 ca        1 HPM      0.470200
     21 N21       -11.1260   -4.2890    2.2010 n4        1 HPM     -0.610100
     22 C22       -12.5680   -4.1150    2.2990 ca        1 HPM     -0.234000
     23 C23       -13.4160   -4.3230    1.1740 ca        1 HPM      0.520200
     24 N24       -14.7450   -4.1380    1.2460 nb        1 HPM     -0.636500
     25 C25       -15.2400   -3.7260    2.4610 ca        1 HPM      0.780900
     26 N26       -14.5090   -3.5020    3.6030 nb        1 HPM     -0.636500
     27 C27       -13.1820   -3.6910    3.5080 ca        1 HPM      0.520200
     28 N28       -16.7020   -3.4600    2.5350 n4        1 HPM     -0.680500
     29 C29       -17.0270   -1.9820    2.1850 c         1 HPM      0.604700
     30 C30       -18.4370   -1.6350    2.2000 ca        1 HPM     -0.217600
     31 C31       -18.7460   -0.3060    1.8390 ca        1 HPM     -0.057500
     32 C32       -20.0720    0.1200    1.8260 ca        1 HPM     -0.120000
     33 C33       -21.0960   -0.7630    2.1700 ca        1 HPM     -0.027000
     34 C34       -20.7920   -2.0820    2.5310 ca        1 HPM     -0.120000
     35 C35       -19.4740   -2.5210    2.5480 ca        1 HPM     -0.057500
     36 O36       -16.0440   -1.3050    1.9380 o         1 HPM     -0.418100
     37 O37        -5.9660   -4.2800    3.3360 os        1 HPM     -0.257900
     38 C38        -6.4650   -5.3660    4.1200 c3        1 HPM      0.099700
     39 O39        -2.5540   -3.0430    0.1760 oh        1 HPM     -0.609800
     40 H1C1        0.0930   -0.7230   -1.0160 h1        1 HPM      0.031450
     41 H1C2        0.3490    0.6790    0.1200 h1        1 HPM      0.031450
     42 H2C1        2.5100   -0.1530   -0.5580 hc        1 HPM      0.053450
     43 H2C2        2.0800   -1.8720   -0.1820 hc        1 HPM      0.053450
     44 H3C1        3.4780   -0.9900    1.6410 hc        1 HPM      0.049700
     45 H3C2        2.4120    0.4580    1.8270 hc        1 HPM      0.049700
     46 H4C1        1.6680   -2.5000    2.3520 hc        1 HPM      0.053450
     47 H4C2        1.8410   -1.1790    3.5790 hc        1 HPM      0.053450
     48 H5C1       -0.0680    0.0380    2.7380 h1        1 HPM      0.031450
     49 H5C2       -0.5580   -1.6970    2.9880 h1        1 HPM      0.031450
     50 H7C1       -2.0080   -0.4780   -0.2250 h1        1 HPM      0.046200
     51 H7C2       -2.1090    0.0430    1.5200 h1        1 HPM      0.046200
     52 H8         -2.5150   -2.4210    2.1660 h1        1 HPM      0.067700
     53 H9C1       -4.3300   -0.5210    1.3670 h1        1 HPM      0.071200
     54 H9C2       -4.5450   -1.7200   -0.0280 h1        1 HPM      0.071200
     55 H13        -8.6330   -4.6680    3.0620 ha        1 HPM      0.125000
     56 H16        -6.5610   -0.9860    0.3000 ha        1 HPM      0.196000
     57 H18       -11.0950   -0.9070   -0.8220 h5        1 HPM      0.096100
     58 H21       -10.7160   -4.2920    3.1480 hn        1 HPM      0.476300
     59 H23       -13.0340   -4.6320    0.1750 h4        1 HPM      0.090600
     60 H27       -12.6130   -3.4880    4.4420 h4        1 HPM      0.090600
     61 H28       -17.0410   -3.6540    3.4880 hn        1 HPM      0.487300
     62 H31       -17.9360    0.3930    1.5670 ha        1 HPM      0.148000
     63 H32       -20.3080    1.1600    1.5420 ha        1 HPM      0.179000
     64 H33       -22.1470   -0.4250    2.1600 ha        1 HPM      0.181000
     65 H34       -21.6050   -2.7760    2.8040 ha        1 HPM      0.179000
     66 H35       -19.2820   -3.5640    2.8400 ha        1 HPM      0.148000
     67 H381       -7.2180   -5.0000    4.8580 h1        1 HPM      0.064367
     68 H382       -5.5420   -5.7370    4.6410 h1        1 HPM      0.064367
     69 H383       -6.8940   -6.1590    3.4620 h1        1 HPM      0.064367
     70 H39        -1.6130   -3.2630    0.1430 ho        1 HPM      0.439000
     71 H212      -10.9240   -5.1920    1.7440 hn        1 HPM      0.476300
     72 H282      -17.1990   -4.0720    1.8710 hn        1 HPM      0.487300
@<TRIPOS>BOND
     1    1    2 1   
     2    1    6 1   
     3    1   40 1   
     4    1   41 1   
     5    2    3 1   
     6    2   42 1   
     7    2   43 1   
     8    3    4 1   
     9    3   44 1   
    10    3   45 1   
    11    4    5 1   
    12    4   46 1   
    13    4   47 1   
    14    5    6 1   
    15    5   48 1   
    16    5   49 1   
    17    6    7 1   
    18    7    8 1   
    19    7   50 1   
    20    7   51 1   
    21    8    9 1   
    22    8   39 1   
    23    8   52 1   
    24    9   10 1   
    25    9   53 1   
    26    9   54 1   
    27   10   11 1   
    28   11   12 ar  
    29   11   16 ar  
    30   12   13 ar  
    31   12   37 1   
    32   13   14 ar  
    33   13   55 1   
    34   14   15 ar  
    35   14   20 ar  
    36   15   16 ar  
    37   15   17 ar  
    38   16   56 1   
    39   17   18 ar  
    40   18   19 ar  
    41   18   57 1   
    42   19   20 ar  
    43   20   21 1   
    44   21   22 1   
    45   21   58 1   
    46   21   71 1   
    47   22   23 ar  
    48   22   27 ar  
    49   23   24 ar  
    50   23   59 1   
    51   24   25 ar  
    52   25   26 ar  
    53   25   28 1   
    54   26   27 ar  
    55   27   60 1   
    56   28   29 1   
    57   28   61 1   
    58   28   72 1   
    59   29   30 1   
    60   29   36 2   
    61   30   31 ar  
    62   30   35 ar  
    63   31   32 ar  
    64   31   62 1   
    65   32   33 ar  
    66   32   63 1   
    67   33   34 ar  
    68   33   64 1   
    69   34   35 ar  
    70   34   65 1   
    71   35   66 1   
    72   37   38 1   
    73   38   67 1   
    74   38   68 1   
    75   38   69 1   
    76   39   70 1   
@<TRIPOS>SUBSTRUCTURE
     1 HPM         1 TEMP              0 ****  ****    0 ROOT
