@<TRIPOS>MOLECULE
HPM
   70    74     1     0     0
SMALL
bcc


@<TRIPOS>ATOM
      1 C1          0.9550   -1.3020    0.4000 c3        1 HPM      0.170300
      2 C2          1.8750   -0.5440    1.3560 c3        1 HPM     -0.077400
      3 C3          1.1490    0.6110    2.0110 c3        1 HPM     -0.079400
      4 C4         -0.1160    0.1220    2.6820 c3        1 HPM     -0.077400
      5 C5         -0.9950   -0.6530    1.7030 c3        1 HPM      0.170300
      6 N6         -0.2940   -1.7310    1.0180 n3        1 HPM     -0.733600
      7 C7         -1.1400   -2.4440    0.0750 c3        1 HPM      0.170800
      8 C8         -2.2160   -3.3140    0.7580 c3        1 HPM      0.143100
      9 C9         -3.5950   -2.6550    0.6290 c3        1 HPM      0.079400
     10 O10        -4.4790   -3.5050    1.3740 os        1 HPM     -0.315900
     11 C11        -5.8050   -3.1410    1.3770 ca        1 HPM      0.150100
     12 C12        -6.6680   -4.0510    2.0830 ca        1 HPM      0.107100
     13 C13        -8.0210   -3.8030    2.1610 ca        1 HPM     -0.164000
     14 C14        -8.5760   -2.6540    1.5460 ca        1 HPM     -0.278600
     15 C15        -7.7220   -1.7340    0.8630 ca        1 HPM      0.447600
     16 C16        -6.3210   -2.0120    0.7850 ca        1 HPM     -0.252300
     17 N17        -8.2140   -0.5820    0.2780 nb        1 HPM     -0.709000
     18 C18        -9.5270   -0.3830    0.3900 ca        1 HPM      0.666900
     19 N19       -10.4600   -1.1900    0.9960 nb        1 HPM     -0.761000
     20 C20       -10.0000   -2.3220    1.5720 ca        1 HPM      0.680200
     21 N21       -10.8770   -3.1800    2.2610 nu        1 HPM     -0.696300
     22 C22       -12.2720   -2.9910    2.2300 ca        1 HPM     -0.148000
     23 C23       -13.1620   -4.0370    1.8610 ca        1 HPM      0.450700
     24 N24       -14.4940   -3.9180    1.8990 nb        1 HPM     -0.704000
     25 C25       -15.0020   -2.6930    2.3180 ca        1 HPM      0.753900
     26 N26       -14.2190   -1.6170    2.7060 nb        1 HPM     -0.704000
     27 C27       -12.8930   -1.7800    2.6510 ca        1 HPM      0.450700
     28 N28       -16.4080   -2.5960    2.3680 ns        1 HPM     -0.545400
     29 C29       -17.1660   -1.4190    2.4050 c         1 HPM      0.684700
     30 C30       -18.6410   -1.6400    2.5130 ca        1 HPM     -0.148600
     31 C31       -19.3520   -0.8880    3.4550 ca        1 HPM     -0.092000
     32 C32       -20.7320   -1.0510    3.5710 ca        1 HPM     -0.135000
     33 C33       -21.4030   -1.9520    2.7440 ca        1 HPM     -0.108000
     34 C34       -20.6940   -2.6910    1.7960 ca        1 HPM     -0.135000
     35 C35       -19.3130   -2.5390    1.6790 ca        1 HPM     -0.092000
     36 O36       -16.6820   -0.2810    2.3650 o         1 HPM     -0.524100
     37 O37        -6.0210   -5.1380    2.6310 os        1 HPM     -0.302900
     38 C38        -6.8160   -6.0040    3.4330 c3        1 HPM      0.107700
     39 O39        -2.2050   -4.5520    0.0620 oh        1 HPM     -0.601800
     40 H1C1        1.4900   -2.2270    0.0440 h1        1 HPM      0.029450
     41 H1C2        0.7630   -0.6490   -0.5020 h1        1 HPM      0.029450
     42 H2C1        2.2580   -1.2430    2.1440 hc        1 HPM      0.048450
     43 H2C2        2.7550   -0.1680    0.7730 hc        1 HPM      0.048450
     44 H3C1        1.8170    1.1000    2.7670 hc        1 HPM      0.040700
     45 H3C2        0.8930    1.3830    1.2390 hc        1 HPM      0.040700
     46 H4C1        0.1500   -0.5350    3.5510 hc        1 HPM      0.048450
     47 H4C2       -0.7050    0.9890    3.0750 hc        1 HPM      0.048450
     48 H5C1       -1.8450   -1.1200    2.2770 h1        1 HPM      0.029450
     49 H5C2       -1.4420    0.0800    0.9670 h1        1 HPM      0.029450
     50 H7C1       -1.6470   -1.7440   -0.6510 h1        1 HPM      0.049700
     51 H7C2       -0.4870   -3.1410   -0.5280 h1        1 HPM      0.049700
     52 H8         -1.9870   -3.4950    1.8460 h1        1 HPM      0.071700
     53 H9C1       -3.9230   -2.6170   -0.4420 h1        1 HPM      0.056700
     54 H9C2       -3.5890   -1.6270    1.0750 h1        1 HPM      0.056700
     55 H13        -8.6600   -4.4970    2.7250 ha        1 HPM      0.140000
     56 H16        -5.6750   -1.3010    0.2470 ha        1 HPM      0.165000
     57 H18        -9.9420    0.5410   -0.0670 h5        1 HPM      0.058100
     58 H21       -10.6050   -4.1410    2.2240 hn        1 HPM      0.422800
     59 H23       -12.7910   -5.0230    1.5250 h4        1 HPM      0.039100
     60 H27       -12.2970   -0.8980    2.9570 h4        1 HPM      0.039100
     61 H28       -16.9050   -3.4570    2.2740 hn        1 HPM      0.338500
     62 H31       -18.8160   -0.1660    4.0910 ha        1 HPM      0.146500
     63 H32       -21.2910   -0.4620    4.3130 ha        1 HPM      0.139000
     64 H33       -22.4920   -2.0780    2.8360 ha        1 HPM      0.137000
     65 H34       -21.2240   -3.3950    1.1370 ha        1 HPM      0.139000
     66 H35       -18.7660   -3.1140    0.9160 ha        1 HPM      0.146500
     67 H381       -6.0770   -6.7600    3.8040 h1        1 HPM      0.047700
     68 H382       -7.6060   -6.4960    2.8160 h1        1 HPM      0.047700
     69 H383       -7.2730   -5.4470    4.2870 h1        1 HPM      0.047700
     70 H39        -2.8740   -5.1090    0.4830 ho        1 HPM      0.418000
@<TRIPOS>BOND
     1    1    2 1   
     2    1    6 1   
     3    1   40 1   
     4    1   41 1   
     5    2    3 1   
     6    2   42 1   
     7    2   43 1   
     8    3    4 1   
     9    3   44 1   
    10    3   45 1   
    11    4    5 1   
    12    4   46 1   
    13    4   47 1   
    14    5    6 1   
    15    5   48 1   
    16    5   49 1   
    17    6    7 1   
    18    7    8 1   
    19    7   50 1   
    20    7   51 1   
    21    8    9 1   
    22    8   39 1   
    23    8   52 1   
    24    9   10 1   
    25    9   53 1   
    26    9   54 1   
    27   10   11 1   
    28   11   12 ar  
    29   11   16 ar  
    30   12   13 ar  
    31   12   37 1   
    32   13   14 ar  
    33   13   55 1   
    34   14   15 ar  
    35   14   20 ar  
    36   15   16 ar  
    37   15   17 ar  
    38   16   56 1   
    39   17   18 ar  
    40   18   19 ar  
    41   18   57 1   
    42   19   20 ar  
    43   20   21 1   
    44   21   22 1   
    45   21   58 1   
    46   22   23 ar  
    47   22   27 ar  
    48   23   24 ar  
    49   23   59 1   
    50   24   25 ar  
    51   25   26 ar  
    52   25   28 1   
    53   26   27 ar  
    54   27   60 1   
    55   28   29 1   
    56   28   61 1   
    57   29   30 1   
    58   29   36 2   
    59   30   31 ar  
    60   30   35 ar  
    61   31   32 ar  
    62   31   62 1   
    63   32   33 ar  
    64   32   63 1   
    65   33   34 ar  
    66   33   64 1   
    67   34   35 ar  
    68   34   65 1   
    69   35   66 1   
    70   37   38 1   
    71   38   67 1   
    72   38   68 1   
    73   38   69 1   
    74   39   70 1   
@<TRIPOS>SUBSTRUCTURE
     1 HPM         1 TEMP              0 ****  ****    0 ROOT
