@<TRIPOS>MOLECULE
HPN
   24    23     1     0     0
SMALL
bcc


@<TRIPOS>ATOM
      1 N1          0.5800    0.0000   -3.9620 n         1 HPN     -0.684000
      2 C1         -0.1140    0.0000   -2.7750 c         1 HPN      0.655100
      3 O1         -1.3610    0.0000   -2.7910 o         1 HPN     -0.612100
      4 C2          0.6930   -0.0000   -1.4910 c3        1 HPN     -0.148400
      5 C3         -0.2140   -0.0000   -0.2790 c3        1 HPN     -0.074400
      6 C4          0.5930   -0.0000    1.0010 c3        1 HPN     -0.079400
      7 C5         -0.3110   -0.0000    2.2150 c3        1 HPN     -0.079400
      8 C6          0.4910   -0.0000    3.4990 c3        1 HPN     -0.080400
      9 C7         -0.4060    0.0000    4.7100 c3        1 HPN     -0.093100
     10 HN11        0.0860    0.0000   -4.8180 hn        1 HPN      0.309500
     11 HN12        1.5650    0.0000   -3.9780 hn        1 HPN      0.309500
     12 H21         1.3540    0.9070   -1.4720 hc        1 HPN      0.060700
     13 H22         1.3540   -0.9070   -1.4720 hc        1 HPN      0.060700
     14 H31        -0.8830   -0.9000   -0.3140 hc        1 HPN      0.060700
     15 H32        -0.8830    0.9000   -0.3140 hc        1 HPN      0.060700
     16 H41         1.2590    0.9030    1.0290 hc        1 HPN      0.036700
     17 H42         1.2590   -0.9030    1.0290 hc        1 HPN      0.036700
     18 H51        -0.9770   -0.9020    2.1870 hc        1 HPN      0.043700
     19 H52        -0.9770    0.9020    2.1870 hc        1 HPN      0.043700
     20 H61         1.1570    0.9020    3.5240 hc        1 HPN      0.037700
     21 H62         1.1570   -0.9020    3.5240 hc        1 HPN      0.037700
     22 H71         0.2040    0.0000    5.6450 hc        1 HPN      0.033367
     23 H72        -1.0610    0.9050    4.7160 hc        1 HPN      0.033367
     24 H73        -1.0610   -0.9050    4.7160 hc        1 HPN      0.033367
@<TRIPOS>BOND
     1    1    2 1   
     2    1   10 1   
     3    1   11 1   
     4    2    3 2   
     5    2    4 1   
     6    4    5 1   
     7    4   12 1   
     8    4   13 1   
     9    5    6 1   
    10    5   14 1   
    11    5   15 1   
    12    6    7 1   
    13    6   16 1   
    14    6   17 1   
    15    7    8 1   
    16    7   18 1   
    17    7   19 1   
    18    8    9 1   
    19    8   20 1   
    20    8   21 1   
    21    9   22 1   
    22    9   23 1   
    23    9   24 1   
@<TRIPOS>SUBSTRUCTURE
     1 HPN         1 TEMP              0 ****  ****    0 ROOT
