@<TRIPOS>MOLECULE
HPN
   25    24     1     0     0
SMALL
bcc


@<TRIPOS>ATOM
      1 N1         -0.1060    0.0010   -0.0540 n4        1 HPN     -0.776400
      2 C1          1.4190    0.0000    0.0700 c         1 HPN      0.551100
      3 O1          1.8210    0.0000    1.2170 o         1 HPN     -0.376100
      4 C2          2.1600    0.0000   -1.2310 c3        1 HPN     -0.149400
      5 C3          3.6590    0.0000   -0.9860 c3        1 HPN     -0.084400
      6 C4          4.4020   -0.0000   -2.3060 c3        1 HPN     -0.081400
      7 C5          5.8990   -0.0000   -2.0760 c3        1 HPN     -0.080400
      8 C6          6.6510   -0.0000   -3.3910 c3        1 HPN     -0.079400
      9 C7          8.1410   -0.0000   -3.1680 c3        1 HPN     -0.096100
     10 HN11       -0.4140    0.8330   -0.5640 hn        1 HPN      0.467467
     11 HN12       -0.4140   -0.8320   -0.5640 hn        1 HPN      0.467467
     12 H21         1.8720   -0.9110   -1.8260 hc        1 HPN      0.104700
     13 H22         1.8720    0.9110   -1.8260 hc        1 HPN      0.104700
     14 H31         3.9460    0.9040   -0.3860 hc        1 HPN      0.074700
     15 H32         3.9460   -0.9040   -0.3860 hc        1 HPN      0.074700
     16 H41         4.1140    0.9040   -2.9050 hc        1 HPN      0.049700
     17 H42         4.1140   -0.9050   -2.9050 hc        1 HPN      0.049700
     18 H51         6.1890    0.9030   -1.4770 hc        1 HPN      0.049700
     19 H52         6.1890   -0.9030   -1.4770 hc        1 HPN      0.049700
     20 H61         6.3590    0.9030   -3.9900 hc        1 HPN      0.042700
     21 H62         6.3590   -0.9030   -3.9890 hc        1 HPN      0.042700
     22 H71         8.6770   -0.0000   -4.1490 hc        1 HPN      0.041700
     23 H72         8.4560   -0.9050   -2.5950 hc        1 HPN      0.041700
     24 H73         8.4560    0.9050   -2.5950 hc        1 HPN      0.041700
     25 H13        -0.5370    0.0010    0.8790 hn        1 HPN      0.467467
@<TRIPOS>BOND
     1    1    2 1   
     2    1   10 1   
     3    1   11 1   
     4    1   25 1   
     5    2    3 2   
     6    2    4 1   
     7    4    5 1   
     8    4   12 1   
     9    4   13 1   
    10    5    6 1   
    11    5   14 1   
    12    5   15 1   
    13    6    7 1   
    14    6   16 1   
    15    6   17 1   
    16    7    8 1   
    17    7   18 1   
    18    7   19 1   
    19    8    9 1   
    20    8   20 1   
    21    8   21 1   
    22    9   22 1   
    23    9   23 1   
    24    9   24 1   
@<TRIPOS>SUBSTRUCTURE
     1 HPN         1 TEMP              0 ****  ****    0 ROOT
