@<TRIPOS>MOLECULE
HPN
   24    23     1     0     0
SMALL
bcc


@<TRIPOS>ATOM
      1 N1         -4.0760    1.0800    1.8240 n         1 HPN     -0.679000
      2 C1         -2.6580    1.1000    1.8710 c         1 HPN      0.656100
      3 O1         -2.0850    1.1290    2.9420 o         1 HPN     -0.614100
      4 C2         -1.8590    1.0920    0.5860 c3        1 HPN     -0.155400
      5 C3         -0.6630    0.1780    0.7410 c3        1 HPN     -0.076400
      6 C4          0.1190    0.1470   -0.5530 c3        1 HPN     -0.080400
      7 C5          1.4080   -0.6170   -0.3450 c3        1 HPN     -0.079400
      8 C6          2.1650   -0.6950   -1.6520 c3        1 HPN     -0.080400
      9 C7          3.4640   -1.4420   -1.4400 c3        1 HPN     -0.093100
     10 HN11       -4.5070    1.0610    1.0180 hn        1 HPN      0.309500
     11 HN12       -4.5580    1.0860    2.6010 hn        1 HPN      0.309500
     12 H21        -1.5530    1.9990    0.3870 hc        1 HPN      0.072200
     13 H22        -2.4220    0.7700   -0.1460 hc        1 HPN      0.072200
     14 H31        -0.0900    0.5110    1.4610 hc        1 HPN      0.045200
     15 H32        -0.9690   -0.7250    0.9590 hc        1 HPN      0.045200
     16 H41        -0.4130   -0.2940   -1.2450 hc        1 HPN      0.042700
     17 H42         0.3240    1.0620   -0.8320 hc        1 HPN      0.042700
     18 H51         1.9560   -0.1560    0.3220 hc        1 HPN      0.040700
     19 H52         1.2050   -1.5200   -0.0310 hc        1 HPN      0.040700
     20 H61         2.3580    0.2090   -1.9720 hc        1 HPN      0.039700
     21 H62         1.6220   -1.1670   -2.3150 hc        1 HPN      0.039700
     22 H71         4.0240   -0.9480   -0.8060 hc        1 HPN      0.033700
     23 H72         3.9350   -1.5280   -2.2950 hc        1 HPN      0.033700
     24 H73         3.2720   -2.3340   -1.0810 hc        1 HPN      0.033700
@<TRIPOS>BOND
     1    1    2 1   
     2    1   10 1   
     3    1   11 1   
     4    2    3 2   
     5    2    4 1   
     6    4    5 1   
     7    4   12 1   
     8    4   13 1   
     9    5    6 1   
    10    5   14 1   
    11    5   15 1   
    12    6    7 1   
    13    6   16 1   
    14    6   17 1   
    15    7    8 1   
    16    7   18 1   
    17    7   19 1   
    18    8    9 1   
    19    8   20 1   
    20    8   21 1   
    21    9   22 1   
    22    9   23 1   
    23    9   24 1   
@<TRIPOS>SUBSTRUCTURE
     1 HPN         1 TEMP              0 ****  ****    0 ROOT
