@<TRIPOS>MOLECULE
HPN
   25    24     1     0     0
SMALL
bcc


@<TRIPOS>ATOM
      1 N1         -0.1040    0.0180   -0.0500 nz        1 HPN     -0.776400
      2 C1          1.4210   -0.0030    0.0720 c         1 HPN      0.551100
      3 O1          1.8230   -0.0190    1.2190 o         1 HPN     -0.376100
      4 C2          2.1600   -0.0030   -1.2300 c3        1 HPN     -0.149400
      5 C3          3.6600   -0.0010   -0.9850 c3        1 HPN     -0.084400
      6 C4          4.4010   -0.0050   -2.3070 c3        1 HPN     -0.081400
      7 C5          5.8990   -0.0020   -2.0780 c3        1 HPN     -0.080400
      8 C6          6.6490   -0.0060   -3.3930 c3        1 HPN     -0.079400
      9 C7          8.1400   -0.0030   -3.1720 c3        1 HPN     -0.096100
     10 HN11       -0.4020    0.8620   -0.5470 hn        1 HPN      0.467467
     11 HN12       -0.4240   -0.8030   -0.5710 hn        1 HPN      0.467467
     12 H21         1.8720   -0.9150   -1.8220 hc        1 HPN      0.105200
     13 H22         1.8710    0.9070   -1.8250 hc        1 HPN      0.105200
     14 H31         3.9460    0.9050   -0.3880 hc        1 HPN      0.074200
     15 H32         3.9470   -0.9030   -0.3830 hc        1 HPN      0.074200
     16 H41         4.1120    0.8970   -2.9080 hc        1 HPN      0.049700
     17 H42         4.1140   -0.9120   -2.9010 hc        1 HPN      0.049700
     18 H51         6.1890    0.9040   -1.4820 hc        1 HPN      0.049700
     19 H52         6.1910   -0.9030   -1.4760 hc        1 HPN      0.049700
     20 H61         6.3560    0.8950   -3.9950 hc        1 HPN      0.042700
     21 H62         6.3580   -0.9120   -3.9880 hc        1 HPN      0.042700
     22 H71         8.6740   -0.0060   -4.1530 hc        1 HPN      0.041700
     23 H72         8.4560   -0.9060   -2.5960 hc        1 HPN      0.041700
     24 H73         8.4540    0.9050   -2.6020 hc        1 HPN      0.041700
     25 H13        -0.5350    0.0110    0.8830 hn        1 HPN      0.467467
@<TRIPOS>BOND
     1    1    2 1   
     2    1   10 1   
     3    1   11 1   
     4    1   25 1   
     5    2    3 2   
     6    2    4 1   
     7    4    5 1   
     8    4   12 1   
     9    4   13 1   
    10    5    6 1   
    11    5   14 1   
    12    5   15 1   
    13    6    7 1   
    14    6   16 1   
    15    6   17 1   
    16    7    8 1   
    17    7   18 1   
    18    7   19 1   
    19    8    9 1   
    20    8   20 1   
    21    8   21 1   
    22    9   22 1   
    23    9   23 1   
    24    9   24 1   
@<TRIPOS>SUBSTRUCTURE
     1 HPN         1 TEMP              0 ****  ****    0 ROOT
