@<TRIPOS>MOLECULE
HPO
   25    23     1     0     0
SMALL
bcc


@<TRIPOS>ATOM
      1 C1         -0.4070    0.6550    6.0900 c3        1 HPO     -0.205000
      2 C2          0.3770    0.0780    4.9400 c3        1 HPO     -0.160000
      3 C3         -0.3890    0.1630    3.6360 c3        1 HPO     -0.159000
      4 C4          0.4050   -0.4150    2.4830 c3        1 HPO     -0.141000
      5 C5         -0.3570   -0.3300    1.1810 c3        1 HPO     -0.208000
      6 C6          0.4660   -0.8000   -0.0180 c2        1 HPO      0.278000
      7 C7         -0.2490   -0.8840   -1.2130 c2        1 HPO     -0.757000
      8 O1          1.7000   -1.0320    0.1640 o         1 HPO     -0.557000
      9 P1         -0.9620    0.8570   -2.6740 p3        1 HPO      2.505000
     10 O2          0.1330    0.8330   -3.6760 o         1 HPO     -1.187333
     11 O3         -2.2280    0.1630   -3.0330 o         1 HPO     -1.187333
     12 O4         -1.0590    2.0100   -1.7430 o         1 HPO     -1.187333
     13 H11         0.1760    0.5850    7.0410 hc        1 HPO      0.056000
     14 H12        -0.6450    1.7300    5.9020 hc        1 HPO      0.056000
     15 H13        -1.3690    0.1050    6.2260 hc        1 HPO      0.056000
     16 H21         1.3490    0.6270    4.8340 hc        1 HPO      0.070000
     17 H22         0.6270   -0.9940    5.1560 hc        1 HPO      0.070000
     18 H31        -1.3620   -0.3870    3.7380 hc        1 HPO      0.068500
     19 H32        -0.6390    1.2350    3.4170 hc        1 HPO      0.068500
     20 H41         1.3770    0.1340    2.3700 hc        1 HPO      0.075500
     21 H42         0.6610   -1.4850    2.6980 hc        1 HPO      0.075500
     22 H51        -1.2910   -0.9440    1.2500 hc        1 HPO      0.080500
     23 H52        -0.6610    0.7300    0.9760 hc        1 HPO      0.080500
     24 H71         0.2510   -1.2770   -2.1030 ha        1 HPO      0.103500
     25 H72        -1.3380   -0.9840   -1.1690 ha        1 HPO      0.103500
@<TRIPOS>BOND
     1    1    2 1   
     2    1   13 1   
     3    1   14 1   
     4    1   15 1   
     5    2    3 1   
     6    2   16 1   
     7    2   17 1   
     8    3    4 1   
     9    3   18 1   
    10    3   19 1   
    11    4    5 1   
    12    4   20 1   
    13    4   21 1   
    14    5    6 1   
    15    5   22 1   
    16    5   23 1   
    17    6    7 1   
    18    6    8 1   
    19    7   24 1   
    20    7   25 1   
    21    9   10 1   
    22    9   11 1   
    23    9   12 1   
@<TRIPOS>SUBSTRUCTURE
     1 HPO         1 TEMP              0 ****  ****    0 ROOT
