@<TRIPOS>MOLECULE
HPO
   25    23     1     0     0
SMALL
bcc


@<TRIPOS>ATOM
      1 C1         -0.0200   -0.6210    0.3690 c3        1 HPO     -0.205000
      2 C2          1.3630   -0.0600    0.1590 c3        1 HPO     -0.160000
      3 C3          2.2020   -0.1410    1.4180 c3        1 HPO     -0.159000
      4 C4          3.5920    0.4210    1.1990 c3        1 HPO     -0.141000
      5 C5          4.4310    0.3410    2.4530 c3        1 HPO     -0.208000
      6 C6          5.8740    0.7930    2.2290 c2        1 HPO      0.278000
      7 C7          6.6390    0.8810    3.3930 c2        1 HPO     -0.756000
      8 O1          6.2500    1.0100    1.0370 o         1 HPO     -0.557000
      9 P1          7.6250   -0.8580    4.6880 p3        1 HPO      2.505000
     10 O2          9.0040   -0.8530    4.1390 o         1 HPO     -1.187333
     11 O3          7.4050   -0.1480    5.9780 o         1 HPO     -1.187333
     12 O4          6.7330   -2.0040    4.3820 o         1 HPO     -1.187333
     13 H11        -0.6210   -0.5530   -0.5700 hc        1 HPO      0.056000
     14 H12        -0.5550   -0.0560    1.1710 hc        1 HPO      0.056000
     15 H13         0.0350   -1.6930    0.6770 hc        1 HPO      0.056000
     16 H21         1.8770   -0.6220   -0.6640 hc        1 HPO      0.070000
     17 H22         1.2890    1.0100   -0.1710 hc        1 HPO      0.070000
     18 H31         2.2800   -1.2100    1.7480 hc        1 HPO      0.068500
     19 H32         1.6930    0.4230    2.2430 hc        1 HPO      0.068500
     20 H41         3.5210    1.4880    0.8640 hc        1 HPO      0.075500
     21 H42         4.1120   -0.1420    0.3790 hc        1 HPO      0.075500
     22 H51         4.4720   -0.7170    2.8260 hc        1 HPO      0.080500
     23 H52         3.9690    0.9670    3.2570 hc        1 HPO      0.080500
     24 H71         7.6620    1.2620    3.3270 ha        1 HPO      0.103500
     25 H72         6.1260    0.9950    4.3530 ha        1 HPO      0.103500
@<TRIPOS>BOND
     1    1    2 1   
     2    1   13 1   
     3    1   14 1   
     4    1   15 1   
     5    2    3 1   
     6    2   16 1   
     7    2   17 1   
     8    3    4 1   
     9    3   18 1   
    10    3   19 1   
    11    4    5 1   
    12    4   20 1   
    13    4   21 1   
    14    5    6 1   
    15    5   22 1   
    16    5   23 1   
    17    6    7 1   
    18    6    8 1   
    19    7   24 1   
    20    7   25 1   
    21    9   10 1   
    22    9   11 1   
    23    9   12 1   
@<TRIPOS>SUBSTRUCTURE
     1 HPO         1 TEMP              0 ****  ****    0 ROOT
