@<TRIPOS>MOLECULE
HPO
   25    24     1     0     0
SMALL
bcc


@<TRIPOS>ATOM
      1 C1         -3.8400   -0.1110   -2.0250 c3        1 HPO     -0.087100
      2 C2         -2.3270   -0.1200   -2.0210 c3        1 HPO     -0.081400
      3 C3         -1.8260    0.0250   -0.6000 c3        1 HPO     -0.080400
      4 C4         -0.3140    0.0700   -0.6010 c3        1 HPO     -0.062400
      5 C5          0.1920    0.0520    0.8240 c3        1 HPO     -0.179400
      6 C6          1.7040    0.1060    0.8240 c         1 HPO      0.617100
      7 C7          2.4780   -0.3670    2.0340 c3        1 HPO     -0.319600
      8 O1          2.2960    0.5310   -0.1480 o         1 HPO     -0.796100
      9 P1          4.1840    0.2480    1.9400 p5        1 HPO      1.138700
     10 O2          4.9200   -0.1130    3.2080 o         1 HPO     -0.867833
     11 O3          4.1690    1.7490    1.7760 o         1 HPO     -0.867833
     12 O4          4.8810   -0.3810    0.7570 o         1 HPO     -0.867833
     13 H11        -4.1630    0.7000   -1.5800 hc        1 HPO      0.016700
     14 H12        -4.1640   -0.1270   -2.9500 hc        1 HPO      0.016700
     15 H13        -4.1730   -0.9000   -1.5480 hc        1 HPO      0.016700
     16 H21        -1.9950    0.6240   -2.5610 hc        1 HPO      0.030700
     17 H22        -2.0050   -0.9640   -2.3950 hc        1 HPO      0.030700
     18 H31        -2.1290   -0.7380   -0.0680 hc        1 HPO      0.029200
     19 H32        -2.1770    0.8520   -0.2140 hc        1 HPO      0.029200
     20 H41        -0.0130    0.8880   -1.0440 hc        1 HPO      0.036200
     21 H42         0.0350   -0.7080   -1.0810 hc        1 HPO      0.036200
     22 H51        -0.1050   -0.7700    1.2650 hc        1 HPO      0.041200
     23 H52        -0.1620    0.8260    1.3060 hc        1 HPO      0.041200
     24 H71         2.4850   -1.3450    2.0550 hc        1 HPO      0.064200
     25 H72         2.0530   -0.0270    2.8470 hc        1 HPO      0.064200
@<TRIPOS>BOND
     1    1    2 1   
     2    1   13 1   
     3    1   14 1   
     4    1   15 1   
     5    2    3 1   
     6    2   16 1   
     7    2   17 1   
     8    3    4 1   
     9    3   18 1   
    10    3   19 1   
    11    4    5 1   
    12    4   20 1   
    13    4   21 1   
    14    5    6 1   
    15    5   22 1   
    16    5   23 1   
    17    6    7 1   
    18    6    8 2   
    19    7    9 1   
    20    7   24 1   
    21    7   25 1   
    22    9   10 1   
    23    9   11 1   
    24    9   12 1   
@<TRIPOS>SUBSTRUCTURE
     1 HPO         1 TEMP              0 ****  ****    0 ROOT
