@<TRIPOS>MOLECULE
HPO
   25    23     1     0     0
SMALL
bcc


@<TRIPOS>ATOM
      1 C1         -0.0340    0.5760    0.3820 c3        1 HPO     -0.205000
      2 C2          1.3500    0.0160    0.1720 c3        1 HPO     -0.160000
      3 C3          2.1980    0.1240    1.4220 c3        1 HPO     -0.159000
      4 C4          3.5880   -0.4360    1.2040 c3        1 HPO     -0.141000
      5 C5          4.4370   -0.3300    2.4490 c3        1 HPO     -0.208000
      6 C6          5.8800   -0.7760    2.2220 c2        1 HPO      0.278000
      7 C7          6.6500   -0.8600    3.3830 c2        1 HPO     -0.757000
      8 O1          6.2540   -0.9910    1.0290 o         1 HPO     -0.557000
      9 P1          7.6380    0.8830    4.6740 p3        1 HPO      2.505000
     10 O2          6.7700    2.0400    4.3410 o         1 HPO     -1.187333
     11 O3          7.3870    0.1930    5.9690 o         1 HPO     -1.187333
     12 O4          9.0240    0.8480    4.1440 o         1 HPO     -1.187333
     13 H11        -0.6410    0.4880   -0.5520 hc        1 HPO      0.056000
     14 H12         0.0190    1.6540    0.6680 hc        1 HPO      0.056000
     15 H13        -0.5610    0.0250    1.1980 hc        1 HPO      0.056000
     16 H21         1.2780   -1.0600   -0.1370 hc        1 HPO      0.070000
     17 H22         1.8550    0.5650   -0.6660 hc        1 HPO      0.070000
     18 H31         1.6980   -0.4260    2.2620 hc        1 HPO      0.069000
     19 H32         2.2740    1.2000    1.7320 hc        1 HPO      0.069000
     20 H41         4.1000    0.1140    0.3700 hc        1 HPO      0.076000
     21 H42         3.5190   -1.5090    0.8880 hc        1 HPO      0.076000
     22 H51         3.9840   -0.9460    3.2680 hc        1 HPO      0.080000
     23 H52         4.4730    0.7340    2.8050 hc        1 HPO      0.080000
     24 H71         6.1410   -0.9760    4.3450 ha        1 HPO      0.103500
     25 H72         7.6750   -1.2370    3.3130 ha        1 HPO      0.103500
@<TRIPOS>BOND
     1    1    2 1   
     2    1   13 1   
     3    1   14 1   
     4    1   15 1   
     5    2    3 1   
     6    2   16 1   
     7    2   17 1   
     8    3    4 1   
     9    3   18 1   
    10    3   19 1   
    11    4    5 1   
    12    4   20 1   
    13    4   21 1   
    14    5    6 1   
    15    5   22 1   
    16    5   23 1   
    17    6    7 1   
    18    6    8 1   
    19    7   24 1   
    20    7   25 1   
    21    9   10 1   
    22    9   11 1   
    23    9   12 1   
@<TRIPOS>SUBSTRUCTURE
     1 HPO         1 TEMP              0 ****  ****    0 ROOT
