@<TRIPOS>MOLECULE
HPP
   21    18     1     0     0
SMALL
bcc


@<TRIPOS>ATOM
      1 C1          0.0680   -0.2750   -0.0010 c1        1 HPP     -0.033100
      2 C2          1.4560   -0.3230   -0.0020 c1        1 HPP     -0.104000
      3 C3          2.1420   -0.3810    1.1910 c1        1 HPP     -0.104000
      4 C4          1.4490   -0.3900    2.3810 c1        1 HPP      0.069600
      5 O4          2.1770   -0.4150    3.6460 oh        1 HPP     -0.498600
      6 C5          0.0410   -0.3400    2.3780 c1        1 HPP     -0.100500
      7 C6         -0.6310   -0.2840    1.2080 c1        1 HPP     -0.044500
      8 C7         -0.7290   -0.3400   -1.3660 c3        1 HPP     -0.070300
      9 C8         -1.2370    1.0470   -1.7160 c3        1 HPP     -0.192400
     10 C9         -1.9130    1.0130   -3.0350 c         1 HPP      0.907600
     11 O1         -2.9290    0.4030   -3.1640 o         1 HPP     -0.848800
     12 O2         -1.3200    1.4870   -4.0670 o         1 HPP     -0.848800
     13 H2          1.9330   -0.3160   -0.8270 ha        1 HPP      0.066000
     14 H3          3.1170   -0.3770    1.1950 ha        1 HPP      0.066000
     15 HO4         2.3140   -1.3300    3.9200 ho        1 HPP      0.405000
     16 H5         -0.4480   -0.3470    3.2160 ha        1 HPP      0.077500
     17 H6         -1.5710   -0.2490    1.2100 ha        1 HPP      0.088500
     18 H71        -1.4590   -0.9280   -1.2770 hc        1 HPP      0.058200
     19 H72        -0.1430   -0.6590   -2.0720 hc        1 HPP      0.058200
     20 H81        -0.4750    1.6840   -1.7490 hc        1 HPP      0.024700
     21 H82        -1.8410    1.3210   -1.0670 hc        1 HPP      0.024700
@<TRIPOS>BOND
     1    1    7 3   
     2    1    8 1   
     3    2    3 3   
     4    2   13 1   
     5    3   14 1   
     6    4    5 1   
     7    4    6 3   
     8    5   15 1   
     9    6   16 1   
    10    7   17 1   
    11    8    9 1   
    12    8   18 1   
    13    8   19 1   
    14    9   10 1   
    15    9   20 1   
    16    9   21 1   
    17   10   11 1   
    18   10   12 1   
@<TRIPOS>SUBSTRUCTURE
     1 HPP         1 TEMP              0 ****  ****    0 ROOT
