@<TRIPOS>MOLECULE
HPP
   21    21     1     0     0
SMALL
bcc


@<TRIPOS>ATOM
      1 C1         -0.2340   -0.0510    0.1250 ca        1 HPP     -0.068300
      2 C2          1.1590    0.0620    0.0200 ca        1 HPP     -0.105000
      3 C3          1.9550    0.1700    1.1560 ca        1 HPP     -0.186500
      4 C4          1.3490    0.1650    2.4200 ca        1 HPP      0.086100
      5 O4          2.0760    0.2740    3.5910 oh        1 HPP     -0.516100
      6 C5         -0.0420    0.0520    2.5480 ca        1 HPP     -0.186500
      7 C6         -0.8190   -0.0560    1.3980 ca        1 HPP     -0.105000
      8 C7         -1.0680   -0.1540   -1.1030 c3        1 HPP     -0.037100
      9 C8         -0.8650   -1.4560   -1.8450 c3        1 HPP     -0.192400
     10 C9         -1.4350   -1.3720   -3.2740 c         1 HPP      0.907600
     11 O1         -1.2380   -0.3140   -3.9390 o         1 HPP     -0.848800
     12 O2         -2.0550   -2.3800   -3.7170 o         1 HPP     -0.848800
     13 H2          1.6220    0.0600   -0.9800 ha        1 HPP      0.138500
     14 H3          3.0460    0.2560    1.0670 ha        1 HPP      0.125000
     15 HO4         3.0100    0.3160    3.3470 ho        1 HPP      0.406000
     16 H5         -0.4980    0.0470    3.5460 ha        1 HPP      0.125000
     17 H6         -1.9120   -0.1490    1.4900 ha        1 HPP      0.138500
     18 H71        -0.8080    0.6890   -1.8050 hc        1 HPP      0.058700
     19 H72        -2.1530   -0.0430   -0.8420 hc        1 HPP      0.058700
     20 H81        -1.3540   -2.3000   -1.2980 hc        1 HPP      0.024200
     21 H82         0.2280   -1.6850   -1.9290 hc        1 HPP      0.024200
@<TRIPOS>BOND
     1    1    2 ar  
     2    1    7 ar  
     3    1    8 1   
     4    2    3 ar  
     5    2   13 1   
     6    3    4 ar  
     7    3   14 1   
     8    4    5 1   
     9    4    6 ar  
    10    5   15 1   
    11    6    7 ar  
    12    6   16 1   
    13    7   17 1   
    14    8    9 1   
    15    8   18 1   
    16    8   19 1   
    17    9   10 1   
    18    9   20 1   
    19    9   21 1   
    20   10   11 1   
    21   10   12 1   
@<TRIPOS>SUBSTRUCTURE
     1 HPP         1 TEMP              0 ****  ****    0 ROOT
