@<TRIPOS>MOLECULE
HPP
   21    21     1     0     0
SMALL
bcc


@<TRIPOS>ATOM
      1 C1          0.0950   -0.0140   -0.0710 ca        1 HPP     -0.067300
      2 C2          1.4790    0.1390    0.0630 ca        1 HPP     -0.105500
      3 C3          2.0710    0.2250    1.3220 ca        1 HPP     -0.186000
      4 C4          1.2640    0.1560    2.4630 ca        1 HPP      0.086100
      5 O4          1.7800    0.2390    3.7430 oh        1 HPP     -0.515100
      6 C5         -0.1260   -0.0000    2.3520 ca        1 HPP     -0.186000
      7 C6         -0.6960   -0.0840    1.0860 ca        1 HPP     -0.105500
      8 C7         -0.5400   -0.0960   -1.4150 c3        1 HPP     -0.036100
      9 C8         -1.0730   -1.4760   -1.7290 c3        1 HPP     -0.192400
     10 C9         -1.9810   -1.4440   -2.9730 c         1 HPP      0.907600
     11 O1         -2.8060   -0.4910   -3.0900 o         1 HPP     -0.848800
     12 O2         -1.8660   -2.3860   -3.8070 o         1 HPP     -0.848800
     13 H2          2.1090    0.1890   -0.8380 ha        1 HPP      0.138500
     14 H3          3.1590    0.3440    1.4180 ha        1 HPP      0.125500
     15 HO4         2.7400    0.3140    3.6620 ho        1 HPP      0.405000
     16 H5         -0.7410   -0.0550    3.2590 ha        1 HPP      0.125500
     17 H6         -1.7850   -0.2120    0.9800 ha        1 HPP      0.138500
     18 H71         0.1970    0.2030   -2.2060 hc        1 HPP      0.058200
     19 H72        -1.4000    0.6290   -1.4720 hc        1 HPP      0.058200
     20 H81        -1.6830   -1.8570   -0.8710 hc        1 HPP      0.024700
     21 H82        -0.2320   -2.1930   -1.9010 hc        1 HPP      0.024700
@<TRIPOS>BOND
     1    1    2 ar  
     2    1    7 ar  
     3    1    8 1   
     4    2    3 ar  
     5    2   13 1   
     6    3    4 ar  
     7    3   14 1   
     8    4    5 1   
     9    4    6 ar  
    10    5   15 1   
    11    6    7 ar  
    12    6   16 1   
    13    7   17 1   
    14    8    9 1   
    15    8   18 1   
    16    8   19 1   
    17    9   10 1   
    18    9   20 1   
    19    9   21 1   
    20   10   11 1   
    21   10   12 1   
@<TRIPOS>SUBSTRUCTURE
     1 HPP         1 TEMP              0 ****  ****    0 ROOT
