@<TRIPOS>MOLECULE
HPP
   21    21     1     0     0
SMALL
bcc


@<TRIPOS>ATOM
      1 C1          0.1160    0.4290   -0.4190 ca        1 HPP     -0.067300
      2 C2         -1.1460    0.2150   -0.9950 ca        1 HPP     -0.105500
      3 C3         -1.2840   -0.0140   -2.3590 ca        1 HPP     -0.186000
      4 C4         -0.1350   -0.0320   -3.1660 ca        1 HPP      0.086100
      5 O4         -0.3270   -0.2590   -4.5160 oh        1 HPP     -0.515100
      6 C5          1.1330    0.1760   -2.6110 ca        1 HPP     -0.186000
      7 C6          1.2480    0.4050   -1.2420 ca        1 HPP     -0.105500
      8 C7          0.2370    0.6830    1.0420 c3        1 HPP     -0.036100
      9 C8         -0.0580   -0.5430    1.8770 c3        1 HPP     -0.192400
     10 C9         -0.2260   -0.1680    3.3620 c         1 HPP      0.907600
     11 O1         -0.8900    0.8710    3.6490 o         1 HPP     -0.848800
     12 O2          0.2980   -0.9320    4.2220 o         1 HPP     -0.848800
     13 H2         -2.0360    0.2280   -0.3460 ha        1 HPP      0.138500
     14 H3         -2.2690   -0.1820   -2.8130 ha        1 HPP      0.125500
     15 HO4         0.5450   -0.2720   -4.9320 ho        1 HPP      0.405000
     16 H5          2.0260    0.1570   -3.2490 ha        1 HPP      0.125500
     17 H6          2.2430    0.5650   -0.8000 ha        1 HPP      0.138500
     18 H71        -0.4860    1.4930    1.3460 hc        1 HPP      0.058200
     19 H72         1.2680    1.0540    1.2830 hc        1 HPP      0.058200
     20 H81         0.7610   -1.2950    1.7740 hc        1 HPP      0.024700
     21 H82        -1.0120   -1.0190    1.5360 hc        1 HPP      0.024700
@<TRIPOS>BOND
     1    1    2 ar  
     2    1    7 ar  
     3    1    8 1   
     4    2    3 ar  
     5    2   13 1   
     6    3    4 ar  
     7    3   14 1   
     8    4    5 1   
     9    4    6 ar  
    10    5   15 1   
    11    6    7 ar  
    12    6   16 1   
    13    7   17 1   
    14    8    9 1   
    15    8   18 1   
    16    8   19 1   
    17    9   10 1   
    18    9   20 1   
    19    9   21 1   
    20   10   11 1   
    21   10   12 1   
@<TRIPOS>SUBSTRUCTURE
     1 HPP         1 TEMP              0 ****  ****    0 ROOT
