@<TRIPOS>MOLECULE
HPQ
   28    26     1     0     0
SMALL
bcc


@<TRIPOS>ATOM
      1 N           0.4670   -1.9850    2.3100 n3        1 HPQ     -0.319000
      2 CA         -0.1370   -1.8600    1.0280 c3        1 HPQ     -0.079000
      3 C           0.1650   -3.0920    0.2060 c2        1 HPQ      0.187000
      4 O           1.3150   -3.3750   -0.0630 o         1 HPQ     -0.300000
      5 CB          0.4140   -0.6390    0.3280 c3        1 HPQ     -0.146000
      6 CG         -0.3620    0.5840    0.7620 c3        1 HPQ     -0.119000
      7 CD         -0.0300    1.7420   -0.1530 c2        1 HPQ     -0.075000
      8 CE1        -0.8030    1.9790   -1.2790 c2        1 HPQ     -0.131000
      9 CE2         1.0130    2.5990    0.1630 c1        1 HPQ     -0.125000
     10 CZ1        -0.5330    3.0710   -2.0890 c1        1 HPQ     -0.128000
     11 CZ2         1.2830    3.6910   -0.6460 c1        1 HPQ     -0.130000
     12 CH          0.5100    3.9270   -1.7720 c1        1 HPQ     -0.130000
     13 CM         -0.9660   -3.9620   -0.2970 c3        1 HPQ     -0.269000
     14 H          -0.0500   -1.5600    2.9340 hn        1 HPQ      0.151500
     15 H2          0.5420   -2.8710    2.5270 hn        1 HPQ      0.151500
     16 HA         -1.1050   -1.7670    1.1320 h1        1 HPQ      0.115000
     17 HB1         1.3570   -0.5280    0.5610 hc        1 HPQ      0.089500
     18 HB2         0.3290   -0.7530   -0.6400 hc        1 HPQ      0.089500
     19 HG1        -1.3200    0.3960    0.7150 hc        1 HPQ      0.098500
     20 HG2        -0.1190    0.8150    1.6810 hc        1 HPQ      0.098500
     21 HE1        -1.5370    1.3760   -1.5020 ha        1 HPQ      0.128000
     22 HE2         1.5570    2.4330    0.9560 ha        1 HPQ      0.133000
     23 HZ1        -1.0770    3.2370   -2.8820 ha        1 HPQ      0.130000
     24 HZ2         2.0170    4.2940   -0.4230 ha        1 HPQ      0.131000
     25 HH1         0.7000    4.6960   -2.3420 ha        1 HPQ      0.131000
     26 HM1        -0.8860   -4.8580    0.0910 hc        1 HPQ      0.105000
     27 HM2        -0.9210   -4.0230   -1.2740 hc        1 HPQ      0.105000
     28 HM3        -1.8240   -3.5670   -0.0330 hc        1 HPQ      0.105000
@<TRIPOS>BOND
     1    1    2 1   
     2    1   14 1   
     3    1   15 1   
     4    2    3 1   
     5    2    5 1   
     6    2   16 1   
     7    3    4 1   
     8    3   13 1   
     9    5    6 1   
    10    5   17 1   
    11    5   18 1   
    12    6    7 1   
    13    6   19 1   
    14    6   20 1   
    15    7    8 1   
    16    7    9 1   
    17    8   10 1   
    18    8   21 1   
    19    9   22 1   
    20   10   23 1   
    21   11   12 1   
    22   11   24 1   
    23   12   25 1   
    24   13   26 1   
    25   13   27 1   
    26   13   28 1   
@<TRIPOS>SUBSTRUCTURE
     1 HPQ         1 TEMP              0 ****  ****    0 ROOT
