@<TRIPOS>MOLECULE
HPQ
   28    28     1     0     0
SMALL
bcc


@<TRIPOS>ATOM
      1 N           0.9970    0.1310    1.6800 n3        1 HPQ     -0.887800
      2 CA          2.3000    0.7030    1.4140 c3        1 HPQ      0.070500
      3 C           2.9970    0.1630    0.1600 c         1 HPQ      0.526100
      4 O           2.7730   -0.9740   -0.2680 o         1 HPQ     -0.538100
      5 CB          3.2640    0.5690    2.6040 c3        1 HPQ     -0.066400
      6 CG          3.5170   -0.8710    3.0080 c3        1 HPQ     -0.047100
      7 CD          4.6850   -0.9830    3.9240 ca        1 HPQ     -0.080300
      8 CE1         5.8670   -1.5990    3.4980 ca        1 HPQ     -0.127500
      9 CE2         4.6050   -0.4830    5.2300 ca        1 HPQ     -0.127500
     10 CZ1         6.9530   -1.7110    4.3640 ca        1 HPQ     -0.128500
     11 CZ2         5.6920   -0.5960    6.0940 ca        1 HPQ     -0.128500
     12 CH          6.8690   -1.2100    5.6630 ca        1 HPQ     -0.132000
     13 CM          3.9360    1.1040   -0.5190 c3        1 HPQ     -0.202100
     14 H           1.0840   -0.8340    1.9390 hn        1 HPQ      0.355800
     15 H2          0.4250    0.1890    0.8590 hn        1 HPQ      0.355800
     16 HA          2.1340    1.8110    1.2420 h1        1 HPQ      0.071700
     17 HB1         4.2320    1.0600    2.3230 hc        1 HPQ      0.055700
     18 HB2         2.8410    1.1320    3.4780 hc        1 HPQ      0.055700
     19 HG1         2.6100   -1.2830    3.5290 hc        1 HPQ      0.058700
     20 HG2         3.6830   -1.4950    2.0870 hc        1 HPQ      0.058700
     21 HE1         5.9380   -2.0000    2.4750 ha        1 HPQ      0.132500
     22 HE2         3.6760   -0.0020    5.5720 ha        1 HPQ      0.132500
     23 HZ1         7.8780   -2.1980    4.0220 ha        1 HPQ      0.131000
     24 HZ2         5.6220   -0.2020    7.1180 ha        1 HPQ      0.131000
     25 HH1         7.7260   -1.2990    6.3450 ha        1 HPQ      0.131000
     26 HM1         4.6400    1.5530    0.2230 hc        1 HPQ      0.066033
     27 HM2         3.3500    1.9280   -0.9970 hc        1 HPQ      0.066033
     28 HM3         4.5250    0.5780   -1.3090 hc        1 HPQ      0.066033
@<TRIPOS>BOND
     1    1    2 1   
     2    1   14 1   
     3    1   15 1   
     4    2    3 1   
     5    2    5 1   
     6    2   16 1   
     7    3    4 2   
     8    3   13 1   
     9    5    6 1   
    10    5   17 1   
    11    5   18 1   
    12    6    7 1   
    13    6   19 1   
    14    6   20 1   
    15    7    8 ar  
    16    7    9 ar  
    17    8   10 ar  
    18    8   21 1   
    19    9   11 ar  
    20    9   22 1   
    21   10   12 ar  
    22   10   23 1   
    23   11   12 ar  
    24   11   24 1   
    25   12   25 1   
    26   13   26 1   
    27   13   27 1   
    28   13   28 1   
@<TRIPOS>SUBSTRUCTURE
     1 HPQ         1 TEMP              0 ****  ****    0 ROOT
