@<TRIPOS>MOLECULE
HPR
   33    35     1     0     0
SMALL
bcc


@<TRIPOS>ATOM
      1 N1         -0.5850   -0.5150   -4.1240 nb        1 HPR     -0.764000
      2 C2         -1.5440   -0.5620   -3.1730 ca        1 HPR      0.665900
      3 N3         -1.4170   -0.4320   -1.8200 nb        1 HPR     -0.706000
      4 C4         -0.1420   -0.2460   -1.3980 ca        1 HPR      0.607200
      5 C5          0.9850   -0.1720   -2.3160 ca        1 HPR     -0.212000
      6 C6          0.6970   -0.3130   -3.6860 ca        1 HPR      0.664600
      7 O6          1.7350   -0.2110   -4.5750 oh        1 HPR     -0.600300
      8 N7          2.2150   -0.0430   -1.6200 nh        1 HPR     -0.642600
      9 C8          1.8190    0.0010   -0.1850 c3        1 HPR      0.391000
     10 N9          0.3400   -0.1680   -0.0550 nh        1 HPR     -0.744300
     11 C1'        -0.3530    0.7630    0.8400 c3        1 HPR      0.385300
     12 C2'        -1.6720    0.1560    1.4150 c3        1 HPR      0.143100
     13 O2'        -2.5910    1.2280    1.4540 oh        1 HPR     -0.587800
     14 C3'        -1.2640   -0.3600    2.8150 c3        1 HPR      0.085100
     15 O3'        -2.2670    0.0360    3.7290 oh        1 HPR     -0.595800
     16 C4'         0.0990    0.2890    3.1130 c3        1 HPR      0.063100
     17 O4'         0.4860    1.0630    1.9670 os        1 HPR     -0.419600
     18 C5'         1.1850   -0.7470    3.3990 c3        1 HPR      0.112400
     19 O5'         2.3970   -0.1240    3.7690 oh        1 HPR     -0.592800
     20 H2         -2.5820   -0.7250   -3.5380 h5        1 HPR      0.060100
     21 HO6         1.3990   -0.3410   -5.4790 ho        1 HPR      0.446000
     22 HN7         2.7260    0.7690   -1.9120 hn        1 HPR      0.383800
     23 H81         2.1750    0.9390    0.3300 h2        1 HPR      0.072700
     24 H82         2.2820   -0.9010    0.3090 h2        1 HPR      0.072700
     25 H1'        -0.5550    1.7640    0.3540 h2        1 HPR      0.097700
     26 H2'        -2.0900   -0.6760    0.7900 h1        1 HPR      0.090700
     27 HO2'       -3.2950    0.9840    2.0710 ho        1 HPR      0.431000
     28 H3'        -1.1790   -1.4810    2.8080 h1        1 HPR      0.061700
     29 HO3'       -1.9690   -0.2240    4.6090 ho        1 HPR      0.417000
     30 H4'         0.0310    1.0310    3.9560 h1        1 HPR      0.092700
     31 H5'1        1.3440   -1.3980    2.4970 h1        1 HPR      0.055200
     32 H5'2        0.8990   -1.3770    4.2820 h1        1 HPR      0.055200
     33 HO5'        2.6200    0.5000    3.0660 ho        1 HPR      0.410000
@<TRIPOS>BOND
     1    1    2 ar  
     2    1    6 ar  
     3    2    3 ar  
     4    2   20 1   
     5    3    4 ar  
     6    4    5 ar  
     7    4   10 1   
     8    5    6 ar  
     9    5    8 1   
    10    6    7 1   
    11    7   21 1   
    12    8    9 1   
    13    8   22 1   
    14    9   10 1   
    15    9   23 1   
    16    9   24 1   
    17   10   11 1   
    18   11   12 1   
    19   11   17 1   
    20   11   25 1   
    21   12   13 1   
    22   12   14 1   
    23   12   26 1   
    24   13   27 1   
    25   14   15 1   
    26   14   16 1   
    27   14   28 1   
    28   15   29 1   
    29   16   17 1   
    30   16   18 1   
    31   16   30 1   
    32   18   19 1   
    33   18   31 1   
    34   18   32 1   
    35   19   33 1   
@<TRIPOS>SUBSTRUCTURE
     1 HPR         1 TEMP              0 ****  ****    0 ROOT
