@<TRIPOS>MOLECULE
HPR
   33    32     1     0     0
SMALL
bcc


@<TRIPOS>ATOM
      1 N1         -2.8480    0.1640   -3.7110 n1        1 HPR     -0.563800
      2 C2         -1.4780    0.0640   -3.8590 c1        1 HPR      0.385300
      3 N3         -0.6560    0.1120   -2.7490 n1        1 HPR     -0.505800
      4 C4         -1.1960    0.2570   -1.5040 c1        1 HPR      0.136800
      5 C5         -2.5660    0.3570   -1.3570 c1        1 HPR     -0.104200
      6 C6         -3.3900    0.3090   -2.4760 c1        1 HPR      0.518400
      7 O6         -4.8240    0.4450   -2.3270 oh        1 HPR     -0.458600
      8 N7         -2.8530    0.5230    0.0540 n3        1 HPR     -0.619800
      9 C8         -1.6230    0.6260    0.7410 c3        1 HPR      0.388000
     10 N9         -0.5870    0.5250   -0.2120 n3        1 HPR     -0.599200
     11 C1'         0.2080   -0.4570    0.1070 c3        1 HPR      0.350300
     12 C2'         1.6330   -0.1850   -0.4290 c3        1 HPR      0.095100
     13 O2'         2.1700   -1.3910   -1.0890 oh        1 HPR     -0.581800
     14 C3'         2.3560    0.1100    0.6470 c3        1 HPR      0.082100
     15 O3'         3.7020   -0.3730    0.4840 oh        1 HPR     -0.593800
     16 C4'         1.6430   -0.6400    1.8890 c3        1 HPR      0.134100
     17 O4'         0.3530   -0.5620    1.6780 os        1 HPR     -0.408600
     18 C5'         2.0020    0.0450    3.1900 c3        1 HPR      0.114400
     19 O5'         1.7220   -0.8320    4.2840 oh        1 HPR     -0.593800
     20 H2         -1.0850   -0.0410   -4.7600 ha        1 HPR      0.139500
     21 HO6        -5.1310    1.0710   -2.9090 ho        1 HPR      0.446000
     22 HN7        -3.3180   -0.2130    0.3620 hn        1 HPR      0.383800
     23 H81        -1.5490   -0.1080    1.3750 h2        1 HPR      0.077700
     24 H82        -1.5720    1.5040    1.1820 h2        1 HPR      0.077700
     25 H1'        -0.1370   -1.3050   -0.2600 h2        1 HPR      0.080700
     26 H2'         1.6240    0.5700   -1.0500 h1        1 HPR      0.126700
     27 HO2'        2.6300   -1.1530   -1.8180 ho        1 HPR      0.415000
     28 H3'         2.3600    1.0980    0.7980 h1        1 HPR      0.064700
     29 HO3'        4.2420    0.3090    0.2730 ho        1 HPR      0.421000
     30 H4'         1.9250   -1.5840    1.9170 h1        1 HPR      0.115700
     31 H5'1        1.4770    0.8630    3.2850 h1        1 HPR      0.037700
     32 H5'2        2.9770    0.2740    3.1880 h1        1 HPR      0.037700
     33 HO5'        1.7900   -0.3800    5.0550 ho        1 HPR      0.403000
@<TRIPOS>BOND
     1    1    6 3   
     2    2    3 3   
     3    2   20 1   
     4    4    5 3   
     5    4   10 1   
     6    5    8 1   
     7    6    7 1   
     8    7   21 1   
     9    8    9 1   
    10    8   22 1   
    11    9   10 1   
    12    9   23 1   
    13    9   24 1   
    14   10   11 1   
    15   11   12 1   
    16   11   17 1   
    17   11   25 1   
    18   12   13 1   
    19   12   14 1   
    20   12   26 1   
    21   13   27 1   
    22   14   15 1   
    23   14   16 1   
    24   14   28 1   
    25   15   29 1   
    26   16   17 1   
    27   16   18 1   
    28   16   30 1   
    29   18   19 1   
    30   18   31 1   
    31   18   32 1   
    32   19   33 1   
@<TRIPOS>SUBSTRUCTURE
     1 HPR         1 TEMP              0 ****  ****    0 ROOT
