@<TRIPOS>MOLECULE
HPR
   33    35     1     0     0
SMALL
bcc


@<TRIPOS>ATOM
      1 N1         -0.3280    0.6440    0.2890 nb        1 HPR     -0.765000
      2 C2          1.0050    0.5560    0.0900 ca        1 HPR      0.666900
      3 N3          1.9790    0.1750    0.9690 nb        1 HPR     -0.730000
      4 C4          1.5150   -0.1310    2.2060 ca        1 HPR      0.605200
      5 C5          0.1020   -0.0970    2.5510 ca        1 HPR     -0.207000
      6 C6         -0.7850    0.3050    1.5360 ca        1 HPR      0.664600
      7 O6         -2.1250    0.3180    1.8200 oh        1 HPR     -0.598300
      8 N7         -0.1050   -0.4230    3.9170 nh        1 HPR     -0.644600
      9 C8          1.2620   -0.7150    4.4370 c3        1 HPR      0.395000
     10 N9          2.2720   -0.4700    3.3660 nh        1 HPR     -0.743300
     11 C1'         3.3330   -1.4600    3.1690 c3        1 HPR      0.354300
     12 C2'         4.6530   -0.7970    2.6610 c3        1 HPR      0.095100
     13 O2'         5.1600   -1.5540    1.5810 oh        1 HPR     -0.596800
     14 C3'         5.6410   -0.9100    3.8430 c3        1 HPR      0.131100
     15 O3'         6.8440   -1.5590    3.5150 oh        1 HPR     -0.576800
     16 C4'         4.8720   -1.6610    4.9510 c3        1 HPR      0.099100
     17 O4'         3.6340   -2.1310    4.3970 os        1 HPR     -0.403600
     18 C5'         4.5950   -0.7660    6.1590 c3        1 HPR      0.115400
     19 O5'         4.3940   -1.6260    7.2690 oh        1 HPR     -0.593800
     20 H2          1.3620    0.8290   -0.9260 h5        1 HPR      0.059100
     21 HO6        -2.6170    0.6280    1.0400 ho        1 HPR      0.447000
     22 HN7        -0.7390   -1.1940    4.0250 hn        1 HPR      0.384800
     23 H81         1.4690    0.0430    5.2460 h2        1 HPR      0.077700
     24 H82         1.3520   -1.7560    4.8600 h2        1 HPR      0.077700
     25 H1'         3.0100   -2.2830    2.4620 h2        1 HPR      0.078700
     26 H2'         4.5080    0.2740    2.3630 h1        1 HPR      0.087700
     27 HO2'        4.6960   -1.2540    0.7890 ho        1 HPR      0.428000
     28 H3'         5.9590    0.1140    4.1850 h1        1 HPR      0.090700
     29 HO3'        6.6310   -2.3530    3.0070 ho        1 HPR      0.424000
     30 H4'         5.4160   -2.5900    5.2780 h1        1 HPR      0.106700
     31 H5'1        3.6800   -0.1400    5.9800 h1        1 HPR      0.035700
     32 H5'2        5.4780   -0.1000    6.3540 h1        1 HPR      0.035700
     33 HO5'        4.1700   -1.0610    8.0170 ho        1 HPR      0.402000
@<TRIPOS>BOND
     1    1    2 ar  
     2    1    6 ar  
     3    2    3 ar  
     4    2   20 1   
     5    3    4 ar  
     6    4    5 ar  
     7    4   10 1   
     8    5    6 ar  
     9    5    8 1   
    10    6    7 1   
    11    7   21 1   
    12    8    9 1   
    13    8   22 1   
    14    9   10 1   
    15    9   23 1   
    16    9   24 1   
    17   10   11 1   
    18   11   12 1   
    19   11   17 1   
    20   11   25 1   
    21   12   13 1   
    22   12   14 1   
    23   12   26 1   
    24   13   27 1   
    25   14   15 1   
    26   14   16 1   
    27   14   28 1   
    28   15   29 1   
    29   16   17 1   
    30   16   18 1   
    31   16   30 1   
    32   18   19 1   
    33   18   31 1   
    34   18   32 1   
    35   19   33 1   
@<TRIPOS>SUBSTRUCTURE
     1 HPR         1 TEMP              0 ****  ****    0 ROOT
