@<TRIPOS>MOLECULE
HPR
   33    35     1     0     0
SMALL
bcc


@<TRIPOS>ATOM
      1 N1         -0.2500    0.6900    0.2590 nb        1 HPR     -0.762000
      2 C2          1.0760    0.5300    0.0750 ca        1 HPR      0.667900
      3 N3          2.0220    0.1140    0.9720 nb        1 HPR     -0.737000
      4 C4          1.5300   -0.1610    2.2020 ca        1 HPR      0.615200
      5 C5          0.1140   -0.0680    2.5270 ca        1 HPR     -0.206000
      6 C6         -0.7370    0.3860    1.5060 ca        1 HPR      0.660600
      7 O6         -2.0700    0.5300    1.7930 oh        1 HPR     -0.599300
      8 N7         -0.1480   -0.5530    3.8370 nh        1 HPR     -0.647600
      9 C8          1.2040   -0.8660    4.3890 c3        1 HPR      0.397000
     10 N9          2.2490   -0.5290    3.3780 nh        1 HPR     -0.753300
     11 C1'         3.3370   -1.4920    3.1990 c3        1 HPR      0.360300
     12 C2'         4.6360   -0.8110    2.6610 c3        1 HPR      0.094100
     13 O2'         5.1360   -1.5650    1.5760 oh        1 HPR     -0.595800
     14 C3'         5.6490   -0.8970    3.8240 c3        1 HPR      0.131100
     15 O3'         6.8410   -1.5630    3.4890 oh        1 HPR     -0.575800
     16 C4'         4.8990   -1.6130    4.9670 c3        1 HPR      0.098100
     17 O4'         3.6610   -2.1160    4.4450 os        1 HPR     -0.401600
     18 C5'         4.6260   -0.6770    6.1450 c3        1 HPR      0.116400
     19 O5'         4.4720   -1.4960    7.2920 oh        1 HPR     -0.592800
     20 H2          1.4580    0.7680   -0.9410 h5        1 HPR      0.059100
     21 HO6        -2.5410    0.8210    0.9930 ho        1 HPR      0.447000
     22 HN7        -0.6380    0.1210    4.3950 hn        1 HPR      0.387800
     23 H81         1.4350   -0.2640    5.3120 h2        1 HPR      0.075200
     24 H82         1.2200   -1.9660    4.6420 h2        1 HPR      0.075200
     25 H1'         3.0270   -2.3450    2.5200 h2        1 HPR      0.081700
     26 H2'         4.4690    0.2560    2.3590 h1        1 HPR      0.085700
     27 HO2'        4.6340   -1.2970    0.7960 ho        1 HPR      0.429000
     28 H3'         5.9810    0.1330    4.1300 h1        1 HPR      0.089700
     29 HO3'        6.6120   -2.3680    3.0030 ho        1 HPR      0.424000
     30 H4'         5.4560   -2.5240    5.3230 h1        1 HPR      0.107700
     31 H5'1        5.4960    0.0190    6.2940 h1        1 HPR      0.034200
     32 H5'2        3.6930   -0.0810    5.9620 h1        1 HPR      0.034200
     33 HO5'        4.2520   -0.9070    8.0240 ho        1 HPR      0.402000
@<TRIPOS>BOND
     1    1    2 ar  
     2    1    6 ar  
     3    2    3 ar  
     4    2   20 1   
     5    3    4 ar  
     6    4    5 ar  
     7    4   10 1   
     8    5    6 ar  
     9    5    8 1   
    10    6    7 1   
    11    7   21 1   
    12    8    9 1   
    13    8   22 1   
    14    9   10 1   
    15    9   23 1   
    16    9   24 1   
    17   10   11 1   
    18   11   12 1   
    19   11   17 1   
    20   11   25 1   
    21   12   13 1   
    22   12   14 1   
    23   12   26 1   
    24   13   27 1   
    25   14   15 1   
    26   14   16 1   
    27   14   28 1   
    28   15   29 1   
    29   16   17 1   
    30   16   18 1   
    31   16   30 1   
    32   18   19 1   
    33   18   31 1   
    34   18   32 1   
    35   19   33 1   
@<TRIPOS>SUBSTRUCTURE
     1 HPR         1 TEMP              0 ****  ****    0 ROOT
