@<TRIPOS>MOLECULE
HPR
   33    35     1     0     0
SMALL
bcc


@<TRIPOS>ATOM
      1 N1         -0.3300    0.6460    0.2920 nb        1 HPR     -0.765000
      2 C2          1.0030    0.5520    0.0910 ca        1 HPR      0.666900
      3 N3          1.9770    0.1700    0.9690 nb        1 HPR     -0.730000
      4 C4          1.5150   -0.1310    2.2080 ca        1 HPR      0.605200
      5 C5          0.1030   -0.0900    2.5560 ca        1 HPR     -0.207000
      6 C6         -0.7850    0.3130    1.5410 ca        1 HPR      0.664600
      7 O6         -2.1240    0.3310    1.8280 oh        1 HPR     -0.598300
      8 N7         -0.1030   -0.4110    3.9230 nu        1 HPR     -0.644600
      9 C8          1.2640   -0.7060    4.4410 c3        1 HPR      0.395000
     10 N9          2.2730   -0.4680    3.3680 nh        1 HPR     -0.743300
     11 C1'         3.3290   -1.4630    3.1720 c3        1 HPR      0.354300
     12 C2'         4.6500   -0.8080    2.6560 c3        1 HPR      0.095100
     13 O2'         5.1510   -1.5700    1.5780 oh        1 HPR     -0.596800
     14 C3'         5.6420   -0.9200    3.8360 c3        1 HPR      0.131100
     15 O3'         6.8400   -1.5770    3.5070 oh        1 HPR     -0.576800
     16 C4'         4.8720   -1.6630    4.9490 c3        1 HPR      0.099100
     17 O4'         3.6310   -2.1300    4.4010 os        1 HPR     -0.403600
     18 C5'         4.6030   -0.7610    6.1540 c3        1 HPR      0.115400
     19 O5'         4.4000   -1.6140    7.2680 oh        1 HPR     -0.593800
     20 H2          1.3580    0.8200   -0.9270 h5        1 HPR      0.059100
     21 HO6        -2.6170    0.6400    1.0480 ho        1 HPR      0.447000
     22 HN7        -0.7400   -1.1780    4.0350 hn        1 HPR      0.384800
     23 H81         1.4760    0.0550    5.2470 h2        1 HPR      0.077700
     24 H82         1.3510   -1.7460    4.8680 h2        1 HPR      0.077700
     25 H1'         3.0000   -2.2880    2.4690 h2        1 HPR      0.078700
     26 H2'         4.5080    0.2630    2.3550 h1        1 HPR      0.087700
     27 HO2'        4.6850   -1.2720    0.7860 ho        1 HPR      0.428000
     28 H3'         5.9660    0.1030    4.1720 h1        1 HPR      0.090700
     29 HO3'        6.6210   -2.3730    3.0030 ho        1 HPR      0.424000
     30 H4'         5.4130   -2.5930    5.2790 h1        1 HPR      0.106700
     31 H5'1        3.6910   -0.1320    5.9740 h1        1 HPR      0.035700
     32 H5'2        5.4890   -0.0980    6.3440 h1        1 HPR      0.035700
     33 HO5'        4.1810   -1.0450    8.0150 ho        1 HPR      0.402000
@<TRIPOS>BOND
     1    1    2 ar  
     2    1    6 ar  
     3    2    3 ar  
     4    2   20 1   
     5    3    4 ar  
     6    4    5 ar  
     7    4   10 1   
     8    5    6 ar  
     9    5    8 1   
    10    6    7 1   
    11    7   21 1   
    12    8    9 1   
    13    8   22 1   
    14    9   10 1   
    15    9   23 1   
    16    9   24 1   
    17   10   11 1   
    18   11   12 1   
    19   11   17 1   
    20   11   25 1   
    21   12   13 1   
    22   12   14 1   
    23   12   26 1   
    24   13   27 1   
    25   14   15 1   
    26   14   16 1   
    27   14   28 1   
    28   15   29 1   
    29   16   17 1   
    30   16   18 1   
    31   16   30 1   
    32   18   19 1   
    33   18   31 1   
    34   18   32 1   
    35   19   33 1   
@<TRIPOS>SUBSTRUCTURE
     1 HPR         1 TEMP              0 ****  ****    0 ROOT
