@<TRIPOS>MOLECULE
HPS
   16    15     1     0     0
SMALL
bcc


@<TRIPOS>ATOM
      1 C1          0.1320   -0.5110   -0.2800 ca        1 HPS     -0.077000
      2 C2          1.5260   -0.5020   -0.1830 ca        1 HPS     -0.347000
      3 C3          2.1110    0.0050    0.9870 ca        1 HPS     -0.077000
      4 C4          1.3480    0.4860    2.0240 ca        1 HPS     -0.320000
      5 C5         -0.0930    0.4890    1.9530 ca        1 HPS      0.311000
      6 C6         -0.6650   -0.0370    0.7400 ca        1 HPS     -0.320000
      7 O12        -0.8240    0.9300    2.9010 o         1 HPS     -0.567000
      8 P13        -1.0840    1.8430    4.9370 p3        1 HPS      2.506000
      9 O14        -1.8660    0.7420    5.5480 o         1 HPS     -1.179333
     10 O15        -1.8090    3.0640    4.5130 o         1 HPS     -1.179333
     11 O16         0.3530    1.9610    5.2820 o         1 HPS     -1.179333
     12 H1         -0.3350   -0.9070   -1.1960 ha        1 HPS      0.060000
     13 H2          2.1480   -0.8810   -1.0000 ha        1 HPS      0.068000
     14 H3          3.2090    0.0140    1.0670 ha        1 HPS      0.060000
     15 H4          1.8010    0.8840    2.9430 ha        1 HPS      0.121000
     16 H6         -1.7580   -0.0480    0.6560 ha        1 HPS      0.121000
@<TRIPOS>BOND
     1    1    2 1   
     2    1    6 1   
     3    1   12 1   
     4    2    3 1   
     5    2   13 1   
     6    3    4 1   
     7    3   14 1   
     8    4    5 1   
     9    4   15 1   
    10    5    6 1   
    11    5    7 1   
    12    6   16 1   
    13    8    9 1   
    14    8   10 1   
    15    8   11 1   
@<TRIPOS>SUBSTRUCTURE
     1 HPS         1 TEMP              0 ****  ****    0 ROOT
