@<TRIPOS>MOLECULE
HPS
   16    15     1     0     0
SMALL
bcc


@<TRIPOS>ATOM
      1 C1          0.1580   -0.4650   -0.3010 ca        1 HPS     -0.077000
      2 C2          1.5500   -0.4030   -0.2110 ca        1 HPS     -0.347000
      3 C3          2.1220    0.1000    0.9670 ca        1 HPS     -0.077000
      4 C4          1.3470    0.5260    2.0190 ca        1 HPS     -0.320000
      5 C5         -0.0930    0.4750    1.9550 ca        1 HPS      0.311000
      6 C6         -0.6520   -0.0460    0.7340 ca        1 HPS     -0.320000
      7 O12        -0.8350    0.8640    2.9170 o         1 HPS     -0.567000
      8 P13        -1.1180    1.7200    4.9740 p3        1 HPS      2.506000
      9 O14        -1.8530    0.5760    5.5640 o         1 HPS     -1.179333
     10 O15        -1.8920    2.9220    4.5820 o         1 HPS     -1.179333
     11 O16         0.3150    1.8870    5.3150 o         1 HPS     -1.179333
     12 H1         -0.3000   -0.8590   -1.2230 ha        1 HPS      0.060000
     13 H2          2.1820   -0.7390   -1.0400 ha        1 HPS      0.068000
     14 H3          3.2200    0.1500    1.0420 ha        1 HPS      0.060000
     15 H4          1.7890    0.9210    2.9440 ha        1 HPS      0.121000
     16 H6         -1.7440   -0.0980    0.6550 ha        1 HPS      0.121000
@<TRIPOS>BOND
     1    1    2 1   
     2    1    6 1   
     3    1   12 1   
     4    2    3 1   
     5    2   13 1   
     6    3    4 1   
     7    3   14 1   
     8    4    5 1   
     9    4   15 1   
    10    5    6 1   
    11    5    7 1   
    12    6   16 1   
    13    8    9 1   
    14    8   10 1   
    15    8   11 1   
@<TRIPOS>SUBSTRUCTURE
     1 HPS         1 TEMP              0 ****  ****    0 ROOT
