@<TRIPOS>MOLECULE
HPS
   16    13     1     0     0
SMALL
bcc


@<TRIPOS>ATOM
      1 C1         -0.2470    0.4050   -2.0190 c1        1 HPS     -0.151250
      2 C2          1.1380    0.4460   -2.0540 c1        1 HPS     -0.151250
      3 C3          1.8600    0.4670   -0.8710 c1        1 HPS     -0.151250
      4 C4          1.1970    0.4460    0.3460 c1        1 HPS     -0.248500
      5 C5         -0.1880    0.4050    0.3800 c1        1 HPS      0.339600
      6 C6         -0.9100    0.3840   -0.8020 c1        1 HPS     -0.151250
      7 O12        -0.8600    0.4190    1.6140 os        1 HPS     -0.362000
      8 P13        -1.2750   -0.9620    2.2610 p5        1 HPS      1.313900
      9 O14        -0.3150   -1.3040    3.3750 o         1 HPS     -0.859833
     10 O15        -2.6750   -0.8570    2.8180 o         1 HPS     -0.859833
     11 O16        -1.2310   -2.0440    1.2090 o         1 HPS     -0.859833
     12 H1         -0.7550    0.3910   -2.8520 ha        1 HPS      0.014750
     13 H2          1.6040    0.4770   -2.9110 ha        1 HPS      0.014750
     14 H3          2.8350    0.5040   -0.8950 ha        1 HPS      0.014750
     15 H4          1.7060    0.4550    1.1790 ha        1 HPS      0.083500
     16 H6         -1.8850    0.3660   -0.7780 ha        1 HPS      0.014750
@<TRIPOS>BOND
     1    1    6 3   
     2    1   12 1   
     3    2    3 3   
     4    2   13 1   
     5    3   14 1   
     6    4    5 3   
     7    4   15 1   
     8    5    7 1   
     9    6   16 1   
    10    7    8 1   
    11    8    9 1   
    12    8   10 1   
    13    8   11 1   
@<TRIPOS>SUBSTRUCTURE
     1 HPS         1 TEMP              0 ****  ****    0 ROOT
