@<TRIPOS>MOLECULE
HPS
   16    15     1     0     0
SMALL
bcc


@<TRIPOS>ATOM
      1 C1         -1.1920   -0.3130   -3.0930 ca        1 HPS     -0.077000
      2 C2          0.0330    0.0470   -3.6590 ca        1 HPS     -0.347000
      3 C3          1.1030    0.3440   -2.8020 ca        1 HPS     -0.077000
      4 C4          0.9690    0.2880   -1.4350 ca        1 HPS     -0.320000
      5 C5         -0.2840   -0.0810   -0.8220 ca        1 HPS      0.311000
      6 C6         -1.3640   -0.3810   -1.7260 ca        1 HPS     -0.320000
      7 O12        -0.4340   -0.1410    0.4440 o         1 HPS     -0.567000
      8 P13         0.3480    0.0570    2.5400 p3        1 HPS      2.506000
      9 O14         0.1100   -1.3410    2.9710 o         1 HPS     -1.179333
     10 O15        -0.5940    1.1030    3.0030 o         1 HPS     -1.179333
     11 O16         1.7320    0.4600    2.1940 o         1 HPS     -1.179333
     12 H1         -2.0380   -0.5480   -3.7580 ha        1 HPS      0.060000
     13 H2          0.1560    0.0970   -4.7450 ha        1 HPS      0.068000
     14 H3          2.0710    0.6290   -3.2440 ha        1 HPS      0.060000
     15 H4          1.8040    0.5190   -0.7590 ha        1 HPS      0.121000
     16 H6         -2.3290   -0.6640   -1.2900 ha        1 HPS      0.121000
@<TRIPOS>BOND
     1    1    2 1   
     2    1    6 1   
     3    1   12 1   
     4    2    3 1   
     5    2   13 1   
     6    3    4 1   
     7    3   14 1   
     8    4    5 1   
     9    4   15 1   
    10    5    6 1   
    11    5    7 1   
    12    6   16 1   
    13    8    9 1   
    14    8   10 1   
    15    8   11 1   
@<TRIPOS>SUBSTRUCTURE
     1 HPS         1 TEMP              0 ****  ****    0 ROOT
