@<TRIPOS>MOLECULE
HPT
   25    25     1     0     0
SMALL
bcc


@<TRIPOS>ATOM
      1 O2          1.4560    2.4290    0.0250 o         1 HPT     -0.511500
      2 C3          2.0990   -0.1110   -0.0460 cx        1 HPT     -0.102600
      3 C4          2.2330   -0.7880   -1.3850 c3        1 HPT     -0.068100
      4 C5          3.2270   -0.5330    0.9170 c3        1 HPT      0.230500
      5 C1          3.5710    0.6860    3.0070 c1        1 HPT      0.786900
      6 N1          2.9820   -0.1160    2.2670 n2        1 HPT     -0.690600
      7 C2          1.4600    1.2180    0.1180 c         1 HPT      0.661500
      8 N2          0.7160    0.0940    0.4520 ns        1 HPT     -0.479900
      9 O3          6.4300    3.0010   -0.5120 oh        1 HPT     -0.592800
     10 C11         4.6010   -0.1540    0.3420 c3        1 HPT     -0.102400
     11 C12         4.8280    1.3340    0.2310 c3        1 HPT     -0.136400
     12 C13         6.0990    1.6280   -0.5500 c3        1 HPT      0.133400
     13 H43         2.5410   -1.8540   -1.2570 hc        1 HPT      0.055033
     14 H42         3.0070   -0.2530   -1.9890 hc        1 HPT      0.055033
     15 H41         1.2700   -0.7670   -1.9520 hc        1 HPT      0.055033
     16 H1          3.1830   -1.6690    0.9680 h1        1 HPT      0.085700
     17 H2          0.4210   -0.1590    1.3660 hn        1 HPT      0.308500
     18 H3          5.6720    3.4910   -0.8550 ho        1 HPT      0.403000
     19 H112        6.9840    1.1130   -0.0880 h1        1 HPT      0.045200
     20 H111        5.4010   -0.6080    0.9880 hc        1 HPT      0.061200
     21 H122        4.6910   -0.6280   -0.6720 hc        1 HPT      0.061200
     22 H121        3.9540    1.8240   -0.2770 hc        1 HPT      0.059700
     23 H132        4.9180    1.7960    1.2510 hc        1 HPT      0.059700
     24 H131        5.9870    1.2860   -1.6150 h1        1 HPT      0.045200
     25 O1          3.9520    1.3580    3.9240 o         1 HPT     -0.421500
@<TRIPOS>BOND
     1    1    7 2   
     2    2    3 1   
     3    2    4 1   
     4    2    7 1   
     5    2    8 1   
     6    3   13 1   
     7    3   14 1   
     8    3   15 1   
     9    4    6 1   
    10    4   10 1   
    11    4   16 1   
    12    5    6 2   
    13    5   25 2   
    14    7    8 1   
    15    8   17 1   
    16    9   12 1   
    17    9   18 1   
    18   10   11 1   
    19   10   20 1   
    20   10   21 1   
    21   11   12 1   
    22   11   22 1   
    23   11   23 1   
    24   12   19 1   
    25   12   24 1   
@<TRIPOS>SUBSTRUCTURE
     1 HPT         1 TEMP              0 ****  ****    0 ROOT
