@<TRIPOS>MOLECULE
HPT
   25    25     1     0     0
SMALL
bcc


@<TRIPOS>ATOM
      1 O2          2.0380   -0.3220    2.8410 o         1 HPT     -0.612500
      2 C3          1.1290    0.2840    0.6890 cc        1 HPT     -0.253400
      3 C4          2.4810    0.5000    0.1310 c3        1 HPT     -0.037900
      4 C5         -0.0220    0.4570   -0.0350 cd        1 HPT      0.096400
      5 C1         -1.3950   -0.1840    1.8840 c         1 HPT      0.806500
      6 N1         -1.2660    0.2320    0.5440 n         1 HPT     -0.470100
      7 C2          1.0560   -0.1420    2.1010 c         1 HPT      0.717700
      8 N2         -0.2260   -0.3550    2.6360 n         1 HPT     -0.582500
      9 O3         -0.6750   -0.8730   -4.6540 oh        1 HPT     -0.597800
     10 C11        -0.0090    0.9030   -1.4710 c3        1 HPT     -0.058200
     11 C12        -0.3520   -0.2390   -2.4050 c3        1 HPT     -0.086400
     12 C13        -0.2830    0.2280   -3.8500 c3        1 HPT      0.132400
     13 H43         3.2640    0.2010    0.8740 hc        1 HPT      0.053033
     14 H42         2.6260   -0.1070   -0.7980 hc        1 HPT      0.053033
     15 H41         2.6340    1.5800   -0.1220 hc        1 HPT      0.053033
     16 H1         -2.0990    0.3290    0.0090 hn        1 HPT      0.352500
     17 H2         -0.3280   -0.6470    3.5840 hn        1 HPT      0.354500
     18 H3         -0.6040   -0.5840   -5.5710 ho        1 HPT      0.405000
     19 H112       -0.7380    1.7460   -1.6150 hc        1 HPT      0.069200
     20 H111        1.0100    1.3050   -1.7200 hc        1 HPT      0.069200
     21 H122        0.3630   -1.0910   -2.2570 hc        1 HPT      0.065200
     22 H121       -1.3810   -0.6290   -2.1940 hc        1 HPT      0.065200
     23 H132       -0.9790    1.0930   -4.0200 h1        1 HPT      0.023200
     24 H131        0.7610    0.5460   -4.1140 h1        1 HPT      0.023200
     25 O1         -2.5290   -0.3850    2.3690 o         1 HPT     -0.640500
@<TRIPOS>BOND
     1    1    7 2   
     2    2    3 1   
     3    2    4 2   
     4    2    7 1   
     5    3   13 1   
     6    3   14 1   
     7    3   15 1   
     8    4    6 1   
     9    4   10 1   
    10    5    6 1   
    11    5    8 1   
    12    5   25 2   
    13    6   16 1   
    14    7    8 1   
    15    8   17 1   
    16    9   12 1   
    17    9   18 1   
    18   10   11 1   
    19   10   19 1   
    20   10   20 1   
    21   11   12 1   
    22   11   21 1   
    23   11   22 1   
    24   12   23 1   
    25   12   24 1   
@<TRIPOS>SUBSTRUCTURE
     1 HPT         1 TEMP              0 ****  ****    0 ROOT
