@<TRIPOS>MOLECULE
HPT
   25    25     1     0     0
SMALL
bcc


@<TRIPOS>ATOM
      1 O2          1.4230    2.4030   -0.0700 o         1 HPT     -0.511500
      2 C3          2.0920   -0.1330   -0.0690 cx        1 HPT     -0.102600
      3 C4          2.2400   -0.8440   -1.3870 c3        1 HPT     -0.068100
      4 C5          3.2170   -0.5170    0.9120 c3        1 HPT      0.230500
      5 C1          3.5380    0.7600    2.9710 c1        1 HPT      0.786900
      6 N1          2.9600   -0.0670    2.2490 n2        1 HPT     -0.690600
      7 C2          1.4390    1.1940    0.0560 c         1 HPT      0.661500
      8 N2          0.7030    0.0730    0.4160 n         1 HPT     -0.479900
      9 O3          6.3950    3.0080   -0.5940 oh        1 HPT     -0.592800
     10 C11         4.5910   -0.1410    0.3340 c3        1 HPT     -0.102400
     11 C12         4.8050    1.3470    0.1850 c3        1 HPT     -0.136400
     12 C13         6.0770    1.6320   -0.5970 c3        1 HPT      0.133400
     13 H43         2.5570   -1.9030   -1.2300 hc        1 HPT      0.055033
     14 H42         3.0120   -0.3180   -2.0020 hc        1 HPT      0.055033
     15 H41         1.2800   -0.8480   -1.9610 hc        1 HPT      0.055033
     16 H1          3.1840   -1.6520    0.9940 h1        1 HPT      0.085700
     17 H2          0.4050   -0.1590    1.3350 hn        1 HPT      0.308500
     18 H3          5.6340    3.4810   -0.9540 ho        1 HPT      0.403000
     19 H112        6.9650    1.1380   -0.1160 h1        1 HPT      0.045200
     20 H111        4.6920   -0.6400   -0.6660 hc        1 HPT      0.061200
     21 H122        5.3910   -0.5690    0.9970 hc        1 HPT      0.061200
     22 H121        3.9290    1.8140   -0.3410 hc        1 HPT      0.059700
     23 H132        4.8840    1.8370    1.1930 hc        1 HPT      0.059700
     24 H131        5.9750    1.2610   -1.6520 h1        1 HPT      0.045200
     25 O1          3.9080    1.4600    3.8710 o         1 HPT     -0.421500
@<TRIPOS>BOND
     1    1    7 2   
     2    2    3 1   
     3    2    4 1   
     4    2    7 1   
     5    2    8 1   
     6    3   13 1   
     7    3   14 1   
     8    3   15 1   
     9    4    6 1   
    10    4   10 1   
    11    4   16 1   
    12    5    6 2   
    13    5   25 2   
    14    7    8 1   
    15    8   17 1   
    16    9   12 1   
    17    9   18 1   
    18   10   11 1   
    19   10   20 1   
    20   10   21 1   
    21   11   12 1   
    22   11   22 1   
    23   11   23 1   
    24   12   19 1   
    25   12   24 1   
@<TRIPOS>SUBSTRUCTURE
     1 HPT         1 TEMP              0 ****  ****    0 ROOT
