@<TRIPOS>MOLECULE
HPT
   25    25     1     0     0
SMALL
bcc


@<TRIPOS>ATOM
      1 O2          1.4500    2.4240    0.0510 o         1 HPT     -0.511500
      2 C3          2.1010   -0.1140   -0.0510 cx        1 HPT     -0.102600
      3 C4          2.2340   -0.7740   -1.3970 c3        1 HPT     -0.068100
      4 C5          3.2320   -0.5430    0.9060 c3        1 HPT      0.230500
      5 C1          3.5760    0.6540    3.0090 c1        1 HPT      0.786900
      6 N1          2.9880   -0.1420    2.2610 n2        1 HPT     -0.690600
      7 C2          1.4580    1.2110    0.1300 c         1 HPT      0.661500
      8 N2          0.7180    0.0820    0.4530 n         1 HPT     -0.479900
      9 O3          6.4210    3.0170   -0.4900 oh        1 HPT     -0.592800
     10 C11         4.6040   -0.1530    0.3320 c3        1 HPT     -0.102400
     11 C12         4.8260    1.3370    0.2380 c3        1 HPT     -0.136400
     12 C13         6.0940    1.6430   -0.5430 c3        1 HPT      0.133400
     13 H43         2.5460   -1.8410   -1.2820 hc        1 HPT      0.055033
     14 H42         3.0050   -0.2310   -1.9960 hc        1 HPT      0.055033
     15 H41         1.2700   -0.7500   -1.9620 hc        1 HPT      0.055033
     16 H1          3.1910   -1.6800    0.9440 h1        1 HPT      0.085700
     17 H2          0.4250   -0.1830    1.3650 hn        1 HPT      0.308500
     18 H3          5.6610    3.5080   -0.8260 ho        1 HPT      0.403000
     19 H112        6.9820    1.1260   -0.0870 h1        1 HPT      0.045200
     20 H111        5.4050   -0.6110    0.9710 hc        1 HPT      0.061200
     21 H122        4.6930   -0.6150   -0.6870 hc        1 HPT      0.061200
     22 H121        3.9490    1.8300   -0.2640 hc        1 HPT      0.059700
     23 H132        4.9160    1.7880    1.2630 hc        1 HPT      0.059700
     24 H131        5.9820    1.3140   -1.6110 h1        1 HPT      0.045200
     25 O1          3.9570    1.3170    3.9320 o         1 HPT     -0.421500
@<TRIPOS>BOND
     1    1    7 2   
     2    2    3 1   
     3    2    4 1   
     4    2    7 1   
     5    2    8 1   
     6    3   13 1   
     7    3   14 1   
     8    3   15 1   
     9    4    6 1   
    10    4   10 1   
    11    4   16 1   
    12    5    6 2   
    13    5   25 2   
    14    7    8 1   
    15    8   17 1   
    16    9   12 1   
    17    9   18 1   
    18   10   11 1   
    19   10   20 1   
    20   10   21 1   
    21   11   12 1   
    22   11   22 1   
    23   11   23 1   
    24   12   19 1   
    25   12   24 1   
@<TRIPOS>SUBSTRUCTURE
     1 HPT         1 TEMP              0 ****  ****    0 ROOT
