@<TRIPOS>MOLECULE
HPT
   25    22     1     0     0
SMALL
bcc


@<TRIPOS>ATOM
      1 O2         -4.0000    0.3670   -0.4870 o         1 HPT     -0.337000
      2 C3         -1.6730    0.4020   -0.4910 c1        1 HPT     -0.230000
      3 C4         -1.5920    0.4250   -2.0010 c2        1 HPT     -0.160000
      4 C5         -0.4440    0.3580    0.3120 c1        1 HPT      0.098000
      5 C1         -1.8290    0.3350    2.3890 c1        1 HPT      0.397000
      6 N1         -0.5250    0.2950    1.7270 n1        1 HPT     -0.314000
      7 C2         -2.9820    0.4000    0.1750 c2        1 HPT      0.356000
      8 N2         -3.0560    0.3790    1.5920 n         1 HPT     -0.362000
      9 O1         -1.8940    0.3290    3.6020 o         1 HPT     -0.365000
     10 O3          3.9220   -1.7140   -0.1810 oh        1 HPT     -0.325000
     11 C11         0.9050    0.4430   -0.3660 c3        1 HPT     -0.141000
     12 C12         1.7690   -0.7150    0.0830 c3        1 HPT     -0.165000
     13 C13         3.1130   -0.6410   -0.6080 c3        1 HPT     -0.018000
     14 H43        -1.1360   -0.3840   -2.3160 ha        1 HPT      0.092333
     15 H42        -2.4960    0.4570   -2.3770 ha        1 HPT      0.092333
     16 H41        -1.0900    1.2160   -2.2900 ha        1 HPT      0.092333
     17 H1          0.2380    0.2670    2.2260 hn        1 HPT      0.266000
     18 H2         -3.8680    0.4040    2.0060 hn        1 HPT      0.268000
     19 H3          4.7520   -1.5950   -0.4760 ho        1 HPT      0.204000
     20 H112        0.7860    0.4030   -1.3360 hc        1 HPT      0.108500
     21 H111        1.3390    1.2860   -0.1250 hc        1 HPT      0.108500
     22 H122        1.8980   -0.6690    1.0520 hc        1 HPT      0.104500
     23 H121        1.3300   -1.5580   -0.1470 hc        1 HPT      0.104500
     24 H132        2.9840   -0.6950   -1.5780 h1        1 HPT      0.062500
     25 H131        3.5490    0.2070   -0.3840 h1        1 HPT      0.062500
@<TRIPOS>BOND
     1    1    7 1   
     2    2    4 1   
     3    2    7 1   
     4    3   14 1   
     5    3   15 1   
     6    3   16 1   
     7    4   11 1   
     8    5    8 1   
     9    5    9 1   
    10    6   17 1   
    11    7    8 1   
    12    8   18 1   
    13   10   13 1   
    14   10   19 1   
    15   11   12 1   
    16   11   20 1   
    17   11   21 1   
    18   12   13 1   
    19   12   22 1   
    20   12   23 1   
    21   13   24 1   
    22   13   25 1   
@<TRIPOS>SUBSTRUCTURE
     1 HPT         1 TEMP              0 ****  ****    0 ROOT
