@<TRIPOS>MOLECULE
HPU
   41    43     1     0     0
SMALL
bcc


@<TRIPOS>ATOM
      1 C14         1.7070    0.1500   -0.5060 cc        1 HPU     -0.239000
      2 C11        -0.5090    0.4590   -2.5030 ca        1 HPU     -0.123000
      3 C7         -3.0220    0.2880   -1.2490 ca        1 HPU      0.150600
      4 C8         -1.8750   -0.2500   -0.6230 ca        1 HPU     -0.133000
      5 C9         -2.8880    0.8920   -2.5190 ca        1 HPU     -0.150000
      6 C10        -1.6420    0.9670   -3.1320 ca        1 HPU     -0.113000
      7 C12        -0.6290   -0.1490   -1.2470 ca        1 HPU     -0.044800
      8 C13         0.5880   -0.6570   -0.5880 cd        1 HPU      0.142400
      9 C1         -4.3070    1.8910    1.3670 c3        1 HPU     -0.370300
     10 S2         -4.6430    0.2780    0.9510 s6        1 HPU      1.469900
     11 O3         -3.8000   -0.5480    1.7110 o         1 HPU     -0.646300
     12 O4         -6.0320    0.0680    1.0710 o         1 HPU     -0.646300
     13 N15         0.6380   -1.9500   -0.0740 n         1 HPU     -0.210500
     14 O16        -0.5000   -2.6360   -0.0210 oh        1 HPU     -0.387100
     15 C18         1.7810   -2.4430    0.6280 c         1 HPU      0.681700
     16 O19         1.7180   -3.6070    1.0680 o         1 HPU     -0.640500
     17 C20         2.9260   -1.5530    0.7010 cd        1 HPU     -0.254200
     18 C21         2.8920   -0.3000    0.1540 cc        1 HPU      0.080800
     19 C22         4.0460    0.5960    0.2360 ca        1 HPU     -0.070800
     20 C23         5.3440    0.0900    0.0740 ca        1 HPU     -0.108000
     21 C24         6.4430    0.9430    0.1520 ca        1 HPU     -0.132500
     22 C25         6.2590    2.3040    0.3980 ca        1 HPU     -0.117000
     23 C26         4.9710    2.8120    0.5640 ca        1 HPU     -0.132500
     24 C27         3.8670    1.9650    0.4810 ca        1 HPU     -0.108000
     25 H1          1.6830    1.1530   -0.9530 ha        1 HPU      0.158000
     26 H2          0.4750    0.5240   -2.9920 ha        1 HPU      0.146000
     27 H3         -1.9530   -0.7670    0.3520 ha        1 HPU      0.189000
     28 H4         -3.7700    1.3000   -3.0370 ha        1 HPU      0.138000
     29 H5         -1.5530    1.4350   -4.1250 ha        1 HPU      0.141000
     30 H6         -3.2690    2.2180    1.1160 h1        1 HPU      0.118033
     31 H7         -5.0010    2.6240    0.8870 h1        1 HPU      0.118033
     32 H8         -4.4170    2.0360    2.4720 h1        1 HPU      0.118033
     33 H9         -5.0300    0.1610   -1.3000 hn        1 HPU      0.458800
     34 H10        -0.2500   -3.5880   -0.0530 ho        1 HPU      0.447000
     35 H11         3.7960   -1.9450    1.2480 ha        1 HPU      0.170000
     36 H12         5.4920   -0.9830   -0.1210 ha        1 HPU      0.138500
     37 H13         7.4580    0.5400    0.0210 ha        1 HPU      0.135500
     38 H14         7.1280    2.9750    0.4620 ha        1 HPU      0.135000
     39 H15         4.8230    3.8840    0.7630 ha        1 HPU      0.135500
     40 H16         2.8530    2.3680    0.6200 ha        1 HPU      0.138500
     41 N5         -4.2860    0.2200   -0.6390 nh        1 HPU     -0.784500
@<TRIPOS>BOND
     1    1    8 2   
     2    1   18 1   
     3    1   25 1   
     4    2    6 ar  
     5    2    7 ar  
     6    2   26 1   
     7    3    4 ar  
     8    3    5 ar  
     9    3   41 1   
    10    4    7 ar  
    11    4   27 1   
    12    5    6 ar  
    13    5   28 1   
    14    6   29 1   
    15    7    8 1   
    16    8   13 1   
    17    9   10 1   
    18    9   30 1   
    19    9   31 1   
    20    9   32 1   
    21   10   11 2   
    22   10   12 2   
    23   10   41 1   
    24   13   14 1   
    25   13   15 1   
    26   14   34 1   
    27   15   16 2   
    28   15   17 1   
    29   17   18 2   
    30   17   35 1   
    31   18   19 1   
    32   19   20 ar  
    33   19   24 ar  
    34   20   21 ar  
    35   20   36 1   
    36   21   22 ar  
    37   21   37 1   
    38   22   23 ar  
    39   22   38 1   
    40   23   24 ar  
    41   23   39 1   
    42   24   40 1   
    43   33   41 1   
@<TRIPOS>SUBSTRUCTURE
     1 HPU         1 TEMP              0 ****  ****    0 ROOT
