@<TRIPOS>MOLECULE
HPU
   42    42     1     0     0
SMALL
bcc


@<TRIPOS>ATOM
      1 C14         0.0830   -0.8520    0.7440 c2        1 HPU      0.024000
      2 C11         1.2500    0.8530   -7.1780 c1        1 HPU     -0.080000
      3 C7          3.0610   -0.4480   -4.4550 c2        1 HPU     -0.123000
      4 C8          3.0580   -2.3130   -0.8590 c2        1 HPU     -0.102000
      5 C9          3.0670    0.5720   -5.3430 c2        1 HPU      0.029000
      6 C10         2.0790    0.7040   -6.3250 c1        1 HPU     -0.208000
      7 C12         1.8280   -1.7850   -0.6320 c2        1 HPU     -0.004000
      8 C13         1.3550   -1.3450    0.6740 c2        1 HPU     -0.050000
      9 C1          4.6860   -3.0260   -4.2720 c3        1 HPU     -0.925000
     10 S2          4.5710   -1.9980   -2.9700 s6        1 HPU      2.583000
     11 O3          3.3490   -2.7930   -2.1080 os        1 HPU     -0.510000
     12 O4          5.7110   -1.9210   -2.1610 o         1 HPU     -0.807000
     13 N15         2.2890   -1.4500    1.7590 n         1 HPU     -0.189000
     14 O16         3.1490   -0.4180    1.7520 oh        1 HPU     -0.231000
     15 C18         1.8690   -1.9260    3.0330 c2        1 HPU      0.215000
     16 O19         2.5620   -1.7040    4.0290 o         1 HPU     -0.272000
     17 C20        -0.1190   -0.4240    3.1510 c1        1 HPU      0.295000
     18 C21        -0.5880   -0.3010    1.9000 c2        1 HPU     -0.333000
     19 C22        -1.8430    0.3930    1.6570 c2        1 HPU     -0.016000
     20 C23        -2.5580    1.1230    2.7680 c3        1 HPU     -0.118000
     21 C24        -4.0380    0.8580    2.6680 c2        1 HPU     -0.130000
     22 C25        -4.6580    0.4970    1.5210 c2        1 HPU     -0.154000
     23 C26        -3.8570    0.5670    0.2880 c2        1 HPU     -0.031000
     24 C27        -2.5680    0.3550    0.5400 c1        1 HPU     -0.212000
     25 H1         -0.5460   -0.8670   -0.1730 ha        1 HPU      0.174000
     26 H2          0.5160    0.9890   -7.9380 ha        1 HPU      0.247000
     27 H3          1.1060   -1.6840   -1.4640 ha        1 HPU      0.151000
     28 H4          2.2610   -1.2150   -4.4510 h4        1 HPU      0.163000
     29 H5          3.8420    1.3640   -5.3330 ha        1 HPU      0.163000
     30 H6          4.4410   -2.5900   -5.2790 h1        1 HPU      0.214000
     31 H7          5.7260   -3.4520   -4.3770 h1        1 HPU      0.214000
     32 H8          4.0110   -3.9250   -4.1760 h1        1 HPU      0.214000
     33 H9          4.3690    0.2600   -3.0590 hn        1 HPU      0.296000
     34 H10         3.8870   -0.6820    2.3420 ho        1 HPU      0.244000
     35 H11         0.9940   -2.6140    2.9990 h5        1 HPU      0.161000
     36 H12        -2.1750    0.7490    3.7560 hc        1 HPU      0.125500
     37 H13        -2.3880    2.2340    2.7370 hc        1 HPU      0.125500
     38 H14        -4.6000    1.0120    3.6020 ha        1 HPU      0.152000
     39 H15        -5.7290    0.2690    1.4560 ha        1 HPU      0.156000
     40 H16        -4.3140    0.8720   -0.6580 ha        1 HPU      0.166000
     41 H52         3.8490   -2.4860   -0.1090 h4        1 HPU      0.196000
     42 N5          4.0170   -0.6040   -3.4320 n3        1 HPU     -0.811000
@<TRIPOS>BOND
     1    1    8 1   
     2    1   18 1   
     3    1   25 1   
     4    2    6 1   
     5    2   26 1   
     6    3    5 1   
     7    3   28 1   
     8    3   42 1   
     9    4    7 1   
    10    4   11 1   
    11    4   41 1   
    12    5    6 1   
    13    5   29 1   
    14    7    8 1   
    15    7   27 1   
    16    8   13 1   
    17    9   10 1   
    18    9   30 1   
    19    9   31 1   
    20    9   32 1   
    21   10   11 1   
    22   10   12 1   
    23   10   42 1   
    24   13   14 1   
    25   13   15 1   
    26   14   34 1   
    27   15   16 1   
    28   15   35 1   
    29   17   18 1   
    30   18   19 1   
    31   19   20 1   
    32   19   24 1   
    33   20   21 1   
    34   20   36 1   
    35   20   37 1   
    36   21   22 1   
    37   21   38 1   
    38   22   23 1   
    39   22   39 1   
    40   23   24 1   
    41   23   40 1   
    42   33   42 1   
@<TRIPOS>SUBSTRUCTURE
     1 HPU         1 TEMP              0 ****  ****    0 ROOT
