@<TRIPOS>MOLECULE
HPU
   41    40     1     0     0
SMALL
bcc


@<TRIPOS>ATOM
      1 C14         0.4890    0.6150   -0.2430 c2        1 HPU     -0.026000
      2 C11         1.8500    1.8830   -2.5670 c2        1 HPU     -0.040000
      3 C7          3.8080   -2.2780   -0.9130 c2        1 HPU     -0.355000
      4 C8          3.8970   -2.3250    0.4100 c1        1 HPU      0.239000
      5 C9          3.0690    2.5530   -4.7640 c1        1 HPU     -0.174000
      6 C10         2.5190    2.2400   -3.7470 c1        1 HPU     -0.153000
      7 C12         2.4780    1.3770   -1.4900 c2        1 HPU     -0.131000
      8 C13         1.7960    0.9840   -0.2590 c2        1 HPU     -0.057000
      9 C1          1.5610   -3.2620   -2.9870 c3        1 HPU     -0.946000
     10 S2          2.7780   -4.2700   -2.3590 s6        1 HPU      2.824000
     11 O3          2.2480   -4.9490   -1.2500 o         1 HPU     -0.929500
     12 O4          3.2850   -5.0640   -3.4090 o         1 HPU     -0.929500
     13 N15         2.5650    0.9340    0.9730 n         1 HPU     -0.153000
     14 O16         3.6630    0.1770    0.8180 oh        1 HPU     -0.258000
     15 C18         2.8250    2.2230    1.5540 c2        1 HPU      0.221000
     16 O19         3.8560    2.4650    2.1840 o         1 HPU     -0.285000
     17 C20         0.3010    0.0320    2.1340 c1        1 HPU      0.287000
     18 C21        -0.2500    0.1500    0.9170 c2        1 HPU     -0.330000
     19 C22        -1.6420   -0.2030    0.7090 c2        1 HPU      0.000000
     20 C23        -2.4690   -0.8220    1.8120 c3        1 HPU     -0.116000
     21 C24        -3.3060   -1.9390    1.2400 c2        1 HPU     -0.143000
     22 C25        -3.6680   -2.0100   -0.0600 c2        1 HPU     -0.148000
     23 C26        -3.3780   -0.8310   -0.8950 c2        1 HPU     -0.064000
     24 C27        -2.3150   -0.1760   -0.4430 c1        1 HPU     -0.194000
     25 H1         -0.0980    0.6580   -1.1810 ha        1 HPU      0.166000
     26 H2          0.7560    2.0530   -2.5790 ha        1 HPU      0.143000
     27 H3          3.5750    1.2390   -1.4910 ha        1 HPU      0.152000
     28 H4          3.6150   -1.2170   -1.2520 h4        1 HPU      0.184000
     29 H5          3.5550    2.8320   -5.6650 ha        1 HPU      0.228000
     30 H6          1.8410   -2.7910   -3.9600 h1        1 HPU      0.155000
     31 H7          0.6300   -3.8530   -3.1810 h1        1 HPU      0.155000
     32 H8          1.2620   -2.4330   -2.3010 h1        1 HPU      0.155000
     33 H9          4.8200   -3.1920   -2.3900 hn        1 HPU      0.257000
     34 H10         3.7800   -0.2870    1.6760 ho        1 HPU      0.251000
     35 H11         1.9600    2.9180    1.4690 h5        1 HPU      0.145000
     36 H12        -1.7750   -1.2370    2.5910 hc        1 HPU      0.119000
     37 H13        -3.1480   -0.0830    2.3140 hc        1 HPU      0.119000
     38 H14        -3.6280   -2.6960    1.9700 ha        1 HPU      0.141000
     39 H15        -4.2470   -2.8390   -0.4840 ha        1 HPU      0.146000
     40 H16        -4.0640   -0.5280   -1.6900 ha        1 HPU      0.159000
     41 N5          3.9430   -3.2290   -1.9200 n7        1 HPU     -0.817000
@<TRIPOS>BOND
     1    1    8 1   
     2    1   18 1   
     3    1   25 1   
     4    2    6 1   
     5    2    7 1   
     6    2   26 1   
     7    3    4 1   
     8    3   28 1   
     9    3   41 1   
    10    5    6 1   
    11    5   29 1   
    12    7    8 1   
    13    7   27 1   
    14    8   13 1   
    15    9   10 1   
    16    9   30 1   
    17    9   31 1   
    18    9   32 1   
    19   10   11 1   
    20   10   12 1   
    21   10   41 1   
    22   13   14 1   
    23   13   15 1   
    24   14   34 1   
    25   15   16 1   
    26   15   35 1   
    27   17   18 1   
    28   18   19 1   
    29   19   20 1   
    30   19   24 1   
    31   20   21 1   
    32   20   36 1   
    33   20   37 1   
    34   21   22 1   
    35   21   38 1   
    36   22   23 1   
    37   22   39 1   
    38   23   24 1   
    39   23   40 1   
    40   33   41 1   
@<TRIPOS>SUBSTRUCTURE
     1 HPU         1 TEMP              0 ****  ****    0 ROOT
