@<TRIPOS>MOLECULE
HPV
   13    12     1     0     0
SMALL
bcc


@<TRIPOS>ATOM
      1 C2         -0.0300    0.2220    0.0730 c         1 HPV      0.479100
      2 O4P         3.7750   -1.5460    1.2070 o         1 HPV     -0.948167
      3 P           3.6160   -0.1100    1.6450 p5        1 HPV      1.318900
      4 O2P         3.8860    0.1420    3.1100 o         1 HPV     -0.948167
      5 O3P         4.2150    0.9070    0.7040 o         1 HPV     -0.948167
      6 O1P         1.9190    0.1690    1.5180 os        1 HPV     -0.565200
      7 C3          1.4570   -0.0130    0.2320 c3        1 HPV      0.110400
      8 O3         -0.7990    0.5490    0.9920 o         1 HPV     -0.631100
      9 C1         -0.6150    0.0380   -1.3350 c         1 HPV      0.827600
     10 O1         -0.6820    1.0370   -2.1150 o         1 HPV     -0.879300
     11 O2         -1.0660   -1.0990   -1.6760 o         1 HPV     -0.879300
     12 H3          1.6760   -1.0690   -0.1040 h1        1 HPV      0.031700
     13 H3A         1.9930    0.6950   -0.4670 h1        1 HPV      0.031700
@<TRIPOS>BOND
     1    1    7 1   
     2    1    8 2   
     3    1    9 1   
     4    2    3 1   
     5    3    4 1   
     6    3    5 1   
     7    3    6 1   
     8    6    7 1   
     9    7   12 1   
    10    7   13 1   
    11    9   10 1   
    12    9   11 1   
@<TRIPOS>SUBSTRUCTURE
     1 HPV         1 TEMP              0 ****  ****    0 ROOT
