@<TRIPOS>MOLECULE
HPV
   13    12     1     0     0
SMALL
bcc


@<TRIPOS>ATOM
      1 C2          1.7270    0.4920    0.1980 c         1 HPV      0.479100
      2 O4P        -2.1090   -0.6840   -1.4730 o         1 HPV     -0.948167
      3 P          -2.1950   -0.1640   -0.0580 p5        1 HPV      1.318900
      4 O2P        -3.2090    0.9340    0.1560 o         1 HPV     -0.948167
      5 O3P        -2.1790   -1.2330    1.0090 o         1 HPV     -0.948167
      6 O1P        -0.6940    0.6560    0.1660 os        1 HPV     -0.565200
      7 C3          0.3870   -0.1860    0.0100 c3        1 HPV      0.110400
      8 O3          1.8830    1.6950    0.4680 o         1 HPV     -0.631100
      9 C1          2.9760   -0.3860    0.0390 c         1 HPV      0.827600
     10 O1          3.4660   -0.9610    1.0610 o         1 HPV     -0.879300
     11 O2          3.5270   -0.4830   -1.1010 o         1 HPV     -0.879300
     12 H3          0.3710   -0.6360   -1.0260 h1        1 HPV      0.031700
     13 H3A         0.3210   -1.0300    0.7580 h1        1 HPV      0.031700
@<TRIPOS>BOND
     1    1    7 1   
     2    1    8 2   
     3    1    9 1   
     4    2    3 1   
     5    3    4 1   
     6    3    5 1   
     7    3    6 1   
     8    6    7 1   
     9    7   12 1   
    10    7   13 1   
    11    9   10 1   
    12    9   11 1   
@<TRIPOS>SUBSTRUCTURE
     1 HPV         1 TEMP              0 ****  ****    0 ROOT
