@<TRIPOS>MOLECULE
HPV
   13    11     1     0     0
SMALL
bcc


@<TRIPOS>ATOM
      1 C2         -1.4320    0.2660   -0.1780 c1        1 HPV      0.186000
      2 O4P         2.9740   -0.6540    0.0060 o         1 HPV     -0.946833
      3 P           1.9640   -0.9620    1.0860 p5        1 HPV      1.556500
      4 O2P         2.0500    0.0870    2.1690 o         1 HPV     -0.946833
      5 O3P         2.2580   -2.3210    1.6770 o         1 HPV     -0.946833
      6 O1P         0.5110   -0.9610    0.4650 os        1 HPV     -0.728000
      7 C3          0.0780    0.1870   -0.2270 c2        1 HPV      0.025000
      8 O3         -2.0360   -0.2310    0.7520 o         1 HPV     -0.389000
      9 C1         -2.1900    0.9630   -1.2860 c2        1 HPV      0.294000
     10 O1         -2.4160    2.1990   -1.2140 o         1 HPV     -0.615000
     11 O2         -2.5940    0.3060   -2.2820 o         1 HPV     -0.615000
     12 H3          0.3720    0.1350   -1.1600 h4        1 HPV      0.063000
     13 H3A         0.4610    0.9850    0.1920 h4        1 HPV      0.063000
@<TRIPOS>BOND
     1    1    8 1   
     2    1    9 1   
     3    2    3 1   
     4    3    4 1   
     5    3    5 1   
     6    3    6 1   
     7    6    7 1   
     8    7   12 1   
     9    7   13 1   
    10    9   10 1   
    11    9   11 1   
@<TRIPOS>SUBSTRUCTURE
     1 HPV         1 TEMP              0 ****  ****    0 ROOT
