@<TRIPOS>MOLECULE
HPW
   49    51     1     0     0
SMALL
bcc


@<TRIPOS>ATOM
      1 C14         2.5400   -0.2690    1.0050 c3        1 HPW     -0.962000
      2 C7          1.3800    3.7520    1.7920 cx        1 HPW      0.153000
      3 C8          0.3720    3.8780    0.6000 cx        1 HPW     -0.212000
      4 C9          1.3390    2.7290    0.7380 cu        1 HPW     -0.345000
      5 C10         2.0480    2.5510   -0.4390 c2        1 HPW      0.170000
      6 C1         -0.1860    5.4680    4.4970 c3        1 HPW     -0.945000
      7 S2          1.2090    4.4940    4.3720 s6        1 HPW      2.827000
      8 O3          2.2940    5.3430    4.0880 o         1 HPW     -0.923000
      9 O4          1.2700    3.6970    5.5270 o         1 HPW     -0.923000
     10 N11         3.0530    1.6580   -0.7030 n3        1 HPW     -0.777000
     11 S13         3.8040    0.6690    0.3920 s6        1 HPW      2.824000
     12 O15         4.3780    1.4090    1.4320 o         1 HPW     -0.919000
     13 O16         4.6680   -0.1520   -0.3570 o         1 HPW     -0.919000
     14 C17         1.5230    3.5430   -1.4100 c2        1 HPW     -0.154000
     15 C18         0.6650    4.4030   -0.7630 c2        1 HPW     -0.022000
     16 C19         0.0130    5.5800   -1.3080 c2        1 HPW     -0.031000
     17 C20        -0.4570    6.5420   -0.4700 c2        1 HPW     -0.016000
     18 N21        -0.0980    5.7610   -2.7430 n         1 HPW     -0.162000
     19 O22         1.0980    5.7150   -3.3450 oh        1 HPW     -0.233000
     20 C24        -1.0950    4.9370   -3.3690 c2        1 HPW      0.228000
     21 O25        -0.9780    4.5100   -4.5180 o         1 HPW     -0.285000
     22 C26        -1.2780    8.1460   -2.1400 c1        1 HPW      0.317000
     23 C27        -1.0800    7.7900   -0.8620 c2        1 HPW     -0.344000
     24 C28        -1.4950    8.6830    0.2070 c2        1 HPW     -0.019000
     25 C29        -0.6060    8.9040    1.4090 c3        1 HPW     -0.104000
     26 C30        -0.6110   10.3660    1.7780 c2        1 HPW     -0.147000
     27 C31        -1.6070   11.2200    1.4500 c2        1 HPW     -0.145000
     28 C32        -2.8270   10.6250    0.8790 c2        1 HPW     -0.069000
     29 C33        -2.5460    9.5020    0.2300 c1        1 HPW     -0.173000
     30 H1          1.6210    0.3200    1.2660 h1        1 HPW      0.169000
     31 H2          2.2110   -1.0760    0.3050 h1        1 HPW      0.169000
     32 H3          2.8510   -0.7810    1.9520 h1        1 HPW      0.169000
     33 H4         -0.6990    3.8070    0.8480 hc        1 HPW      0.156000
     34 H5          2.2840    4.4160    1.8100 h1        1 HPW      0.158000
     35 H6         -0.3420    6.1390    3.6190 h1        1 HPW      0.152333
     36 H7         -1.1300    4.8870    4.6330 h1        1 HPW      0.152333
     37 H8         -0.1060    6.1380    5.3920 h1        1 HPW      0.152333
     38 H9          0.2920    2.7470    3.1770 hn        1 HPW      0.254000
     39 H10         3.3340    1.6310   -1.6610 hn        1 HPW      0.260000
     40 H11         1.8600    3.6080   -2.4470 ha        1 HPW      0.175000
     41 H12        -0.3750    6.3730    0.6200 ha        1 HPW      0.149000
     42 H13         1.1220    6.5080   -3.9180 ho        1 HPW      0.231000
     43 H14        -2.0120    4.8290   -2.7460 h5        1 HPW      0.143000
     44 H15         0.4360    8.5970    1.1230 hc        1 HPW      0.115000
     45 H16        -0.9110    8.2990    2.3040 hc        1 HPW      0.115000
     46 H17         0.2590   10.6950    2.3650 ha        1 HPW      0.142000
     47 H18        -1.5910   12.2900    1.6860 ha        1 HPW      0.146000
     48 H19        -3.8120   11.0390    1.1070 ha        1 HPW      0.163000
     49 N5          0.8650    3.5550    3.0890 n3        1 HPW     -0.858000
@<TRIPOS>BOND
     1    1   11 1   
     2    1   30 1   
     3    1   31 1   
     4    1   32 1   
     5    2    3 1   
     6    2    4 1   
     7    2   34 1   
     8    2   49 1   
     9    3    4 1   
    10    3   15 1   
    11    3   33 1   
    12    4    5 1   
    13    5   10 1   
    14    5   14 1   
    15    6    7 1   
    16    6   35 1   
    17    6   36 1   
    18    6   37 1   
    19    7    8 1   
    20    7    9 1   
    21    7   49 1   
    22   10   11 1   
    23   10   39 1   
    24   11   12 1   
    25   11   13 1   
    26   14   15 1   
    27   14   40 1   
    28   15   16 1   
    29   16   17 1   
    30   16   18 1   
    31   17   23 1   
    32   17   41 1   
    33   18   19 1   
    34   18   20 1   
    35   19   42 1   
    36   20   21 1   
    37   20   43 1   
    38   22   23 1   
    39   23   24 1   
    40   24   25 1   
    41   24   29 1   
    42   25   26 1   
    43   25   44 1   
    44   25   45 1   
    45   26   27 1   
    46   26   46 1   
    47   27   28 1   
    48   27   47 1   
    49   28   29 1   
    50   28   48 1   
    51   38   49 1   
@<TRIPOS>SUBSTRUCTURE
     1 HPW         1 TEMP              0 ****  ****    0 ROOT
