@<TRIPOS>MOLECULE
HPW
   49    51     1     0     0
SMALL
bcc


@<TRIPOS>ATOM
      1 C14        -3.3320   -2.9100   -2.4260 c3        1 HPW     -0.371300
      2 C7         -1.4460    1.3620   -0.0630 ca        1 HPW      0.163100
      3 C8         -0.1140    1.0030    0.2290 ca        1 HPW     -0.138000
      4 C9         -2.4360    0.3610   -0.1480 ca        1 HPW     -0.165000
      5 C10        -2.0950   -0.9880    0.0790 ca        1 HPW      0.163100
      6 C1         -2.5960    3.7920    1.9540 c3        1 HPW     -0.371300
      7 S2         -3.0390    3.5410    0.3320 s6        1 HPW      1.469900
      8 O3         -4.2140    2.7750    0.3190 o         1 HPW     -0.642300
      9 O4         -3.0660    4.7930   -0.3150 o         1 HPW     -0.642300
     10 N11        -3.0680   -2.0000    0.0040 nh        1 HPW     -0.788500
     11 S13        -4.2050   -2.2060   -1.1480 s6        1 HPW      1.469900
     12 O15        -4.7160   -0.9800   -1.5990 o         1 HPW     -0.642300
     13 O16        -5.1220   -3.1620   -0.6680 o         1 HPW     -0.642300
     14 C17        -0.7630   -1.3280    0.3980 ca        1 HPW     -0.138000
     15 C18         0.2140   -0.3350    0.4590 ca        1 HPW     -0.037800
     16 C19         1.6220   -0.6810    0.7340 cc        1 HPW      0.136400
     17 C20         2.6230   -0.1740   -0.0700 cd        1 HPW     -0.232000
     18 N21         1.9580   -1.4990    1.8120 n         1 HPW     -0.217500
     19 O22         0.9720   -2.1050    2.4640 oh        1 HPW     -0.394100
     20 C24         3.3020   -1.9220    2.0520 c         1 HPW      0.682700
     21 O25         3.4930   -2.6790    3.0220 o         1 HPW     -0.635500
     22 C26         4.3180   -1.3730    1.1700 cc        1 HPW     -0.252200
     23 C27         3.9930   -0.5290    0.1450 cd        1 HPW      0.081800
     24 C28         5.0160    0.0130   -0.7490 ca        1 HPW     -0.073800
     25 C29         4.9490    1.3450   -1.1810 ca        1 HPW     -0.107500
     26 C30         5.9290    1.8570   -2.0280 ca        1 HPW     -0.131000
     27 C31         6.9810    1.0460   -2.4550 ca        1 HPW     -0.115000
     28 C32         7.0520   -0.2800   -2.0310 ca        1 HPW     -0.131000
     29 C33         6.0770   -0.7970   -1.1790 ca        1 HPW     -0.107500
     30 H1         -2.9100   -3.9130   -2.1780 h1        1 HPW      0.117367
     31 H2         -4.0020   -3.0650   -3.3110 h1        1 HPW      0.117367
     32 H3         -2.4820   -2.2840   -2.7920 h1        1 HPW      0.117367
     33 H4          0.6740    1.7700    0.2820 ha        1 HPW      0.152000
     34 H5         -3.4830    0.6360   -0.3930 ha        1 HPW      0.206000
     35 H6         -2.3780    2.8520    2.5160 h1        1 HPW      0.117367
     36 H7         -1.7050    4.4540    2.0730 h1        1 HPW      0.117367
     37 H8         -3.4310    4.2940    2.5080 h1        1 HPW      0.117367
     38 H9         -1.0980    3.1890   -0.8390 hn        1 HPW      0.460300
     39 H10        -2.9900   -2.6630    0.7450 hn        1 HPW      0.460300
     40 H11        -0.4880   -2.3750    0.6090 ha        1 HPW      0.152000
     41 H12         2.3620    0.4890   -0.9070 ha        1 HPW      0.160000
     42 H13         1.2650   -2.1740    3.4010 ho        1 HPW      0.445000
     43 H14         5.3490   -1.6920    1.3800 ha        1 HPW      0.172000
     44 H15         4.1240    1.9900   -0.8420 ha        1 HPW      0.137000
     45 H16         5.8730    2.9050   -2.3590 ha        1 HPW      0.137500
     46 H17         7.7530    1.4530   -3.1260 ha        1 HPW      0.137000
     47 H18         7.8800   -0.9220   -2.3670 ha        1 HPW      0.137500
     48 H19         6.1350   -1.8450   -0.8470 ha        1 HPW      0.137000
     49 N5         -1.7680    2.7150   -0.2740 nh        1 HPW     -0.788500
@<TRIPOS>BOND
     1    1   11 1   
     2    1   30 1   
     3    1   31 1   
     4    1   32 1   
     5    2    3 ar  
     6    2    4 ar  
     7    2   49 1   
     8    3   15 ar  
     9    3   33 1   
    10    4    5 ar  
    11    4   34 1   
    12    5   10 1   
    13    5   14 ar  
    14    6    7 1   
    15    6   35 1   
    16    6   36 1   
    17    6   37 1   
    18    7    8 2   
    19    7    9 2   
    20    7   49 1   
    21   10   11 1   
    22   10   39 1   
    23   11   12 2   
    24   11   13 2   
    25   14   15 ar  
    26   14   40 1   
    27   15   16 1   
    28   16   17 2   
    29   16   18 1   
    30   17   23 1   
    31   17   41 1   
    32   18   19 1   
    33   18   20 1   
    34   19   42 1   
    35   20   21 2   
    36   20   22 1   
    37   22   23 2   
    38   22   43 1   
    39   23   24 1   
    40   24   25 ar  
    41   24   29 ar  
    42   25   26 ar  
    43   25   44 1   
    44   26   27 ar  
    45   26   45 1   
    46   27   28 ar  
    47   27   46 1   
    48   28   29 ar  
    49   28   47 1   
    50   29   48 1   
    51   38   49 1   
@<TRIPOS>SUBSTRUCTURE
     1 HPW         1 TEMP              0 ****  ****    0 ROOT
