@<TRIPOS>MOLECULE
HPW
   49    50     1     0     0
SMALL
bcc


@<TRIPOS>ATOM
      1 C14         1.8380   -0.5820    0.9600 c3        1 HPW     -0.950000
      2 C7          2.0130    3.7620    1.7830 c3        1 HPW      0.022000
      3 C8          1.3580    4.9000    1.0530 c2        1 HPW     -0.140000
      4 C9          1.9700    2.4660    1.0940 c1        1 HPW     -0.117000
      5 C10         1.7320    2.4370   -0.3200 c2        1 HPW      0.002000
      6 C1          1.7130    5.7310    4.7800 c3        1 HPW     -0.939000
      7 S2          2.5620    4.3080    4.3750 s6        1 HPW      2.821000
      8 O3          3.8220    4.6920    3.8720 o         1 HPW     -0.925000
      9 O4          2.5180    3.4580    5.4940 o         1 HPW     -0.925000
     10 N11         1.9620    1.2230   -0.9680 n7        1 HPW     -0.799000
     11 S13         2.7950   -0.0430   -0.3240 s6        1 HPW      2.835000
     12 O15         4.0530    0.3530    0.1500 o         1 HPW     -0.929500
     13 O16         2.7990   -1.0420   -1.3230 o         1 HPW     -0.929500
     14 C17         1.2110    3.5410   -0.9640 c2        1 HPW     -0.070000
     15 C18         1.0050    4.7780   -0.2510 c2        1 HPW     -0.048000
     16 C19         0.3980    5.9120   -0.9750 c2        1 HPW     -0.033000
     17 C20        -0.4810    6.7300   -0.3390 c2        1 HPW     -0.056000
     18 N21         0.7760    6.1720   -2.3470 n         1 HPW     -0.154000
     19 O22         2.0500    5.8430   -2.5900 oh        1 HPW     -0.229000
     20 C24        -0.1490    5.6390   -3.3150 c2        1 HPW      0.220000
     21 O25         0.2090    5.1190   -4.3700 o         1 HPW     -0.273000
     22 C26        -0.8350    8.3900   -2.1210 c1        1 HPW      0.302000
     23 C27        -1.1220    7.9010   -0.9060 c2        1 HPW     -0.339000
     24 C28        -2.1250    8.5680   -0.0900 c2        1 HPW     -0.021000
     25 C29        -1.8790    8.8230    1.3780 c3        1 HPW     -0.102000
     26 C30        -2.3570   10.2080    1.7340 c2        1 HPW     -0.150000
     27 C31        -3.2970   10.8810    1.0320 c2        1 HPW     -0.142000
     28 C32        -4.0150   10.1230   -0.0080 c2        1 HPW     -0.068000
     29 C33        -3.2480    9.1560   -0.4970 c1        1 HPW     -0.169000
     30 H1          1.6870    0.2070    1.7440 h1        1 HPW      0.165000
     31 H2          0.8250   -0.9330    0.6510 h1        1 HPW      0.165000
     32 H3          2.3260   -1.4470    1.4770 h1        1 HPW      0.165000
     33 H4          1.2390    5.8490    1.5970 ha        1 HPW      0.141000
     34 H5          3.1560    3.9860    1.7070 h1        1 HPW      0.211000
     35 H6          1.6360    6.4590    3.9380 h1        1 HPW      0.151667
     36 H7          0.6750    5.5410    5.1440 h1        1 HPW      0.151667
     37 H8          2.2390    6.2670    5.6110 h1        1 HPW      0.151667
     38 H9          0.9260    3.0460    3.3570 hn        1 HPW      0.255000
     39 H10         1.6340    1.1800   -1.9070 hn        1 HPW      0.251000
     40 H11         0.9340    3.5090   -2.0330 ha        1 HPW      0.156000
     41 H12        -0.7710    6.4930    0.7000 ha        1 HPW      0.148000
     42 H13         2.4600    6.6610   -2.9360 ho        1 HPW      0.233000
     43 H14        -1.2070    5.8490   -3.0350 h5        1 HPW      0.149000
     44 H15        -0.7730    8.7530    1.5570 hc        1 HPW      0.113500
     45 H16        -2.3880    8.0790    2.0460 hc        1 HPW      0.113500
     46 H17        -1.8970   10.6380    2.6350 ha        1 HPW      0.139000
     47 H18        -3.6190   11.9010    1.2710 ha        1 HPW      0.147000
     48 H19        -5.0740   10.3070   -0.2060 ha        1 HPW      0.165000
     49 N5          1.6640    3.6850    3.1770 n7        1 HPW     -0.866000
@<TRIPOS>BOND
     1    1   11 1   
     2    1   30 1   
     3    1   31 1   
     4    1   32 1   
     5    2    3 1   
     6    2    4 1   
     7    2   34 1   
     8    2   49 1   
     9    3   15 1   
    10    3   33 1   
    11    4    5 1   
    12    5   10 1   
    13    5   14 1   
    14    6    7 1   
    15    6   35 1   
    16    6   36 1   
    17    6   37 1   
    18    7    8 1   
    19    7    9 1   
    20    7   49 1   
    21   10   11 1   
    22   10   39 1   
    23   11   12 1   
    24   11   13 1   
    25   14   15 1   
    26   14   40 1   
    27   15   16 1   
    28   16   17 1   
    29   16   18 1   
    30   17   23 1   
    31   17   41 1   
    32   18   19 1   
    33   18   20 1   
    34   19   42 1   
    35   20   21 1   
    36   20   43 1   
    37   22   23 1   
    38   23   24 1   
    39   24   25 1   
    40   24   29 1   
    41   25   26 1   
    42   25   44 1   
    43   25   45 1   
    44   26   27 1   
    45   26   46 1   
    46   27   28 1   
    47   27   47 1   
    48   28   29 1   
    49   28   48 1   
    50   38   49 1   
@<TRIPOS>SUBSTRUCTURE
     1 HPW         1 TEMP              0 ****  ****    0 ROOT
