@<TRIPOS>MOLECULE
HPW
   49    50     1     0     0
SMALL
bcc


@<TRIPOS>ATOM
      1 C14        -0.1200    0.6080    2.6770 c3        1 HPW     -0.953000
      2 C7          2.4980    3.9020    1.3310 c3        1 HPW      0.024000
      3 C8          2.1860    5.1340    0.5270 c2        1 HPW     -0.139000
      4 C9          1.4340    2.8890    1.3790 c1        1 HPW     -0.115000
      5 C10         0.3890    2.9280    0.3980 c2        1 HPW     -0.007000
      6 C1          5.1350    5.7570    2.9360 c3        1 HPW     -0.946000
      7 S2          4.6880    4.1170    2.9030 s6        1 HPW      2.822000
      8 O3          5.3360    3.5100    1.8060 o         1 HPW     -0.927500
      9 O4          4.9130    3.5860    4.1860 o         1 HPW     -0.927500
     10 N11        -0.4730    1.8300    0.3560 n3        1 HPW     -0.801000
     11 S13        -0.1480    0.3550    1.0090 s6        1 HPW      2.834000
     12 O15         1.0920   -0.1350    0.5750 o         1 HPW     -0.932000
     13 O16        -1.2700   -0.4480    0.6990 o         1 HPW     -0.932000
     14 C17         0.2080    4.0450   -0.3920 c2        1 HPW     -0.063000
     15 C18         1.1290    5.1520   -0.3150 c2        1 HPW     -0.106000
     16 C19         0.8010    6.3170   -1.2330 c3        1 HPW      0.002000
     17 C20        -0.5860    6.7140   -0.9290 c1        1 HPW     -0.033000
     18 N21         1.8150    7.3930   -1.3330 n         1 HPW     -0.222000
     19 O22         1.8330    8.1370   -0.2140 oh        1 HPW     -0.233000
     20 C24         3.1060    7.0120   -1.8080 c2        1 HPW      0.209000
     21 O25         4.1340    7.5590   -1.3960 o         1 HPW     -0.305000
     22 C26        -0.1990    9.0050   -0.1400 c1        1 HPW      0.388000
     23 C27        -1.0160    7.9760   -0.4770 c2        1 HPW     -0.379000
     24 C28        -2.4520    8.1880   -0.3410 c2        1 HPW      0.024000
     25 C29        -3.4540    7.2060   -0.8860 c3        1 HPW     -0.110000
     26 C30        -4.5860    7.0500    0.0950 c2        1 HPW     -0.141000
     27 C31        -4.9040    7.9740    1.0300 c2        1 HPW     -0.156000
     28 C32        -4.2280    9.2770    0.9350 c2        1 HPW     -0.055000
     29 C33        -3.0340    9.1620    0.3630 c1        1 HPW     -0.227000
     30 H1          0.6610    1.3540    2.9870 h1        1 HPW      0.167000
     31 H2         -1.0920    0.9650    3.0960 h1        1 HPW      0.167000
     32 H3          0.1250   -0.3420    3.2160 h1        1 HPW      0.167000
     33 H4          2.8790    5.9860    0.6290 ha        1 HPW      0.156000
     34 H5          3.2840    3.3250    0.6900 h1        1 HPW      0.208000
     35 H6          4.9410    6.2960    1.9770 h1        1 HPW      0.157000
     36 H7          4.6310    6.3430    3.7420 h1        1 HPW      0.157000
     37 H8          6.2350    5.8540    3.1260 h1        1 HPW      0.157000
     38 H9          2.4250    4.2520    3.3430 hn        1 HPW      0.255000
     39 H10        -1.3180    1.9810   -0.1450 hn        1 HPW      0.248000
     40 H11        -0.6580    4.1620   -1.0680 ha        1 HPW      0.169000
     41 H12         0.7500    5.9050   -2.2970 h1        1 HPW      0.158000
     42 H13         2.2380    8.9950   -0.4660 ho        1 HPW      0.256000
     43 H14         3.0750    6.2780   -2.6430 h5        1 HPW      0.151000
     44 H15        -2.9210    6.2220   -1.0170 hc        1 HPW      0.130500
     45 H16        -3.8710    7.5070   -1.8830 hc        1 HPW      0.130500
     46 H17        -5.1670    6.1230   -0.0150 ha        1 HPW      0.136000
     47 H18        -5.7030    7.8380    1.7680 ha        1 HPW      0.142000
     48 H19        -4.7480   10.1980    1.2120 ha        1 HPW      0.157000
     49 N5          3.0920    4.1820    2.6110 n3        1 HPW     -0.863000
@<TRIPOS>BOND
     1    1   11 1   
     2    1   30 1   
     3    1   31 1   
     4    1   32 1   
     5    2    3 1   
     6    2    4 1   
     7    2   34 1   
     8    2   49 1   
     9    3   15 1   
    10    3   33 1   
    11    4    5 1   
    12    5   10 1   
    13    5   14 1   
    14    6    7 1   
    15    6   35 1   
    16    6   36 1   
    17    6   37 1   
    18    7    8 1   
    19    7    9 1   
    20    7   49 1   
    21   10   11 1   
    22   10   39 1   
    23   11   12 1   
    24   11   13 1   
    25   14   15 1   
    26   14   40 1   
    27   15   16 1   
    28   16   17 1   
    29   16   18 1   
    30   16   41 1   
    31   17   23 1   
    32   18   19 1   
    33   18   20 1   
    34   19   42 1   
    35   20   21 1   
    36   20   43 1   
    37   22   23 1   
    38   23   24 1   
    39   24   25 1   
    40   24   29 1   
    41   25   26 1   
    42   25   44 1   
    43   25   45 1   
    44   26   27 1   
    45   26   46 1   
    46   27   28 1   
    47   27   47 1   
    48   28   29 1   
    49   28   48 1   
    50   38   49 1   
@<TRIPOS>SUBSTRUCTURE
     1 HPW         1 TEMP              0 ****  ****    0 ROOT
