@<TRIPOS>MOLECULE
HPW
   49    41     1     0     0
SMALL
bcc


@<TRIPOS>ATOM
      1 C14        -0.7840   -6.4460   -0.8240 c3        1 HPW     -0.962000
      2 C7          1.6060   -1.1790    1.6760 c1        1 HPW      0.138000
      3 C8          1.2610   -0.0990    0.8800 c1        1 HPW     -0.193667
      4 C9          1.2470   -2.4620    1.2980 c1        1 HPW     -0.246000
      5 C10         0.5410   -2.6660    0.1230 c1        1 HPW      0.089333
      6 C1          4.4400   -0.9930    4.6820 c3        1 HPW     -0.966000
      7 S2          3.8320   -1.4550    3.0840 s4        1 HPW      2.040800
      8 O3          4.6660   -0.9340    2.0370 o         1 HPW     -0.536900
      9 O4          3.9610   -2.8690    2.8660 o         1 HPW     -0.536900
     10 N5          2.2780   -0.9660    2.9050 n2        1 HPW     -0.821000
     11 N11         0.3780   -3.9130   -0.5300 n2        1 HPW     -0.822000
     12 S13        -0.2070   -5.2030    0.3000 s6        1 HPW      2.824000
     13 O15        -1.2410   -4.8080    1.2170 o         1 HPW     -0.928500
     14 O16         0.7780   -5.7330    1.2030 o         1 HPW     -0.928500
     15 C17         0.1960   -1.5860   -0.6740 c1        1 HPW     -0.193667
     16 C18         0.5560   -0.3030   -0.2950 c1        1 HPW      0.089333
     17 C19         0.1770    0.8760   -1.1640 c1        1 HPW      0.089333
     18 C20        -0.9770    1.7690   -0.7660 c1        1 HPW     -0.193667
     19 N21         0.8980    1.1270   -2.4100 n2        1 HPW     -0.141000
     20 O22         2.0480    0.4390   -2.6830 oh        1 HPW     -0.197000
     21 C24         0.4100    2.1360   -3.3490 c2        1 HPW      0.322000
     22 O25         0.9940    2.3210   -4.3990 o         1 HPW     -0.360000
     23 C26        -0.8020    2.9740   -2.9980 c2        1 HPW     -0.232000
     24 C27        -1.4730    2.7860   -1.7040 c1        1 HPW      0.069000
     25 C28        -2.5760    3.7310   -1.2790 c2        1 HPW     -0.061000
     26 C29        -2.2700    4.8670   -0.5450 c2        1 HPW     -0.108000
     27 C30        -3.2750    5.7530   -0.1890 c1        1 HPW     -0.132000
     28 C31        -4.5850    5.5030   -0.5660 c1        1 HPW     -0.123000
     29 C32        -4.8910    4.3670   -1.3000 c1        1 HPW     -0.123000
     30 C33        -3.8860    3.4820   -1.6560 c1        1 HPW     -0.106000
     31 H1         -0.1350   -6.5570   -1.5500 h1        1 HPW      0.168667
     32 H2         -1.6480   -6.1730   -1.1980 h1        1 HPW      0.168667
     33 H3         -0.8890   -7.2950   -0.3470 h1        1 HPW      0.168667
     34 H4          1.5140    0.8050    1.1460 ha        1 HPW      0.155333
     35 H5          1.4900   -3.2240    1.8590 ha        1 HPW      0.159000
     36 H6          4.5220   -0.0170    4.7300 h1        1 HPW      0.170667
     37 H7          5.3180   -1.4010    4.8280 h1        1 HPW      0.170667
     38 H8          3.8160   -1.3030    5.3710 h1        1 HPW      0.170667
     39 H9          1.8650   -0.5100    3.5750 hn        1 HPW      0.254000
     40 H10         0.6230   -4.0070   -1.4030 hn        1 HPW      0.257000
     41 H11        -0.3010   -1.7300   -1.5020 ha        1 HPW      0.155333
     42 H12        -1.4200    1.6400    0.0940 ha        1 HPW      0.155333
     43 H13         2.6890    1.0120   -2.9140 ho        1 HPW      0.243000
     44 H14        -1.1280    3.6480   -3.6240 ha        1 HPW      0.172000
     45 H15        -1.3480    5.0430   -0.2800 ha        1 HPW      0.134000
     46 H16        -3.0600    6.5520    0.3280 ha        1 HPW      0.136000
     47 H17        -5.2930    6.1270   -0.3140 ha        1 HPW      0.137000
     48 H18        -5.8140    4.1920   -1.5650 ha        1 HPW      0.137000
     49 H19        -4.1010    2.6820   -2.1730 ha        1 HPW      0.140000
@<TRIPOS>BOND
     1    1   12 1   
     2    1   31 1   
     3    1   32 1   
     4    1   33 1   
     5    2    4 1   
     6    2   10 1   
     7    3   16 1   
     8    3   34 1   
     9    4   35 1   
    10    5   15 1   
    11    6    7 1   
    12    6   36 1   
    13    6   37 1   
    14    6   38 1   
    15    7    8 1   
    16    7    9 1   
    17   10   39 1   
    18   11   12 1   
    19   11   40 1   
    20   12   13 1   
    21   12   14 1   
    22   15   41 1   
    23   17   18 1   
    24   18   42 1   
    25   19   20 1   
    26   19   21 1   
    27   20   43 1   
    28   21   22 1   
    29   21   23 1   
    30   23   24 1   
    31   23   44 1   
    32   24   25 1   
    33   25   26 1   
    34   25   30 1   
    35   26   27 1   
    36   26   45 1   
    37   27   46 1   
    38   28   29 1   
    39   28   47 1   
    40   29   48 1   
    41   30   49 1   
@<TRIPOS>SUBSTRUCTURE
     1 HPW         1 TEMP              0 ****  ****    0 ROOT
