@<TRIPOS>MOLECULE
HPX
   25    20     1     0     0
SMALL
bcc


@<TRIPOS>ATOM
      1 CB3         0.7400   -0.8020   -3.8070 c1        1 HPX     -0.130500
      2 CB4         2.1250   -0.7670   -3.7960 c1        1 HPX     -0.130500
      3 CB5         2.8070   -0.6770   -2.5920 c1        1 HPX     -0.130500
      4 CB6         2.1030   -0.6230   -1.4000 c1        1 HPX     -0.101000
      5 CB1         0.7170   -0.6590   -1.4100 c1        1 HPX     -0.117000
      6 CB2         0.0350   -0.7480   -2.6140 c1        1 HPX     -0.130500
      7 CA6        -0.0510   -0.6260   -0.1070 c2        1 HPX      0.306000
      8 OA4        -1.2650   -0.6570   -0.1170 o         1 HPX     -0.315000
      9 CA5         0.6940   -0.5810    1.2090 c2        1 HPX     -0.359000
     10 CA4         0.2450    0.2000    2.2110 c1        1 HPX      0.058000
     11 CA3        -1.0040    1.0320    2.0210 c1        1 HPX     -0.295000
     12 CA2        -1.9980    0.9720    2.9280 c1        1 HPX      0.070000
     13 OA3        -1.8750    0.1350    4.0530 o         1 HPX     -0.296000
     14 CA1        -3.2480    1.8030    2.7370 c2        1 HPX      0.337000
     15 OA2        -4.3230    1.2530    2.3820 o         1 HPX     -0.535500
     16 OA1        -3.2100    3.0480    2.9250 o         1 HPX     -0.535500
     17 HB3         0.2600   -0.8760   -4.6540 ha        1 HPX      0.127250
     18 HB4         2.6210   -0.8050   -4.6360 ha        1 HPX      0.127250
     19 HB5         3.7820   -0.6360   -2.5860 ha        1 HPX      0.127250
     20 HB6         2.5830   -0.5600   -0.5520 ha        1 HPX      0.140000
     21 HB2        -0.9400   -0.7730   -2.6220 ha        1 HPX      0.127250
     22 HA5         1.5010   -1.1170    1.3320 ha        1 HPX      0.109000
     23 HA4         0.7260    0.2290    3.0600 ha        1 HPX      0.111000
     24 H1         -1.0900    1.6120    1.2400 ha        1 HPX      0.182000
     25 HA3        -1.9340    0.6240    4.7930 ho        1 HPX      0.254000
@<TRIPOS>BOND
     1    1    6 1   
     2    1   17 1   
     3    2    3 1   
     4    2   18 1   
     5    3   19 1   
     6    4    5 1   
     7    4   20 1   
     8    5    7 1   
     9    6   21 1   
    10    7    8 1   
    11    7    9 1   
    12    9   10 1   
    13    9   22 1   
    14   10   23 1   
    15   11   12 1   
    16   11   24 1   
    17   12   14 1   
    18   13   25 1   
    19   14   15 1   
    20   14   16 1   
@<TRIPOS>SUBSTRUCTURE
     1 HPX         1 TEMP              0 ****  ****    0 ROOT
