@<TRIPOS>MOLECULE
HPX
   25    25     1     0     0
SMALL
bcc


@<TRIPOS>ATOM
      1 CB3         0.0350   -0.2220   -0.0300 ca        1 HPX     -0.148500
      2 CB4         1.3790    0.1510   -0.0410 ca        1 HPX     -0.129000
      3 CB5         2.0560    0.3470    1.1630 ca        1 HPX     -0.148500
      4 CB6         1.3900    0.1700    2.3740 ca        1 HPX     -0.094000
      5 CB1         0.0370   -0.1910    2.3900 ca        1 HPX     -0.138600
      6 CB2        -0.6360   -0.3910    1.1810 ca        1 HPX     -0.094000
      7 CA6        -0.6550   -0.3700    3.6990 c         1 HPX      0.584900
      8 OA4        -0.0320   -0.8560    4.6610 o         1 HPX     -0.590100
      9 CA5        -2.0370    0.0650    3.7530 ce        1 HPX     -0.377200
     10 CA4        -2.8180   -0.1130    4.8480 cf        1 HPX      0.061000
     11 CA3        -4.1780    0.3050    4.9230 cf        1 HPX     -0.305000
     12 CA2        -4.9850    0.1220    6.0030 ce        1 HPX      0.097900
     13 OA3        -4.5050   -0.4990    7.1170 oh        1 HPX     -0.528100
     14 CA1        -6.4520    0.5680    6.0810 c         1 HPX      0.885800
     15 OA2        -7.0180    0.3000    7.1810 o         1 HPX     -0.802300
     16 OA1        -6.9720    1.1420    5.0960 o         1 HPX     -0.802300
     17 HB3        -0.4990   -0.3820   -0.9780 ha        1 HPX      0.123000
     18 HB4         1.9030    0.2890   -0.9970 ha        1 HPX      0.119000
     19 HB5         3.1160    0.6370    1.1570 ha        1 HPX      0.123000
     20 HB6         1.9190    0.3050    3.3310 ha        1 HPX      0.146000
     21 HB2        -1.6970   -0.6880    1.1870 ha        1 HPX      0.146000
     22 HA5        -2.4350    0.5670    2.8600 ha        1 HPX      0.127000
     23 HA4        -2.3960   -0.6140    5.7420 ha        1 HPX      0.135000
     24 H1         -4.6270    0.8140    4.0540 ha        1 HPX      0.154000
     25 HA3        -5.2380   -0.5270    7.7690 ho        1 HPX      0.455000
@<TRIPOS>BOND
     1    1    2 ar  
     2    1    6 ar  
     3    1   17 1   
     4    2    3 ar  
     5    2   18 1   
     6    3    4 ar  
     7    3   19 1   
     8    4    5 ar  
     9    4   20 1   
    10    5    6 ar  
    11    5    7 1   
    12    6   21 1   
    13    7    8 2   
    14    7    9 1   
    15    9   10 2   
    16    9   22 1   
    17   10   11 1   
    18   10   23 1   
    19   11   12 2   
    20   11   24 1   
    21   12   13 1   
    22   12   14 1   
    23   13   25 1   
    24   14   15 1   
    25   14   16 1   
@<TRIPOS>SUBSTRUCTURE
     1 HPX         1 TEMP              0 ****  ****    0 ROOT
