@<TRIPOS>MOLECULE
HPX
   25    25     1     0     0
SMALL
bcc


@<TRIPOS>ATOM
      1 CB3        -4.2530   -1.7650    0.3970 ca        1 HPX     -0.148500
      2 CB4        -5.3440   -1.0530   -0.1010 ca        1 HPX     -0.129000
      3 CB5        -5.1920    0.2830   -0.4710 ca        1 HPX     -0.148500
      4 CB6        -3.9510    0.9050   -0.3450 ca        1 HPX     -0.094000
      5 CB1        -2.8500    0.1900    0.1410 ca        1 HPX     -0.138600
      6 CB2        -3.0080   -1.1480    0.5160 ca        1 HPX     -0.094000
      7 CA6        -1.5310    0.8750    0.2630 c         1 HPX      0.584900
      8 OA4        -1.4920    2.0750    0.5960 o         1 HPX     -0.590100
      9 CA5        -0.3640    0.0710   -0.0410 ce        1 HPX     -0.377200
     10 CA4         0.9030    0.5330    0.1090 cf        1 HPX      0.061000
     11 CA3         2.0640   -0.2410   -0.1820 cf        1 HPX     -0.305000
     12 CA2         3.3430    0.1950   -0.0230 ce        1 HPX      0.097900
     13 OA3         3.5840    1.4520    0.4420 oh        1 HPX     -0.528100
     14 CA1         4.5920   -0.6410   -0.3330 c         1 HPX      0.885800
     15 OA2         5.6850   -0.0410   -0.1150 o         1 HPX     -0.802300
     16 OA1         4.4580   -1.8120   -0.7610 o         1 HPX     -0.802300
     17 HB3        -4.3720   -2.8170    0.6940 ha        1 HPX      0.123000
     18 HB4        -6.3230   -1.5440   -0.1990 ha        1 HPX      0.119000
     19 HB5        -6.0510    0.8470   -0.8600 ha        1 HPX      0.123000
     20 HB6        -3.8230    1.9640   -0.6180 ha        1 HPX      0.146000
     21 HB2        -2.1490   -1.7120    0.9110 ha        1 HPX      0.146000
     22 HA5        -0.5460   -0.9460   -0.4170 ha        1 HPX      0.127000
     23 HA4         1.0660    1.5630    0.4820 ha        1 HPX      0.135000
     24 H1          1.9370   -1.2680   -0.5630 ha        1 HPX      0.154000
     25 HA3         4.5580    1.5630    0.4800 ho        1 HPX      0.455000
@<TRIPOS>BOND
     1    1    2 ar  
     2    1    6 ar  
     3    1   17 1   
     4    2    3 ar  
     5    2   18 1   
     6    3    4 ar  
     7    3   19 1   
     8    4    5 ar  
     9    4   20 1   
    10    5    6 ar  
    11    5    7 1   
    12    6   21 1   
    13    7    8 2   
    14    7    9 1   
    15    9   10 2   
    16    9   22 1   
    17   10   11 1   
    18   10   23 1   
    19   11   12 2   
    20   11   24 1   
    21   12   13 1   
    22   12   14 1   
    23   13   25 1   
    24   14   15 1   
    25   14   16 1   
@<TRIPOS>SUBSTRUCTURE
     1 HPX         1 TEMP              0 ****  ****    0 ROOT
