@<TRIPOS>MOLECULE
HPY
   14    14     1     0     0
SMALL
bcc


@<TRIPOS>ATOM
      1 N1          1.0720   -0.3150   -1.0470 n         1 HPY     -0.489100
      2 C2         -0.3220   -0.0950   -1.1320 c         1 HPY      0.793500
      3 O2         -0.9230   -0.3770   -2.1930 o         1 HPY     -0.656500
      4 N3         -0.9820    0.4790   -0.0430 n         1 HPY     -0.572900
      5 C4         -0.3570    0.6140    1.2640 c3        1 HPY      0.345700
      6 O4         -0.9840   -0.2320    2.2260 oh        1 HPY     -0.613800
      7 C5          1.1290    0.3920    1.2380 c2        1 HPY     -0.329200
      8 C6          1.7610   -0.0250    0.1190 c2        1 HPY      0.023600
      9 H1          1.5490   -0.5650   -1.8810 hn        1 HPY      0.346500
     10 H3         -1.9760    0.4300   -0.0640 hn        1 HPY      0.335500
     11 H4         -0.6030    1.6560    1.6450 h2        1 HPY      0.095700
     12 HO4        -0.6420   -1.1280    2.1260 ho        1 HPY      0.407000
     13 H5          1.6580    0.5910    2.1750 ha        1 HPY      0.162000
     14 H6          2.8550   -0.1780    0.0720 h4        1 HPY      0.153000
@<TRIPOS>BOND
     1    1    2 1   
     2    1    8 1   
     3    1    9 1   
     4    2    3 2   
     5    2    4 1   
     6    4    5 1   
     7    4   10 1   
     8    5    6 1   
     9    5    7 1   
    10    5   11 1   
    11    6   12 1   
    12    7    8 2   
    13    7   13 1   
    14    8   14 1   
@<TRIPOS>SUBSTRUCTURE
     1 HPY         1 TEMP              0 ****  ****    0 ROOT
