@<TRIPOS>MOLECULE
HPY
   14    14     1     0     0
SMALL
bcc


@<TRIPOS>ATOM
      1 N1         -0.0450    0.0100   -0.0390 n         1 HPY     -0.486100
      2 C2          1.3630   -0.0120    0.0140 c         1 HPY      0.796500
      3 O2          2.0230    0.0690   -1.0470 o         1 HPY     -0.659500
      4 N3          1.9940   -0.2010    1.2540 n         1 HPY     -0.560900
      5 C4          1.2730   -0.0280    2.5080 c3        1 HPY      0.339700
      6 O4          1.6490    1.1820    3.1740 oh        1 HPY     -0.608800
      7 C5         -0.2210    0.0240    2.3490 c2        1 HPY     -0.275200
      8 C6         -0.7950    0.0320    1.1270 c2        1 HPY      0.017600
      9 H1         -0.4740    0.0380   -0.9320 hn        1 HPY      0.347500
     10 H3          2.9610    0.0410    1.2600 hn        1 HPY      0.319500
     11 H4          1.5590   -0.9120    3.1620 h2        1 HPY      0.055700
     12 HO4         2.5170    1.0460    3.5710 ho        1 HPY      0.401000
     13 H5         -0.7980    0.0850    3.2770 ha        1 HPY      0.161000
     14 H6         -1.8910    0.0540    0.9820 h4        1 HPY      0.152000
@<TRIPOS>BOND
     1    1    2 1   
     2    1    8 1   
     3    1    9 1   
     4    2    3 2   
     5    2    4 1   
     6    4    5 1   
     7    4   10 1   
     8    5    6 1   
     9    5    7 1   
    10    5   11 1   
    11    6   12 1   
    12    7    8 2   
    13    7   13 1   
    14    8   14 1   
@<TRIPOS>SUBSTRUCTURE
     1 HPY         1 TEMP              0 ****  ****    0 ROOT
