@<TRIPOS>MOLECULE
HPY
   14    14     1     0     0
SMALL
bcc


@<TRIPOS>ATOM
      1 N1         -0.0410   -0.0010   -0.0330 n         1 HPY     -0.486100
      2 C2          1.3670    0.0260    0.0210 c         1 HPY      0.796500
      3 O2          2.0230    0.1650   -1.0360 o         1 HPY     -0.659500
      4 N3          2.0040   -0.1790    1.2550 n         1 HPY     -0.560900
      5 C4          1.2780   -0.0730    2.5130 c3        1 HPY      0.339700
      6 O4          1.6090    1.1290    3.2170 oh        1 HPY     -0.608800
      7 C5         -0.2170   -0.0700    2.3540 c2        1 HPY     -0.275200
      8 C6         -0.7920   -0.0430    1.1320 c2        1 HPY      0.017600
      9 H1         -0.4710    0.0400   -0.9250 hn        1 HPY      0.347500
     10 H3          2.9620    0.0970    1.2700 hn        1 HPY      0.319500
     11 H4          1.5950   -0.9660    3.1390 h2        1 HPY      0.055700
     12 HO4         2.4820    1.0110    3.6110 ho        1 HPY      0.401000
     13 H5         -0.7970   -0.0600    3.2830 ha        1 HPY      0.161000
     14 H6         -1.8870   -0.0560    0.9870 h4        1 HPY      0.152000
@<TRIPOS>BOND
     1    1    2 1   
     2    1    8 1   
     3    1    9 1   
     4    2    3 2   
     5    2    4 1   
     6    4    5 1   
     7    4   10 1   
     8    5    6 1   
     9    5    7 1   
    10    5   11 1   
    11    6   12 1   
    12    7    8 2   
    13    7   13 1   
    14    8   14 1   
@<TRIPOS>SUBSTRUCTURE
     1 HPY         1 TEMP              0 ****  ****    0 ROOT
