@<TRIPOS>MOLECULE
HPY
   14    14     1     0     0
SMALL
bcc


@<TRIPOS>ATOM
      1 N1         -0.9890    0.3730   -1.5150 n         1 HPY     -0.486100
      2 C2          0.4860    0.3730   -1.5150 c         1 HPY      0.796500
      3 O2          1.0950    0.0740   -2.5260 o         1 HPY     -0.659500
      4 N3          1.1310    0.3730   -0.2960 n         1 HPY     -0.560900
      5 C4          0.5790   -0.4200    0.7670 c3        1 HPY      0.339700
      6 O4          1.3930   -0.2620    2.0050 oh        1 HPY     -0.608800
      7 C5         -0.8410   -0.1330    1.0120 c2        1 HPY     -0.275200
      8 C6         -1.6950    0.2060   -0.2010 c2        1 HPY      0.017600
      9 H1         -1.4450    0.6830   -2.2420 hn        1 HPY      0.347500
     10 H3          1.7600    1.0070   -0.1130 hn        1 HPY      0.319500
     11 H4          0.7000   -1.3720    0.5870 h2        1 HPY      0.055700
     12 HO4         1.6240   -1.0630    2.3110 ho        1 HPY      0.401000
     13 H5         -1.1410    0.1180    1.9060 ha        1 HPY      0.161000
     14 H6         -2.6570    0.0440   -0.1810 h4        1 HPY      0.152000
@<TRIPOS>BOND
     1    1    2 1   
     2    1    8 1   
     3    1    9 1   
     4    2    3 2   
     5    2    4 1   
     6    4    5 1   
     7    4   10 1   
     8    5    6 1   
     9    5    7 1   
    10    5   11 1   
    11    6   12 1   
    12    7    8 2   
    13    7   13 1   
    14    8   14 1   
@<TRIPOS>SUBSTRUCTURE
     1 HPY         1 TEMP              0 ****  ****    0 ROOT
