@<TRIPOS>MOLECULE
HPZ
   25    25     1     0     0
SMALL
bcc


@<TRIPOS>ATOM
      1 CB3        -0.0780    0.2010   -0.0160 ca        1 HPZ     -0.149000
      2 CB4         1.2940   -0.0450   -0.0730 ca        1 HPZ     -0.131000
      3 CB5         2.0300   -0.1530    1.1070 ca        1 HPZ     -0.149000
      4 CB6         1.3960   -0.0160    2.3410 ca        1 HPZ     -0.096000
      5 CB1         0.0170    0.2180    2.4020 ca        1 HPZ     -0.135600
      6 CB2        -0.7170    0.3300    1.2170 ca        1 HPZ     -0.096000
      7 CA6        -0.6430    0.3570    3.7340 c         1 HPZ      0.585900
      8 OA4        -0.0510    0.9540    4.6500 o         1 HPZ     -0.575100
      9 CA5        -1.9520   -0.2530    3.8530 ce        1 HPZ     -0.391200
     10 CA4        -2.7240   -0.1450    4.9640 cf        1 HPZ      0.092000
     11 CA3        -4.0080   -0.7560    5.0720 cf        1 HPZ     -0.386000
     12 CA2        -4.8020   -0.6300    6.1750 ce        1 HPZ      0.136900
     13 OA3        -6.0200   -1.2280    6.2440 oh        1 HPZ     -0.477100
     14 CA1        -4.4690    0.1720    7.4610 c         1 HPZ      0.929800
     15 OA2        -3.8830   -0.4620    8.3690 o         1 HPZ     -0.784800
     16 OA1        -4.8100    1.3780    7.4600 o         1 HPZ     -0.784800
     17 HB3        -0.6580    0.2940   -0.9450 ha        1 HPZ      0.122000
     18 HB4         1.7940   -0.1520   -1.0450 ha        1 HPZ      0.118000
     19 HB5         3.1120   -0.3430    1.0650 ha        1 HPZ      0.122000
     20 HB6         1.9700   -0.0810    3.2790 ha        1 HPZ      0.145000
     21 HB2        -1.7990    0.5280    1.2610 ha        1 HPZ      0.145000
     22 HA5        -2.3000   -0.8350    2.9870 ha        1 HPZ      0.115000
     23 HA4        -2.3700    0.4400    5.8370 ha        1 HPZ      0.160000
     24 HA3        -4.3550   -1.3530    4.2120 ha        1 HPZ      0.098000
     25 HOA3       -6.1880   -1.7180    5.4240 ho        1 HPZ      0.386000
@<TRIPOS>BOND
     1    1    2 ar  
     2    1    6 ar  
     3    1   17 1   
     4    2    3 ar  
     5    2   18 1   
     6    3    4 ar  
     7    3   19 1   
     8    4    5 ar  
     9    4   20 1   
    10    5    6 ar  
    11    5    7 1   
    12    6   21 1   
    13    7    8 2   
    14    7    9 1   
    15    9   10 2   
    16    9   22 1   
    17   10   11 1   
    18   10   23 1   
    19   11   12 2   
    20   11   24 1   
    21   12   13 1   
    22   12   14 1   
    23   13   25 1   
    24   14   15 1   
    25   14   16 1   
@<TRIPOS>SUBSTRUCTURE
     1 HPZ         1 TEMP              0 ****  ****    0 ROOT
