@<TRIPOS>MOLECULE
HPZ
   25    20     1     0     0
SMALL
bcc


@<TRIPOS>ATOM
      1 CB3         2.9920   -0.7830   -2.4440 c1        1 HPZ     -0.148000
      2 CB4         2.3260   -0.7820   -3.6590 c1        1 HPZ     -0.140500
      3 CB5         0.9420   -0.7150   -3.6910 c1        1 HPZ     -0.140500
      4 CB6         0.2240   -0.6490   -2.5070 c1        1 HPZ     -0.101000
      5 CB1         0.8910   -0.6500   -1.2920 c1        1 HPZ     -0.117000
      6 CB2         2.2750   -0.7170   -1.2600 c2        1 HPZ     -0.093000
      7 CA6         0.1060   -0.6160    0.0010 c1        1 HPZ      0.306000
      8 OA4         0.6880   -0.6490    1.0670 o         1 HPZ     -0.315000
      9 CA5        -1.4070   -0.5810   -0.0330 c2        1 HPZ     -0.359000
     10 CA4        -2.0820    0.2140    0.8200 c1        1 HPZ      0.058000
     11 CA3        -1.3280    1.0720    1.8120 c1        1 HPZ     -0.295000
     12 CA2        -1.5970    0.9740    3.1290 c1        1 HPZ      0.070000
     13 OA3        -2.5800    0.0750    3.5810 o         1 HPZ     -0.296000
     14 CA1        -0.8430    1.8320    4.1210 c2        1 HPZ      0.337000
     15 OA2        -1.1750    3.0340    4.2940 o         1 HPZ     -0.535500
     16 OA1         0.0980    1.3360    4.7940 o         1 HPZ     -0.535500
     17 HB3         3.9670   -0.8310   -2.4220 ha        1 HPZ      0.122000
     18 HB4         2.8320   -0.8290   -4.4930 ha        1 HPZ      0.119500
     19 HB5         0.4730   -0.7140   -4.5470 ha        1 HPZ      0.119500
     20 HB6        -0.7500   -0.6010   -2.5290 ha        1 HPZ      0.140000
     21 HB2         2.7430   -0.7360   -0.4040 ha        1 HPZ      0.148000
     22 HA5        -1.8930   -1.1350   -0.6730 ha        1 HPZ      0.109000
     23 HA4        -3.0570    0.2360    0.7980 ha        1 HPZ      0.111000
     24 HA3        -0.6460    1.6960    1.4990 ha        1 HPZ      0.182000
     25 HOA3       -3.2000    0.5180    4.0400 ho        1 HPZ      0.254000
@<TRIPOS>BOND
     1    1    6 1   
     2    1   17 1   
     3    2    3 1   
     4    2   18 1   
     5    3   19 1   
     6    4    5 1   
     7    4   20 1   
     8    5    6 1   
     9    6   21 1   
    10    7    8 1   
    11    7    9 1   
    12    9   10 1   
    13    9   22 1   
    14   10   23 1   
    15   11   12 1   
    16   11   24 1   
    17   12   14 1   
    18   13   25 1   
    19   14   15 1   
    20   14   16 1   
@<TRIPOS>SUBSTRUCTURE
     1 HPZ         1 TEMP              0 ****  ****    0 ROOT
