@<TRIPOS>MOLECULE
HPZ
   25    25     1     0     0
SMALL
bcc


@<TRIPOS>ATOM
      1 CB3        -0.1140    0.3190   -0.0190 ca        1 HPZ     -0.149000
      2 CB4         1.2530    0.0600   -0.1010 ca        1 HPZ     -0.131000
      3 CB5         2.0020   -0.1020    1.0650 ca        1 HPZ     -0.149000
      4 CB6         1.3840   -0.0050    2.3100 ca        1 HPZ     -0.096000
      5 CB1         0.0080    0.2420    2.3970 ca        1 HPZ     -0.135600
      6 CB2        -0.7370    0.4080    1.2260 ca        1 HPZ     -0.096000
      7 CA6        -0.6350    0.3370    3.7410 c         1 HPZ      0.585900
      8 OA4        -0.0260    0.8920    4.6720 o         1 HPZ     -0.575100
      9 CA5        -1.9490   -0.2630    3.8520 ce        1 HPZ     -0.391200
     10 CA4        -2.7070   -0.1900    4.9760 cf        1 HPZ      0.092000
     11 CA3        -3.9960   -0.7910    5.0750 cf        1 HPZ     -0.386000
     12 CA2        -4.7760   -0.6990    6.1920 ce        1 HPZ      0.136900
     13 OA3        -5.9990   -1.2860    6.2530 oh        1 HPZ     -0.477100
     14 CA1        -4.4200    0.0500    7.5030 c         1 HPZ      0.929800
     15 OA2        -3.8270   -0.6230    8.3790 o         1 HPZ     -0.784800
     16 OA1        -4.7500    1.2580    7.5530 o         1 HPZ     -0.784800
     17 HB3        -0.7040    0.4540   -0.9370 ha        1 HPZ      0.122000
     18 HB4         1.7410   -0.0150   -1.0830 ha        1 HPZ      0.118000
     19 HB5         3.0810   -0.3010    1.0030 ha        1 HPZ      0.122000
     20 HB6         1.9670   -0.1120    3.2380 ha        1 HPZ      0.145000
     21 HB2        -1.8170    0.6160    1.2900 ha        1 HPZ      0.145000
     22 HA5        -2.3140   -0.8070    2.9680 ha        1 HPZ      0.115000
     23 HA4        -2.3360    0.3570    5.8660 ha        1 HPZ      0.160000
     24 HA3        -4.3600   -1.3510    4.1980 ha        1 HPZ      0.098000
     25 HOA3       -6.1830   -1.7430    5.4160 ho        1 HPZ      0.386000
@<TRIPOS>BOND
     1    1    2 ar  
     2    1    6 ar  
     3    1   17 1   
     4    2    3 ar  
     5    2   18 1   
     6    3    4 ar  
     7    3   19 1   
     8    4    5 ar  
     9    4   20 1   
    10    5    6 ar  
    11    5    7 1   
    12    6   21 1   
    13    7    8 2   
    14    7    9 1   
    15    9   10 2   
    16    9   22 1   
    17   10   11 1   
    18   10   23 1   
    19   11   12 2   
    20   11   24 1   
    21   12   13 1   
    22   12   14 1   
    23   13   25 1   
    24   14   15 1   
    25   14   16 1   
@<TRIPOS>SUBSTRUCTURE
     1 HPZ         1 TEMP              0 ****  ****    0 ROOT
