@<TRIPOS>MOLECULE
HPZ
   25    25     1     0     0
SMALL
bcc


@<TRIPOS>ATOM
      1 CB3         4.3260   -1.5050    0.5510 ca        1 HPZ     -0.149000
      2 CB4         5.3230   -0.6830    0.0260 ca        1 HPZ     -0.131000
      3 CB5         5.0010    0.5910   -0.4410 ca        1 HPZ     -0.149000
      4 CB6         3.6830    1.0420   -0.3850 ca        1 HPZ     -0.095500
      5 CB1         2.6760    0.2150    0.1290 ca        1 HPZ     -0.136600
      6 CB2         3.0050   -1.0590    0.6010 ca        1 HPZ     -0.095500
      7 CA6         1.2700    0.7170    0.1760 c         1 HPZ      0.584900
      8 OA4         1.0590    1.9110    0.4500 o         1 HPZ     -0.572100
      9 CA5         0.2450   -0.2600   -0.1320 ce        1 HPZ     -0.384200
     10 CA4        -1.0840   -0.0080   -0.0260 cf        1 HPZ      0.068000
     11 CA3        -2.0680   -0.9950   -0.3450 cf        1 HPZ     -0.302000
     12 CA2        -3.4090   -0.8010   -0.2230 ce        1 HPZ      0.098900
     13 OA3        -4.2070   -1.8550   -0.5770 oh        1 HPZ     -0.537100
     14 CA1        -4.1780    0.4350    0.2600 c         1 HPZ      0.885800
     15 OA2        -3.5600    1.4630    0.6240 o         1 HPZ     -0.800800
     16 OA1        -5.4370    0.2940    0.2480 o         1 HPZ     -0.800800
     17 HB3         4.5800   -2.5060    0.9260 ha        1 HPZ      0.121500
     18 HB4         6.3630   -1.0380   -0.0170 ha        1 HPZ      0.118000
     19 HB5         5.7860    1.2420   -0.8500 ha        1 HPZ      0.121500
     20 HB6         3.4190    2.0530   -0.7330 ha        1 HPZ      0.145500
     21 HB2         2.2190   -1.7080    1.0170 ha        1 HPZ      0.145500
     22 HA5         0.6000   -1.2430   -0.4760 ha        1 HPZ      0.115000
     23 HA4        -1.4510    0.9830    0.3210 ha        1 HPZ      0.187000
     24 HA3        -1.7040   -1.9700   -0.7120 ha        1 HPZ      0.110000
     25 HOA3       -5.1380   -1.5770   -0.4420 ho        1 HPZ      0.454000
@<TRIPOS>BOND
     1    1    2 ar  
     2    1    6 ar  
     3    1   17 1   
     4    2    3 ar  
     5    2   18 1   
     6    3    4 ar  
     7    3   19 1   
     8    4    5 ar  
     9    4   20 1   
    10    5    6 ar  
    11    5    7 1   
    12    6   21 1   
    13    7    8 2   
    14    7    9 1   
    15    9   10 2   
    16    9   22 1   
    17   10   11 1   
    18   10   23 1   
    19   11   12 2   
    20   11   24 1   
    21   12   13 1   
    22   12   14 1   
    23   13   25 1   
    24   14   15 1   
    25   14   16 1   
@<TRIPOS>SUBSTRUCTURE
     1 HPZ         1 TEMP              0 ****  ****    0 ROOT
