@<TRIPOS>MOLECULE
HQ
   40    41     1     0     0
SMALL
bcc


@<TRIPOS>ATOM
      1 C8         -0.0130    0.2440   -0.0530 ca        1 HQ      -0.124000
      2 C7          1.3790    0.0130   -0.0850 ca        1 HQ      -0.118000
      3 C6          2.0790   -0.1700    1.0850 ca        1 HQ      -0.103000
      4 C5          1.4140   -0.1290    2.3350 ca        1 HQ      -0.025000
      5 C10         0.0150    0.1030    2.3690 ca        1 HQ      -0.078300
      6 C9         -0.6900    0.2900    1.1430 ca        1 HQ      -0.091000
      7 C4          2.1020   -0.3150    3.5770 ca        1 HQ       0.109100
      8 C3          1.4070   -0.2670    4.7640 ca        1 HQ      -0.193000
      9 C2          0.0050   -0.0340    4.7740 ca        1 HQ      -0.140600
     10 N1         -0.6980    0.1530    3.6070 na        1 HQ       0.229600
     11 O4          3.4570   -0.5360    3.4950 oh        1 HQ      -0.490100
     12 C11        -0.7190    0.0030    6.0850 c3        1 HQ      -0.015100
     13 C12        -1.0830    1.4210    6.4820 c3        1 HQ      -0.082400
     14 C13        -1.7600    1.4440    7.8350 c3        1 HQ      -0.077400
     15 C14        -2.1280    2.8560    8.2370 c3        1 HQ      -0.078400
     16 C15        -2.8050    2.8840    9.5900 c3        1 HQ      -0.079400
     17 C16        -3.1730    4.2950    9.9930 c3        1 HQ      -0.080400
     18 C17        -3.8490    4.3280   11.3400 c3        1 HQ      -0.092100
     19 O1         -1.9090    0.3550    3.5990 o         1 HQ      -0.304000
     20 H8         -0.5570    0.3890   -0.9990 ha        1 HQ       0.142000
     21 H7          1.8970   -0.0190   -1.0560 ha        1 HQ       0.141000
     22 H6          3.1650   -0.3520    1.0830 ha        1 HQ       0.157000
     23 H9         -1.7790    0.4700    1.1800 ha        1 HQ       0.173000
     24 H3          1.9110   -0.4040    5.7310 ha        1 HQ       0.152000
     25 HO4         3.7950   -0.6420    4.3970 ho        1 HQ       0.424000
     26 H111       -0.0660   -0.4610    6.8710 hc        1 HQ       0.061200
     27 H112       -1.6580   -0.6120    6.0130 hc        1 HQ       0.061200
     28 H121       -0.1590    2.0560    6.5100 hc        1 HQ       0.053700
     29 H122       -1.7690    1.8540    5.7060 hc        1 HQ       0.053700
     30 H131       -2.6840    0.8090    7.8030 hc        1 HQ       0.039200
     31 H132       -1.0780    0.9990    8.6080 hc        1 HQ       0.039200
     32 H141       -2.8100    3.3000    7.4650 hc        1 HQ       0.041200
     33 H142       -1.2040    3.4920    8.2660 hc        1 HQ       0.041200
     34 H151       -2.1230    2.4380   10.3620 hc        1 HQ       0.039200
     35 H152       -3.7300    2.2490    9.5600 hc        1 HQ       0.039200
     36 H161       -2.2480    4.9300   10.0200 hc        1 HQ       0.038700
     37 H162       -3.8540    4.7390    9.2190 hc        1 HQ       0.038700
     38 H171       -4.7870    3.7220   11.3250 hc        1 HQ       0.032367
     39 H172       -4.1110    5.3770   11.6180 hc        1 HQ       0.032367
     40 H173       -3.1760    3.9120   12.1290 hc        1 HQ       0.032367
@<TRIPOS>BOND
     1    1    2 ar  
     2    1    6 ar  
     3    1   20 1   
     4    2    3 ar  
     5    2   21 1   
     6    3    4 ar  
     7    3   22 1   
     8    4    5 ar  
     9    4    7 ar  
    10    5    6 ar  
    11    5   10 2   
    12    6   23 1   
    13    7    8 ar  
    14    7   11 1   
    15    8    9 ar  
    16    8   24 1   
    17    9   10 1   
    18    9   12 1   
    19   10   19 1   
    20   11   25 1   
    21   12   13 1   
    22   12   26 1   
    23   12   27 1   
    24   13   14 1   
    25   13   28 1   
    26   13   29 1   
    27   14   15 1   
    28   14   30 1   
    29   14   31 1   
    30   15   16 1   
    31   15   32 1   
    32   15   33 1   
    33   16   17 1   
    34   16   34 1   
    35   16   35 1   
    36   17   18 1   
    37   17   36 1   
    38   17   37 1   
    39   18   38 1   
    40   18   39 1   
    41   18   40 1   
@<TRIPOS>SUBSTRUCTURE
     1 HQ          1 TEMP              0 ****  ****    0 ROOT
