@<TRIPOS>MOLECULE
HQ
   40    41     1     0     0
SMALL
bcc


@<TRIPOS>ATOM
      1 C8         -0.0130    0.2480   -0.0530 ca        1 HQ      -0.124000
      2 C7          1.3780    0.0110   -0.0850 ca        1 HQ      -0.118000
      3 C6          2.0760   -0.1770    1.0860 ca        1 HQ      -0.103000
      4 C5          1.4100   -0.1350    2.3360 ca        1 HQ      -0.025000
      5 C10         0.0120    0.1040    2.3680 ca        1 HQ      -0.078300
      6 C9         -0.6910    0.2960    1.1420 ca        1 HQ      -0.091000
      7 C4          2.0960   -0.3260    3.5780 ca        1 HQ       0.109100
      8 C3          1.4010   -0.2760    4.7640 ca        1 HQ      -0.193000
      9 C2         -0.0000   -0.0370    4.7730 ca        1 HQ      -0.140600
     10 N1         -0.7010    0.1550    3.6060 na        1 HQ       0.229600
     11 O4          3.4500   -0.5530    3.4960 oh        1 HQ      -0.490100
     12 C11        -0.7250    0.0020    6.0840 c3        1 HQ      -0.015100
     13 C12        -1.0830    1.4210    6.4810 c3        1 HQ      -0.082400
     14 C13        -1.7600    1.4460    7.8350 c3        1 HQ      -0.077400
     15 C14        -2.1240    2.8590    8.2370 c3        1 HQ      -0.078400
     16 C15        -2.8020    2.8880    9.5900 c3        1 HQ      -0.079400
     17 C16        -3.1660    4.3010    9.9940 c3        1 HQ      -0.080400
     18 C17        -3.8410    4.3340   11.3410 c3        1 HQ      -0.092100
     19 O1         -1.9120    0.3630    3.5970 o         1 HQ      -0.304000
     20 H8         -0.5550    0.3960   -1.0000 ha        1 HQ       0.142000
     21 H7          1.8970   -0.0220   -1.0550 ha        1 HQ       0.141000
     22 H6          3.1620   -0.3640    1.0840 ha        1 HQ       0.157000
     23 H9         -1.7780    0.4810    1.1780 ha        1 HQ       0.173000
     24 H3          1.9030   -0.4170    5.7310 ha        1 HQ       0.152000
     25 HO4         3.7870   -0.6620    4.3980 ho        1 HQ       0.424000
     26 H111       -0.0740   -0.4650    6.8700 hc        1 HQ       0.061200
     27 H112       -1.6670   -0.6090    6.0110 hc        1 HQ       0.061200
     28 H121       -0.1570    2.0530    6.5110 hc        1 HQ       0.053700
     29 H122       -1.7670    1.8580    5.7060 hc        1 HQ       0.053700
     30 H131       -2.6880    0.8140    7.8020 hc        1 HQ       0.039200
     31 H132       -1.0810    0.9980    8.6070 hc        1 HQ       0.039200
     32 H141       -2.8050    3.3050    7.4650 hc        1 HQ       0.041200
     33 H142       -1.1980    3.4920    8.2670 hc        1 HQ       0.041200
     34 H151       -2.1220    2.4400   10.3620 hc        1 HQ       0.039200
     35 H152       -3.7280    2.2560    9.5600 hc        1 HQ       0.039200
     36 H161       -2.2380    4.9320   10.0220 hc        1 HQ       0.038700
     37 H162       -3.8450    4.7470    9.2200 hc        1 HQ       0.038700
     38 H171       -4.7800    3.7310   11.3260 hc        1 HQ       0.032367
     39 H172       -4.1000    5.3840   11.6190 hc        1 HQ       0.032367
     40 H173       -3.1700    3.9160   12.1290 hc        1 HQ       0.032367
@<TRIPOS>BOND
     1    1    2 ar  
     2    1    6 ar  
     3    1   20 1   
     4    2    3 ar  
     5    2   21 1   
     6    3    4 ar  
     7    3   22 1   
     8    4    5 ar  
     9    4    7 ar  
    10    5    6 ar  
    11    5   10 2   
    12    6   23 1   
    13    7    8 ar  
    14    7   11 1   
    15    8    9 ar  
    16    8   24 1   
    17    9   10 1   
    18    9   12 1   
    19   10   19 1   
    20   11   25 1   
    21   12   13 1   
    22   12   26 1   
    23   12   27 1   
    24   13   14 1   
    25   13   28 1   
    26   13   29 1   
    27   14   15 1   
    28   14   30 1   
    29   14   31 1   
    30   15   16 1   
    31   15   32 1   
    32   15   33 1   
    33   16   17 1   
    34   16   34 1   
    35   16   35 1   
    36   17   18 1   
    37   17   36 1   
    38   17   37 1   
    39   18   38 1   
    40   18   39 1   
    41   18   40 1   
@<TRIPOS>SUBSTRUCTURE
     1 HQ          1 TEMP              0 ****  ****    0 ROOT
