@<TRIPOS>MOLECULE
HQ
   40    41     1     0     0
SMALL
bcc


@<TRIPOS>ATOM
      1 C8         -4.5190    1.8110   -0.9280 ca        1 HQ      -0.132000
      2 C7         -5.1980    0.5740   -0.9870 ca        1 HQ      -0.102000
      3 C6         -4.5760   -0.5800   -0.5760 ca        1 HQ      -0.135000
      4 C5         -3.2450   -0.5580   -0.0830 ca        1 HQ      -0.052000
      5 C10        -2.5600    0.6860   -0.0380 ca        1 HQ      -0.081300
      6 C9         -3.2270    1.8740   -0.4670 ca        1 HQ      -0.080000
      7 C4         -2.5570   -1.7260    0.3700 ca        1 HQ       0.090100
      8 C3         -1.2550   -1.6310    0.8150 ca        1 HQ      -0.125000
      9 C2         -0.5850   -0.3820    0.8340 ca        1 HQ      -0.145600
     10 N1         -1.2120    0.7730    0.4230 na        1 HQ       0.230600
     11 O4         -3.1160   -2.9840    0.3480 oh        1 HQ      -0.491100
     12 C11         0.8300   -0.3180    1.3230 c3        1 HQ      -0.016100
     13 C12         1.8080   -0.1340    0.1780 c3        1 HQ      -0.082400
     14 C13         3.2340   -0.1330    0.6850 c3        1 HQ      -0.077400
     15 C14         4.2160    0.0530   -0.4520 c3        1 HQ      -0.078400
     16 C15         5.6440    0.0550    0.0510 c3        1 HQ      -0.079400
     17 C16         6.6280    0.2410   -1.0850 c3        1 HQ      -0.080400
     18 C17         8.0510    0.2440   -0.5890 c3        1 HQ      -0.092100
     19 O1         -0.6510    1.8650    0.4460 o         1 HQ      -0.301000
     20 H8         -5.0350    2.7250   -1.2590 ha        1 HQ       0.145000
     21 H7         -6.2300    0.5450   -1.3700 ha        1 HQ       0.141000
     22 H6         -5.1080   -1.5410   -0.6410 ha        1 HQ       0.133000
     23 H9         -2.6810    2.8330   -0.4200 ha        1 HQ       0.175000
     24 H3         -0.7140   -2.5260    1.1550 ha        1 HQ       0.169000
     25 HO4        -4.0790   -2.8870    0.3790 ho        1 HQ       0.421000
     26 H111        1.0620   -1.2660    1.8770 hc        1 HQ       0.063200
     27 H112        0.9410    0.5380    2.0440 hc        1 HQ       0.063200
     28 H121        1.5880    0.8370   -0.3410 hc        1 HQ       0.054200
     29 H122        1.6740   -0.9570   -0.5720 hc        1 HQ       0.054200
     30 H131        3.4490   -1.0990    1.2130 hc        1 HQ       0.039200
     31 H132        3.3660    0.6910    1.4350 hc        1 HQ       0.039200
     32 H141        4.0010    1.0200   -0.9790 hc        1 HQ       0.041200
     33 H142        4.0830   -0.7690   -1.2030 hc        1 HQ       0.041200
     34 H151        5.8590   -0.9120    0.5780 hc        1 HQ       0.039200
     35 H152        5.7770    0.8780    0.8020 hc        1 HQ       0.039200
     36 H161        6.4100    1.2080   -1.6120 hc        1 HQ       0.038700
     37 H162        6.4910   -0.5810   -1.8360 hc        1 HQ       0.038700
     38 H171        8.2120    1.0730    0.1420 hc        1 HQ       0.032033
     39 H172        8.2930   -0.7220   -0.0830 hc        1 HQ       0.032033
     40 H173        8.7580    0.3820   -1.4420 hc        1 HQ       0.032033
@<TRIPOS>BOND
     1    1    2 ar  
     2    1    6 ar  
     3    1   20 1   
     4    2    3 ar  
     5    2   21 1   
     6    3    4 ar  
     7    3   22 1   
     8    4    5 ar  
     9    4    7 ar  
    10    5    6 ar  
    11    5   10 2   
    12    6   23 1   
    13    7    8 ar  
    14    7   11 1   
    15    8    9 ar  
    16    8   24 1   
    17    9   10 1   
    18    9   12 1   
    19   10   19 1   
    20   11   25 1   
    21   12   13 1   
    22   12   26 1   
    23   12   27 1   
    24   13   14 1   
    25   13   28 1   
    26   13   29 1   
    27   14   15 1   
    28   14   30 1   
    29   14   31 1   
    30   15   16 1   
    31   15   32 1   
    32   15   33 1   
    33   16   17 1   
    34   16   34 1   
    35   16   35 1   
    36   17   18 1   
    37   17   36 1   
    38   17   37 1   
    39   18   38 1   
    40   18   39 1   
    41   18   40 1   
@<TRIPOS>SUBSTRUCTURE
     1 HQ          1 TEMP              0 ****  ****    0 ROOT
