@<TRIPOS>MOLECULE
HQ2
   34    36     1     0     0
SMALL
bcc


@<TRIPOS>ATOM
      1 NAA         0.0350    0.0180    0.1640 nb        1 HQ2     -0.693000
      2 NAB        -0.8620   -0.1220   -3.4570 nh        1 HQ2     -0.617000
      3 NAC        -2.7080   -0.8460   -5.5750 n3        1 HQ2     -0.820200
      4 CAD         3.5820    0.1600    1.2260 ca        1 HQ2     -0.169000
      5 CAE         4.2290    0.1090   -0.0220 ca        1 HQ2     -0.096000
      6 CAF         3.5220    0.0190   -1.2060 ca        1 HQ2     -0.126600
      7 CAG         2.1020   -0.0040   -1.1640 ca        1 HQ2     -0.077300
      8 CAH         1.4130    0.0470    0.0910 ca        1 HQ2      0.306600
      9 CAI         2.2000    0.1280    1.2900 ca        1 HQ2      0.048800
     10 CAJ         1.3150   -0.0740   -2.3480 ca        1 HQ2     -0.077000
     11 CAK        -0.0720   -0.1130   -2.2740 ca        1 HQ2     -0.040700
     12 CAL        -0.6580   -0.0660   -0.9530 ca        1 HQ2      0.376200
     13 CAM         4.3200   -0.0520   -2.5060 c         1 HQ2      0.912200
     14 CAN        -0.5360   -1.1990   -4.3850 c3        1 HQ2      0.179800
     15 CAO        -1.2790   -1.0510   -5.7280 c3        1 HQ2      0.157800
     16 CAP        -3.0400    0.1840   -4.6110 c3        1 HQ2      0.157800
     17 CAQ        -2.2940    0.0280   -3.2680 c3        1 HQ2      0.179800
     18 OAR         1.6420    0.1760    2.5520 oh        1 HQ2     -0.522100
     19 OAS         3.8500   -0.7020   -3.4840 o         1 HQ2     -0.827300
     20 OAT         5.4380    0.5330   -2.5250 o         1 HQ2     -0.827300
     21 HNAC       -3.1110   -0.6150   -6.4650 hn        1 HQ2      0.350800
     22 HAD         4.1670    0.2260    2.1530 ha        1 HQ2      0.129000
     23 HAE         5.3300    0.1530   -0.0680 ha        1 HQ2      0.155000
     24 HAJ         1.8610   -0.1110   -3.3130 ha        1 HQ2      0.207000
     25 HAL        -1.7540   -0.0950   -0.8230 h4        1 HQ2     -0.000900
     26 HAN        -0.7830   -2.2080   -3.9450 h1        1 HQ2      0.046200
     27 HANA        0.5700   -1.1700   -4.5940 h1        1 HQ2      0.046200
     28 HAO        -0.7910   -0.2180   -6.3120 h1        1 HQ2      0.030200
     29 HAOA       -1.1360   -2.0070   -6.3060 h1        1 HQ2      0.030200
     30 HAP        -4.1440    0.1080   -4.4010 h1        1 HQ2      0.030200
     31 HAPA       -2.8370    1.2220   -5.0080 h1        1 HQ2      0.030200
     32 HAQ        -2.7430   -0.8460   -2.7110 h1        1 HQ2      0.046200
     33 HAQA       -2.4760    0.9610   -2.6660 h1        1 HQ2      0.046200
     34 HOAR        0.6800    0.1530    2.4640 ho        1 HQ2      0.428000
@<TRIPOS>BOND
     1    1    8 ar  
     2    1   12 ar  
     3    2   11 1   
     4    2   14 1   
     5    2   17 1   
     6    3   15 1   
     7    3   16 1   
     8    3   21 1   
     9    4    5 ar  
    10    4    9 ar  
    11    4   22 1   
    12    5    6 ar  
    13    5   23 1   
    14    6    7 ar  
    15    6   13 1   
    16    7    8 ar  
    17    7   10 ar  
    18    8    9 ar  
    19    9   18 1   
    20   10   11 ar  
    21   10   24 1   
    22   11   12 ar  
    23   12   25 1   
    24   13   19 1   
    25   13   20 1   
    26   14   15 1   
    27   14   26 1   
    28   14   27 1   
    29   15   28 1   
    30   15   29 1   
    31   16   17 1   
    32   16   30 1   
    33   16   31 1   
    34   17   32 1   
    35   17   33 1   
    36   18   34 1   
@<TRIPOS>SUBSTRUCTURE
     1 HQ2         1 TEMP              0 ****  ****    0 ROOT
