@<TRIPOS>MOLECULE
HQ2
   34    36     1     0     0
SMALL
bcc


@<TRIPOS>ATOM
      1 NAA         0.0350    0.0290    0.1630 nb        1 HQ2     -0.693000
      2 NAB        -0.8620   -0.1260   -3.4570 nh        1 HQ2     -0.617000
      3 NAC        -2.7080   -0.8600   -5.5720 n3        1 HQ2     -0.820200
      4 CAD         3.5830    0.1750    1.2240 ca        1 HQ2     -0.169000
      5 CAE         4.2290    0.1180   -0.0240 ca        1 HQ2     -0.096000
      6 CAF         3.5220    0.0240   -1.2080 ca        1 HQ2     -0.126600
      7 CAG         2.1020    0.0010   -1.1650 ca        1 HQ2     -0.077300
      8 CAH         1.4140    0.0580    0.0900 ca        1 HQ2      0.306600
      9 CAI         2.2010    0.1440    1.2880 ca        1 HQ2      0.048800
     10 CAJ         1.3150   -0.0740   -2.3490 ca        1 HQ2     -0.077000
     11 CAK        -0.0720   -0.1130   -2.2740 ca        1 HQ2     -0.040700
     12 CAL        -0.6570   -0.0590   -0.9540 ca        1 HQ2      0.376200
     13 CAM         4.3200   -0.0540   -2.5070 c         1 HQ2      0.912200
     14 CAN        -0.5360   -1.2070   -4.3810 c3        1 HQ2      0.179800
     15 CAO        -1.2800   -1.0650   -5.7240 c3        1 HQ2      0.157800
     16 CAP        -3.0410    0.1740   -4.6110 c3        1 HQ2      0.157800
     17 CAQ        -2.2940    0.0230   -3.2680 c3        1 HQ2      0.179800
     18 OAR         1.6430    0.1980    2.5500 oh        1 HQ2     -0.522100
     19 OAS         3.8500   -0.7070   -3.4820 o         1 HQ2     -0.827300
     20 OAT         5.4380    0.5300   -2.5290 o         1 HQ2     -0.827300
     21 HNAC       -3.1120   -0.6320   -6.4620 hn        1 HQ2      0.350800
     22 HAD         4.1680    0.2460    2.1500 ha        1 HQ2      0.129000
     23 HAE         5.3300    0.1620   -0.0700 ha        1 HQ2      0.155000
     24 HAJ         1.8600   -0.1150   -3.3140 ha        1 HQ2      0.207000
     25 HAL        -1.7540   -0.0880   -0.8230 h4        1 HQ2     -0.000900
     26 HAN        -0.7830   -2.2140   -3.9370 h1        1 HQ2      0.046200
     27 HANA        0.5700   -1.1780   -4.5900 h1        1 HQ2      0.046200
     28 HAO        -0.7930   -0.2330   -6.3120 h1        1 HQ2      0.030200
     29 HAOA       -1.1360   -2.0220   -6.2980 h1        1 HQ2      0.030200
     30 HAP        -2.8390    1.2100   -5.0120 h1        1 HQ2      0.030200
     31 HAPA       -4.1450    0.0970   -4.4010 h1        1 HQ2      0.030200
     32 HAQ        -2.7420   -0.8490   -2.7080 h1        1 HQ2      0.046200
     33 HAQA       -2.4770    0.9580   -2.6700 h1        1 HQ2      0.046200
     34 HOAR        0.6810    0.1740    2.4630 ho        1 HQ2      0.428000
@<TRIPOS>BOND
     1    1    8 ar  
     2    1   12 ar  
     3    2   11 1   
     4    2   14 1   
     5    2   17 1   
     6    3   15 1   
     7    3   16 1   
     8    3   21 1   
     9    4    5 ar  
    10    4    9 ar  
    11    4   22 1   
    12    5    6 ar  
    13    5   23 1   
    14    6    7 ar  
    15    6   13 1   
    16    7    8 ar  
    17    7   10 ar  
    18    8    9 ar  
    19    9   18 1   
    20   10   11 ar  
    21   10   24 1   
    22   11   12 ar  
    23   12   25 1   
    24   13   19 1   
    25   13   20 1   
    26   14   15 1   
    27   14   26 1   
    28   14   27 1   
    29   15   28 1   
    30   15   29 1   
    31   16   17 1   
    32   16   30 1   
    33   16   31 1   
    34   17   32 1   
    35   17   33 1   
    36   18   34 1   
@<TRIPOS>SUBSTRUCTURE
     1 HQ2         1 TEMP              0 ****  ****    0 ROOT
