@<TRIPOS>MOLECULE
HQ2
   34    32     1     0     0
SMALL
bcc


@<TRIPOS>ATOM
      1 NAA        -0.8950   -0.4930    2.0610 n1        1 HQ2     -0.168000
      2 NAB        -0.5350    0.7800   -1.0700 n3        1 HQ2     -0.205000
      3 NAC        -2.7830    1.1060   -2.7930 n3        1 HQ2     -0.297000
      4 CAD         2.5570   -0.7020    3.3630 c1        1 HQ2     -0.170000
      5 CAE         3.2830   -0.7400    2.1710 c1        1 HQ2     -0.094000
      6 CAF         2.6160   -0.7260    0.9490 c1        1 HQ2     -0.108000
      7 CAG         1.2040   -0.6740    0.9140 c2        1 HQ2     -0.011000
      8 CAH         0.4870   -0.6360    2.0920 c2        1 HQ2     -0.089000
      9 CAI         1.1640   -0.6500    3.3310 c2        1 HQ2      0.070000
     10 CAJ         0.5420   -0.5690   -0.3040 c1        1 HQ2     -0.080000
     11 CAK        -0.8230   -0.4270   -0.3330 c1        1 HQ2     -0.067000
     12 CAL        -1.5470   -0.3890    0.8610 c1        1 HQ2     -0.091000
     13 CAM         3.4600   -1.6710    0.1010 c1        1 HQ2      0.360000
     14 CAN        -0.4370    0.4780   -2.4630 c3        1 HQ2     -0.060500
     15 CAO        -1.7850    0.1260   -3.0750 c3        1 HQ2     -0.112000
     16 CAP        -2.8810    1.4090   -1.4010 c3        1 HQ2     -0.112000
     17 CAQ        -1.5330    1.7610   -0.7880 c3        1 HQ2     -0.060500
     18 OAR         0.6860   -0.3050    4.6150 oh        1 HQ2     -0.276000
     19 OAS         3.1970   -2.9060    0.0820 o         1 HQ2     -0.561000
     20 OAT         4.4330   -1.2220   -0.5660 o         1 HQ2     -0.561000
     21 HNAC       -3.5970    0.8120   -3.1000 hn        1 HQ2      0.146000
     22 HAD         3.0280   -0.7040    4.2240 ha        1 HQ2      0.129000
     23 HAE         4.2630   -0.7770    2.1950 ha        1 HQ2      0.157000
     24 HAJ         1.0420   -0.6640   -1.1420 ha        1 HQ2      0.213000
     25 HAL        -2.5290   -0.3560    0.8380 ha        1 HQ2      0.135000
     26 HAN         0.1740   -0.2820   -2.5810 h1        1 HQ2      0.102250
     27 HANA       -0.0680    1.2600   -2.9330 h1        1 HQ2      0.102250
     28 HAO        -1.6810    0.0480   -4.0510 h1        1 HQ2      0.069000
     29 HAOA       -2.0800   -0.7410   -2.7160 h1        1 HQ2      0.069000
     30 HAP        -3.4940    2.1710   -1.2820 h1        1 HQ2      0.069000
     31 HAPA       -3.2490    0.6290   -0.9310 h1        1 HQ2      0.069000
     32 HAQ        -1.6380    1.8390    0.1870 h1        1 HQ2      0.102250
     33 HAQA       -1.2380    2.6290   -1.1470 h1        1 HQ2      0.102250
     34 HOAR        0.6580    0.5830    4.6930 ho        1 HQ2      0.226000
@<TRIPOS>BOND
     1    1    8 1   
     2    2   11 1   
     3    2   14 1   
     4    2   17 1   
     5    3   15 1   
     6    3   16 1   
     7    3   21 1   
     8    4    9 1   
     9    4   22 1   
    10    5    6 1   
    11    5   23 1   
    12    6    7 1   
    13    7    8 1   
    14    7   10 1   
    15    8    9 1   
    16    9   18 1   
    17   10   24 1   
    18   11   12 1   
    19   12   25 1   
    20   13   19 1   
    21   13   20 1   
    22   14   15 1   
    23   14   26 1   
    24   14   27 1   
    25   15   28 1   
    26   15   29 1   
    27   16   17 1   
    28   16   30 1   
    29   16   31 1   
    30   17   32 1   
    31   17   33 1   
    32   18   34 1   
@<TRIPOS>SUBSTRUCTURE
     1 HQ2         1 TEMP              0 ****  ****    0 ROOT
