@<TRIPOS>MOLECULE
HQ2
   34    36     1     0     0
SMALL
bcc


@<TRIPOS>ATOM
      1 NAA         0.0360    0.0240    0.1640 nb        1 HQ2     -0.693000
      2 NAB        -0.8620   -0.1230   -3.4560 nh        1 HQ2     -0.617000
      3 NAC        -2.7090   -0.8510   -5.5720 n7        1 HQ2     -0.820200
      4 CAD         3.5840    0.1660    1.2240 ca        1 HQ2     -0.169000
      5 CAE         4.2300    0.1110   -0.0250 ca        1 HQ2     -0.096000
      6 CAF         3.5230    0.0190   -1.2080 ca        1 HQ2     -0.126600
      7 CAG         2.1020   -0.0030   -1.1650 ca        1 HQ2     -0.077300
      8 CAH         1.4140    0.0520    0.0900 ca        1 HQ2      0.306600
      9 CAI         2.2020    0.1350    1.2880 ca        1 HQ2      0.048800
     10 CAJ         1.3150   -0.0740   -2.3490 ca        1 HQ2     -0.077000
     11 CAK        -0.0720   -0.1120   -2.2740 ca        1 HQ2     -0.040700
     12 CAL        -0.6570   -0.0620   -0.9530 ca        1 HQ2      0.376200
     13 CAM         4.3200   -0.0560   -2.5080 c         1 HQ2      0.912200
     14 CAN        -0.5370   -1.2010   -4.3830 c3        1 HQ2      0.179800
     15 CAO        -1.2810   -1.0570   -5.7250 c3        1 HQ2      0.157800
     16 CAP        -3.0420    0.1800   -4.6090 c3        1 HQ2      0.157800
     17 CAQ        -2.2940    0.0260   -3.2670 c3        1 HQ2      0.179800
     18 OAR         1.6450    0.1870    2.5510 oh        1 HQ2     -0.522100
     19 OAS         3.8490   -0.7070   -3.4850 o         1 HQ2     -0.827300
     20 OAT         5.4390    0.5280   -2.5280 o         1 HQ2     -0.827300
     21 HNAC       -3.1140   -0.6220   -6.4620 hn        1 HQ2      0.350800
     22 HAD         4.1700    0.2340    2.1500 ha        1 HQ2      0.129000
     23 HAE         5.3310    0.1540   -0.0710 ha        1 HQ2      0.155000
     24 HAJ         1.8600   -0.1140   -3.3140 ha        1 HQ2      0.207000
     25 HAL        -1.7540   -0.0900   -0.8220 h4        1 HQ2     -0.000900
     26 HAN         0.5690   -1.1730   -4.5930 h1        1 HQ2      0.046200
     27 HANA       -0.7840   -2.2100   -3.9410 h1        1 HQ2      0.046200
     28 HAO        -1.1380   -2.0130   -6.3020 h1        1 HQ2      0.030200
     29 HAOA       -0.7940   -0.2240   -6.3120 h1        1 HQ2      0.030200
     30 HAP        -4.1450    0.1030   -4.3990 h1        1 HQ2      0.030200
     31 HAPA       -2.8390    1.2170   -5.0080 h1        1 HQ2      0.030200
     32 HAQ        -2.4760    0.9600   -2.6660 h1        1 HQ2      0.046200
     33 HAQA       -2.7430   -0.8470   -2.7080 h1        1 HQ2      0.046200
     34 HOAR        0.6820    0.1640    2.4630 ho        1 HQ2      0.428000
@<TRIPOS>BOND
     1    1    8 ar  
     2    1   12 ar  
     3    2   11 1   
     4    2   14 1   
     5    2   17 1   
     6    3   15 1   
     7    3   16 1   
     8    3   21 1   
     9    4    5 ar  
    10    4    9 ar  
    11    4   22 1   
    12    5    6 ar  
    13    5   23 1   
    14    6    7 ar  
    15    6   13 1   
    16    7    8 ar  
    17    7   10 ar  
    18    8    9 ar  
    19    9   18 1   
    20   10   11 ar  
    21   10   24 1   
    22   11   12 ar  
    23   12   25 1   
    24   13   19 1   
    25   13   20 1   
    26   14   15 1   
    27   14   26 1   
    28   14   27 1   
    29   15   28 1   
    30   15   29 1   
    31   16   17 1   
    32   16   30 1   
    33   16   31 1   
    34   17   32 1   
    35   17   33 1   
    36   18   34 1   
@<TRIPOS>SUBSTRUCTURE
     1 HQ2         1 TEMP              0 ****  ****    0 ROOT
