@<TRIPOS>MOLECULE
HQ2
   34    36     1     0     0
SMALL
bcc


@<TRIPOS>ATOM
      1 NAA         0.5490   -2.3330    0.0160 nb        1 HQ2     -0.693000
      2 NAB        -2.4280   -0.0910    0.2200 nh        1 HQ2     -0.617000
      3 NAC        -5.2440    0.4180   -0.2610 n3        1 HQ2     -0.820200
      4 CAD         3.9740   -0.9210   -0.0410 ca        1 HQ2     -0.169000
      5 CAE         3.6880    0.4560   -0.0040 ca        1 HQ2     -0.096000
      6 CAF         2.3910    0.9300    0.0310 ca        1 HQ2     -0.126600
      7 CAG         1.3150    0.0010    0.0480 ca        1 HQ2     -0.077300
      8 CAH         1.5730   -1.4070    0.0100 ca        1 HQ2      0.306600
      9 CAI         2.9420   -1.8420   -0.0370 ca        1 HQ2      0.048800
     10 CAJ        -0.0430    0.4240    0.1050 ca        1 HQ2     -0.077000
     11 CAK        -1.0730   -0.5070    0.1020 ca        1 HQ2     -0.040700
     12 CAL        -0.6950   -1.9020    0.0520 ca        1 HQ2      0.376200
     13 CAM         2.1880    2.4430    0.0490 c         1 HQ2      0.912200
     14 CAN        -2.8430    0.8850   -0.7810 c3        1 HQ2      0.179800
     15 CAO        -4.2490    1.4480   -0.4950 c3        1 HQ2      0.157800
     16 CAP        -4.8160   -0.5890    0.6900 c3        1 HQ2      0.157800
     17 CAQ        -3.4080   -1.1480    0.3940 c3        1 HQ2      0.179800
     18 OAR         3.3050   -3.1730   -0.0810 oh        1 HQ2     -0.522100
     19 OAS         1.1590    2.9350   -0.4980 o         1 HQ2     -0.827300
     20 OAT         3.0880    3.1360    0.5990 o         1 HQ2     -0.827300
     21 HNAC       -6.0970    0.8400    0.0580 hn        1 HQ2      0.350800
     22 HAD         5.0150   -1.2720   -0.0730 ha        1 HQ2      0.129000
     23 HAE         4.5160    1.1850    0.0110 ha        1 HQ2      0.155000
     24 HAJ        -0.2290    1.5170    0.1360 ha        1 HQ2      0.207000
     25 HAL        -1.4650   -2.6940    0.0440 h4        1 HQ2     -0.000900
     26 HAN        -2.1150    1.7450   -0.7670 h1        1 HQ2      0.046200
     27 HANA       -2.8370    0.4380   -1.8170 h1        1 HQ2      0.046200
     28 HAO        -4.5760    2.0330   -1.4000 h1        1 HQ2      0.030200
     29 HAOA       -4.1730    2.1670    0.3720 h1        1 HQ2      0.030200
     30 HAP        -4.8270   -0.2040    1.7510 h1        1 HQ2      0.030200
     31 HAPA       -5.5450   -1.4450    0.6280 h1        1 HQ2      0.030200
     32 HAQ        -3.4740   -1.8200   -0.5110 h1        1 HQ2      0.046200
     33 HAQA       -3.0980   -1.7750    1.2760 h1        1 HQ2      0.046200
     34 HOAR        2.5030   -3.7120   -0.0680 ho        1 HQ2      0.428000
@<TRIPOS>BOND
     1    1    8 ar  
     2    1   12 ar  
     3    2   11 1   
     4    2   14 1   
     5    2   17 1   
     6    3   15 1   
     7    3   16 1   
     8    3   21 1   
     9    4    5 ar  
    10    4    9 ar  
    11    4   22 1   
    12    5    6 ar  
    13    5   23 1   
    14    6    7 ar  
    15    6   13 1   
    16    7    8 ar  
    17    7   10 ar  
    18    8    9 ar  
    19    9   18 1   
    20   10   11 ar  
    21   10   24 1   
    22   11   12 ar  
    23   12   25 1   
    24   13   19 1   
    25   13   20 1   
    26   14   15 1   
    27   14   26 1   
    28   14   27 1   
    29   15   28 1   
    30   15   29 1   
    31   16   17 1   
    32   16   30 1   
    33   16   31 1   
    34   17   32 1   
    35   17   33 1   
    36   18   34 1   
@<TRIPOS>SUBSTRUCTURE
     1 HQ2         1 TEMP              0 ****  ****    0 ROOT
