@<TRIPOS>MOLECULE
HQ6
   34    34     1     0     0
SMALL
bcc


@<TRIPOS>ATOM
      1 O9          2.9850   -0.0900    1.7770 o         1 HQ6     -0.614100
      2 C9          3.2580   -0.3330    0.5850 c         1 HQ6      0.674100
      3 C10         4.6680   -0.6530    0.1480 c3        1 HQ6     -0.173100
      4 N2          2.2860   -0.3370   -0.3980 n         1 HQ6     -0.544900
      5 C5          0.9110   -0.0140   -0.1330 c3        1 HQ6      0.124700
      6 C6          0.3890    1.2190   -0.9360 c3        1 HQ6      0.118100
      7 O6          1.4860    2.0370   -1.3230 oh        1 HQ6     -0.590800
      8 C4         -0.0600   -1.1900   -0.4630 c3        1 HQ6      0.134100
      9 O4          0.5610   -2.4170   -0.1080 oh        1 HQ6     -0.589800
     10 C3         -1.3790   -1.0710    0.3290 c3        1 HQ6      0.102100
     11 O3         -2.1220   -2.2290   -0.0440 oh        1 HQ6     -0.614800
     12 C2         -2.1790    0.2080   -0.0310 c3        1 HQ6      0.157500
     13 C8         -3.6560   -0.0080    0.3610 c3        1 HQ6      0.114400
     14 O8         -4.3590    1.1780    0.0270 oh        1 HQ6     -0.607800
     15 N1         -1.5900    1.3580    0.6400 n3        1 HQ6     -0.822200
     16 C7         -0.5870    2.0770   -0.1060 c3        1 HQ6      0.135800
     17 H101        5.3370   -0.6080    1.0410 hc        1 HQ6      0.064367
     18 H102        4.7160   -1.6790   -0.2910 hc        1 HQ6      0.064367
     19 H103        5.0210    0.0870   -0.6100 hc        1 HQ6      0.064367
     20 H2          2.5490   -0.4590   -1.3440 hn        1 HQ6      0.310500
     21 H5          0.8280    0.2130    0.9740 h1        1 HQ6      0.118700
     22 H6         -0.1270    0.8670   -1.8760 h1        1 HQ6      0.030700
     23 H4         -0.2910   -1.2090   -1.5660 h1        1 HQ6      0.037700
     24 HA          1.1120    2.8340   -1.7180 ho        1 HQ6      0.404000
     25 H71C        0.0180    2.6550    0.6530 h1        1 HQ6      0.041700
     26 H72C       -1.0430    2.8270   -0.8200 h1        1 HQ6      0.041700
     27 HB         -0.0910   -3.1110   -0.2760 ho        1 HQ6      0.416000
     28 H3         -1.1520   -1.0970    1.4310 h1        1 HQ6      0.075700
     29 HC         -2.6910   -2.4510    0.7010 ho        1 HQ6      0.408000
     30 HD         -2.1610    0.3250   -1.1570 h1        1 HQ6      0.049700
     31 H81C       -4.0690   -0.8720   -0.2240 h1        1 HQ6      0.036700
     32 H82C       -3.7490   -0.2180    1.4600 h1        1 HQ6      0.036700
     33 H1         -2.3100    1.9930    0.9350 hn        1 HQ6      0.388800
     34 H8         -5.2780    1.0340    0.2820 ho        1 HQ6      0.409000
@<TRIPOS>BOND
     1    1    2 2   
     2    2    3 1   
     3    2    4 1   
     4    3   17 1   
     5    3   18 1   
     6    3   19 1   
     7    4    5 1   
     8    4   20 1   
     9    5    6 1   
    10    5    8 1   
    11    5   21 1   
    12    6    7 1   
    13    6   16 1   
    14    6   22 1   
    15    7   24 1   
    16    8    9 1   
    17    8   10 1   
    18    8   23 1   
    19    9   27 1   
    20   10   11 1   
    21   10   12 1   
    22   10   28 1   
    23   11   29 1   
    24   12   13 1   
    25   12   15 1   
    26   12   30 1   
    27   13   14 1   
    28   13   31 1   
    29   13   32 1   
    30   14   34 1   
    31   15   16 1   
    32   15   33 1   
    33   16   25 1   
    34   16   26 1   
@<TRIPOS>SUBSTRUCTURE
     1 HQ6         1 TEMP              0 ****  ****    0 ROOT
