@<TRIPOS>MOLECULE
HQ6
   35    35     1     0     0
SMALL
bcc


@<TRIPOS>ATOM
      1 O9          0.1910   -1.2540   -0.0330 o         1 HQ6     -0.412100
      2 C9          1.1030   -0.4510    0.0710 c         1 HQ6      0.571100
      3 C10         1.3990    0.4740    1.2000 c3        1 HQ6     -0.186100
      4 N2          2.0740   -0.3830   -1.0960 ny        1 HQ6     -0.670800
      5 C5          1.3830   -0.1360   -2.4130 c3        1 HQ6      0.133500
      6 C6          1.1190    1.3740   -2.6700 c3        1 HQ6      0.125100
      7 O6          1.0070    2.0280   -1.4120 oh        1 HQ6     -0.646800
      8 C4          2.2180   -0.6850   -3.6040 c3        1 HQ6      0.135100
      9 O4          2.8890   -1.8560   -3.1630 oh        1 HQ6     -0.644800
     10 C3          1.3210   -1.0350   -4.8100 c3        1 HQ6      0.114100
     11 O3          2.2460   -1.5280   -5.7700 oh        1 HQ6     -0.607800
     12 C2          0.5710    0.2080   -5.3530 c3        1 HQ6      0.145500
     13 C8          0.0460   -0.1080   -6.7710 c3        1 HQ6      0.118400
     14 O8         -0.6770    1.0310   -7.2010 oh        1 HQ6     -0.606800
     15 N1         -0.4930    0.5660   -4.4240 n7        1 HQ6     -0.835200
     16 C7         -0.1670    1.6140   -3.4900 c3        1 HQ6      0.138800
     17 H101        1.3120    1.5380    0.8510 hc        1 HQ6      0.114033
     18 H102        0.6480    0.2960    2.0140 hc        1 HQ6      0.114033
     19 H103        2.4260    0.3000    1.6090 hc        1 HQ6      0.114033
     20 H2          2.7500    0.3680   -0.9300 hn        1 HQ6      0.469800
     21 H5          0.4010   -0.7000   -2.3590 hx        1 HQ6      0.149700
     22 H6          2.0050    1.8140   -3.2150 h1        1 HQ6      0.065700
     23 H4          2.9910    0.0730   -3.9200 h1        1 HQ6      0.073700
     24 HA          0.6550    2.9150   -1.5720 ho        1 HQ6      0.453000
     25 H71C       -1.0360    1.6860   -2.7710 h1        1 HQ6      0.063200
     26 H72C       -0.0440    2.6230   -3.9840 h1        1 HQ6      0.063200
     27 HB          3.2580   -2.2950   -3.9460 ho        1 HQ6      0.472000
     28 H3          0.5940   -1.8440   -4.5200 h1        1 HQ6      0.077700
     29 HC          1.7470   -2.0540   -6.4090 ho        1 HQ6      0.432000
     30 HD          1.3230    1.0470   -5.4670 h1        1 HQ6      0.060700
     31 H81C       -0.6220   -1.0100   -6.7570 h1        1 HQ6      0.044700
     32 H82C        0.9190   -0.2930   -7.4510 h1        1 HQ6      0.044700
     33 H1         -1.3370    0.7960   -4.9200 hn        1 HQ6      0.416800
     34 H8         -0.9610    0.8590   -8.1070 ho        1 HQ6      0.428000
     35 H22         2.5740   -1.2830   -1.1600 hn        1 HQ6      0.469800
@<TRIPOS>BOND
     1    1    2 2   
     2    2    3 1   
     3    2    4 1   
     4    3   17 1   
     5    3   18 1   
     6    3   19 1   
     7    4    5 1   
     8    4   20 1   
     9    4   35 1   
    10    5    6 1   
    11    5    8 1   
    12    5   21 1   
    13    6    7 1   
    14    6   16 1   
    15    6   22 1   
    16    7   24 1   
    17    8    9 1   
    18    8   10 1   
    19    8   23 1   
    20    9   27 1   
    21   10   11 1   
    22   10   12 1   
    23   10   28 1   
    24   11   29 1   
    25   12   13 1   
    26   12   15 1   
    27   12   30 1   
    28   13   14 1   
    29   13   31 1   
    30   13   32 1   
    31   14   34 1   
    32   15   16 1   
    33   15   33 1   
    34   16   25 1   
    35   16   26 1   
@<TRIPOS>SUBSTRUCTURE
     1 HQ6         1 TEMP              0 ****  ****    0 ROOT
