@<TRIPOS>MOLECULE
HQ6
   35    35     1     0     0
SMALL
bcc


@<TRIPOS>ATOM
      1 O9          0.1660   -1.1810   -0.0120 o         1 HQ6     -0.412100
      2 C9          1.0890   -0.3880    0.0800 c         1 HQ6      0.571100
      3 C10         1.3930    0.5540    1.1930 c3        1 HQ6     -0.186100
      4 N2          2.0640   -0.3550   -1.0840 n4        1 HQ6     -0.670800
      5 C5          1.3820   -0.1230   -2.4070 c3        1 HQ6      0.133500
      6 C6          1.1400    1.3850   -2.6940 c3        1 HQ6      0.125100
      7 O6          1.0330    2.0650   -1.4480 oh        1 HQ6     -0.646800
      8 C4          2.2130   -0.7060   -3.5860 c3        1 HQ6      0.135100
      9 O4          2.8670   -1.8770   -3.1200 oh        1 HQ6     -0.644800
     10 C3          1.3150   -1.0660   -4.7880 c3        1 HQ6      0.114100
     11 O3          2.2360   -1.5900   -5.7350 oh        1 HQ6     -0.607800
     12 C2          0.5840    0.1770   -5.3560 c3        1 HQ6      0.145500
     13 C8          0.0590   -0.1590   -6.7700 c3        1 HQ6      0.118400
     14 O8         -0.6460    0.9830   -7.2240 oh        1 HQ6     -0.606800
     15 N1         -0.4770    0.5670   -4.4380 n3        1 HQ6     -0.835200
     16 C7         -0.1400    1.6280   -3.5230 c3        1 HQ6      0.138800
     17 H101        1.3220    1.6120    0.8250 hc        1 HQ6      0.114033
     18 H102        0.6370    0.4020    2.0080 hc        1 HQ6      0.114033
     19 H103        2.4160    0.3740    1.6090 hc        1 HQ6      0.114033
     20 H2          2.7500    0.3900   -0.9300 hn        1 HQ6      0.469800
     21 H5          0.3910   -0.6720   -2.3470 hx        1 HQ6      0.149700
     22 H6          2.0340    1.8030   -3.2430 h1        1 HQ6      0.065700
     23 H4          2.9970    0.0350   -3.9130 h1        1 HQ6      0.073700
     24 HA          0.6940    2.9530   -1.6270 ho        1 HQ6      0.453000
     25 H71C       -0.0010    2.6260   -4.0350 h1        1 HQ6      0.063200
     26 H72C       -1.0100    1.7250   -2.8090 h1        1 HQ6      0.063200
     27 HB          3.2320   -2.3360   -3.8930 ho        1 HQ6      0.472000
     28 H3          0.5750   -1.8590   -4.4850 h1        1 HQ6      0.077700
     29 HC          1.7320   -2.1210   -6.3660 ho        1 HQ6      0.432000
     30 HD          1.3480    1.0030   -5.4840 h1        1 HQ6      0.060700
     31 H81C        0.9320   -0.3680   -7.4440 h1        1 HQ6      0.044700
     32 H82C       -0.6210   -1.0510   -6.7410 h1        1 HQ6      0.044700
     33 H1         -1.3170    0.7990   -4.9410 hn        1 HQ6      0.416800
     34 H8         -0.9300    0.7970   -8.1280 ho        1 HQ6      0.428000
     35 H22         2.5530   -1.2630   -1.1290 hn        1 HQ6      0.469800
@<TRIPOS>BOND
     1    1    2 2   
     2    2    3 1   
     3    2    4 1   
     4    3   17 1   
     5    3   18 1   
     6    3   19 1   
     7    4    5 1   
     8    4   20 1   
     9    4   35 1   
    10    5    6 1   
    11    5    8 1   
    12    5   21 1   
    13    6    7 1   
    14    6   16 1   
    15    6   22 1   
    16    7   24 1   
    17    8    9 1   
    18    8   10 1   
    19    8   23 1   
    20    9   27 1   
    21   10   11 1   
    22   10   12 1   
    23   10   28 1   
    24   11   29 1   
    25   12   13 1   
    26   12   15 1   
    27   12   30 1   
    28   13   14 1   
    29   13   31 1   
    30   13   32 1   
    31   14   34 1   
    32   15   16 1   
    33   15   33 1   
    34   16   25 1   
    35   16   26 1   
@<TRIPOS>SUBSTRUCTURE
     1 HQ6         1 TEMP              0 ****  ****    0 ROOT
