@<TRIPOS>MOLECULE
HQ6
   35    35     1     0     0
SMALL
bcc


@<TRIPOS>ATOM
      1 O9          0.1470   -1.0910   -0.0220 o         1 HQ6     -0.416100
      2 C9          1.1030   -0.3400    0.0790 c         1 HQ6      0.577100
      3 C10         1.4560    0.5730    1.2010 c3        1 HQ6     -0.185100
      4 N2          2.0720   -0.3300   -1.0930 n4        1 HQ6     -0.668800
      5 C5          1.3810   -0.1260   -2.4160 c3        1 HQ6      0.126500
      6 C6          1.0790    1.3700   -2.6960 c3        1 HQ6      0.087100
      7 O6          0.8940    2.0230   -1.4450 oh        1 HQ6     -0.645800
      8 C4          2.2320   -0.6780   -3.5940 c3        1 HQ6      0.130100
      9 O4          2.9350   -1.8160   -3.1210 oh        1 HQ6     -0.645800
     10 C3          1.3490   -1.0870   -4.7930 c3        1 HQ6      0.085100
     11 O3          2.2930   -1.6230   -5.7100 oh        1 HQ6     -0.598800
     12 C2          0.5890    0.1160   -5.4040 c3        1 HQ6      0.106500
     13 C8          0.0620   -0.2720   -6.8100 c3        1 HQ6      0.141400
     14 O8         -0.4450    0.8460   -7.4920 oh        1 HQ6     -0.572800
     15 N1         -0.4950    0.5860   -4.5640 n3        1 HQ6     -0.834200
     16 C7         -0.1800    1.5680   -3.5750 c3        1 HQ6      0.148800
     17 H101        2.4910    0.3820    1.5770 hc        1 HQ6      0.115700
     18 H102        1.3750    1.6390    0.8540 hc        1 HQ6      0.115700
     19 H103        0.7270    0.4090    2.0390 hc        1 HQ6      0.115700
     20 H2          2.5660   -1.2370   -1.1250 hn        1 HQ6      0.471800
     21 H5          0.4150   -0.7130   -2.3490 hx        1 HQ6      0.124700
     22 H6          1.9740    1.8340   -3.2040 h1        1 HQ6      0.070700
     23 H4          2.9810    0.0960   -3.9290 h1        1 HQ6      0.081700
     24 HA          0.5190    2.8970   -1.6230 ho        1 HQ6      0.455000
     25 H71C       -0.0370    2.5550   -4.1090 h1        1 HQ6      0.082700
     26 H72C       -1.0710    1.6720   -2.8890 h1        1 HQ6      0.082700
     27 HB          3.3390   -2.2540   -3.8890 ho        1 HQ6      0.476000
     28 H3          0.6290   -1.8910   -4.4730 h1        1 HQ6      0.058700
     29 HC          1.8070   -2.1640   -6.3460 ho        1 HQ6      0.438000
     30 HD          1.3220    0.9630   -5.5590 h1        1 HQ6      0.091700
     31 H81C        0.9280   -0.6110   -7.4430 h1        1 HQ6      0.057200
     32 H82C       -0.7030   -1.0880   -6.7320 h1        1 HQ6      0.057200
     33 H1         -1.0430   -0.1700   -4.2040 hn        1 HQ6      0.382800
     34 H8         -1.2620    1.1210   -7.0550 ho        1 HQ6      0.417000
     35 H22         2.7560    0.4200   -0.9610 hn        1 HQ6      0.471800
@<TRIPOS>BOND
     1    1    2 2   
     2    2    3 1   
     3    2    4 1   
     4    3   17 1   
     5    3   18 1   
     6    3   19 1   
     7    4    5 1   
     8    4   20 1   
     9    4   35 1   
    10    5    6 1   
    11    5    8 1   
    12    5   21 1   
    13    6    7 1   
    14    6   16 1   
    15    6   22 1   
    16    7   24 1   
    17    8    9 1   
    18    8   10 1   
    19    8   23 1   
    20    9   27 1   
    21   10   11 1   
    22   10   12 1   
    23   10   28 1   
    24   11   29 1   
    25   12   13 1   
    26   12   15 1   
    27   12   30 1   
    28   13   14 1   
    29   13   31 1   
    30   13   32 1   
    31   14   34 1   
    32   15   16 1   
    33   15   33 1   
    34   16   25 1   
    35   16   26 1   
@<TRIPOS>SUBSTRUCTURE
     1 HQ6         1 TEMP              0 ****  ****    0 ROOT
