@<TRIPOS>MOLECULE
HQ9
   19    19     1     0     0
SMALL
bcc


@<TRIPOS>ATOM
      1 C1          2.2630   -0.3180   -0.3380 c         1 HQ9      0.928600
      2 C2          1.4070   -0.3140    0.9620 c3        1 HQ9     -0.207200
      3 C1'        -0.0250   -0.0830    0.6860 c2        1 HQ9     -0.002400
      4 C2'        -0.8820   -1.0860    0.3990 ce        1 HQ9     -0.299200
      5 C3'        -2.2820   -0.8510    0.0450 c         1 HQ9      0.572500
      6 O3'        -3.1260   -1.7610   -0.0290 o         1 HQ9     -0.585100
      7 C4'        -2.6350    0.5500   -0.2590 ce        1 HQ9     -0.260200
      8 C5'        -1.8020    1.5540    0.0400 c2        1 HQ9     -0.120200
      9 C6'        -0.5220    1.3350    0.7910 c3        1 HQ9      0.196500
     10 O6'         0.4220    2.3270    0.4530 oh        1 HQ9     -0.630800
     11 O1          2.2350    0.7170   -1.0670 o         1 HQ9     -0.825800
     12 O2          2.9590   -1.3390   -0.5660 o         1 HQ9     -0.825800
     13 H21C        1.5540   -1.2990    1.4730 hc        1 HQ9      0.052200
     14 H22C        1.8120    0.5000    1.6170 hc        1 HQ9      0.052200
     15 H2'        -0.5450   -2.1340    0.3770 ha        1 HQ9      0.153000
     16 H4'        -3.5990    0.7100   -0.7630 ha        1 HQ9      0.131000
     17 H5'        -2.0160    2.6010   -0.2210 ha        1 HQ9      0.130000
     18 H6'        -0.7490    1.5260    1.8890 h1        1 HQ9      0.063700
     19 H6'A        1.0050    1.9750   -0.2500 ho        1 HQ9      0.475000
@<TRIPOS>BOND
     1    1    2 1   
     2    1   11 1   
     3    1   12 1   
     4    2    3 1   
     5    2   13 1   
     6    2   14 1   
     7    3    4 2   
     8    3    9 1   
     9    4    5 1   
    10    4   15 1   
    11    5    6 2   
    12    5    7 1   
    13    7    8 2   
    14    7   16 1   
    15    8    9 1   
    16    8   17 1   
    17    9   10 1   
    18    9   18 1   
    19   10   19 1   
@<TRIPOS>SUBSTRUCTURE
     1 HQ9         1 TEMP              0 ****  ****    0 ROOT
