@<TRIPOS>MOLECULE
HQ9
   19    19     1     0     0
SMALL
bcc


@<TRIPOS>ATOM
      1 C1          1.4130   -0.0310   -0.7200 c         1 HQ9      0.917600
      2 C2          0.6090    0.2360    0.5760 c3        1 HQ9     -0.202200
      3 C1'         1.4180    0.0950    1.8050 c2        1 HQ9      0.011600
      4 C2'         1.0590   -0.7170    2.8220 ce        1 HQ9     -0.316200
      5 C3'         1.8250   -0.8210    4.0620 c         1 HQ9      0.575500
      6 O3'         1.5320   -1.6180    4.9720 o         1 HQ9     -0.594100
      7 C4'         2.9620    0.1090    4.2000 ce        1 HQ9     -0.268200
      8 C5'         3.3380    0.9130    3.2000 c2        1 HQ9     -0.087200
      9 C6'         2.7120    0.8640    1.8440 c3        1 HQ9      0.182500
     10 O6'         2.5670    2.1990    1.3850 oh        1 HQ9     -0.628800
     11 O1          0.9740   -0.9010   -1.5140 o         1 HQ9     -0.832300
     12 O2          2.4520    0.6680   -0.9250 o         1 HQ9     -0.832300
     13 H21C        0.2380    1.2940    0.5150 hc        1 HQ9      0.054700
     14 H22C       -0.2750   -0.4510    0.5980 hc        1 HQ9      0.054700
     15 H2'         0.1540   -1.3410    2.7630 ha        1 HQ9      0.140000
     16 H4'         3.4660    0.1120    5.1780 ha        1 HQ9      0.129000
     17 H5'         4.1520    1.6470    3.3090 ha        1 HQ9      0.128000
     18 H6'         3.4200    0.3100    1.1420 h1        1 HQ9      0.107700
     19 H6'A        2.4620    2.1380    0.4160 ho        1 HQ9      0.459000
@<TRIPOS>BOND
     1    1    2 1   
     2    1   11 1   
     3    1   12 1   
     4    2    3 1   
     5    2   13 1   
     6    2   14 1   
     7    3    4 2   
     8    3    9 1   
     9    4    5 1   
    10    4   15 1   
    11    5    6 2   
    12    5    7 1   
    13    7    8 2   
    14    7   16 1   
    15    8    9 1   
    16    8   17 1   
    17    9   10 1   
    18    9   18 1   
    19   10   19 1   
@<TRIPOS>SUBSTRUCTURE
     1 HQ9         1 TEMP              0 ****  ****    0 ROOT
