@<TRIPOS>MOLECULE
HQ9
   19    19     1     0     0
SMALL
bcc


@<TRIPOS>ATOM
      1 C1          1.1100    0.0100   -0.6440 c         1 HQ9      0.917600
      2 C2          0.4680    0.3110    0.7330 c3        1 HQ9     -0.202200
      3 C1'         1.4000    0.1240    1.8650 c2        1 HQ9      0.011600
      4 C2'         1.1150   -0.6740    2.9160 ce        1 HQ9     -0.316200
      5 C3'         2.0070   -0.8230    4.0640 c         1 HQ9      0.575500
      6 O3'         1.7750   -1.6080    5.0010 o         1 HQ9     -0.594100
      7 C4'         3.1970    0.0480    4.0750 ce        1 HQ9     -0.268200
      8 C5'         3.5010    0.8380    3.0380 c2        1 HQ9     -0.087200
      9 C6'         2.7280    0.8260    1.7600 c3        1 HQ9      0.182500
     10 O6'         2.6000    2.1690    1.3190 oh        1 HQ9     -0.628800
     11 O1          0.5440   -0.8330   -1.3840 o         1 HQ9     -0.832300
     12 O2          2.1540    0.6580   -0.9640 o         1 HQ9     -0.832300
     13 H21C       -0.4410   -0.3310    0.8520 hc        1 HQ9      0.054700
     14 H22C        0.1470    1.3870    0.7120 hc        1 HQ9      0.054700
     15 H2'         0.1790   -1.2510    2.9580 ha        1 HQ9      0.140000
     16 H4'         3.8050    0.0210    4.9910 ha        1 HQ9      0.129000
     17 H5'         4.3580    1.5300    3.0560 ha        1 HQ9      0.128000
     18 H6'         3.3250    0.2410    0.9840 h1        1 HQ9      0.107700
     19 H6'A        2.3860    2.1190    0.3680 ho        1 HQ9      0.459000
@<TRIPOS>BOND
     1    1    2 1   
     2    1   11 1   
     3    1   12 1   
     4    2    3 1   
     5    2   13 1   
     6    2   14 1   
     7    3    4 2   
     8    3    9 1   
     9    4    5 1   
    10    4   15 1   
    11    5    6 2   
    12    5    7 1   
    13    7    8 2   
    14    7   16 1   
    15    8    9 1   
    16    8   17 1   
    17    9   10 1   
    18    9   18 1   
    19   10   19 1   
@<TRIPOS>SUBSTRUCTURE
     1 HQ9         1 TEMP              0 ****  ****    0 ROOT
