@<TRIPOS>MOLECULE
HQ9
   19    16     1     0     0
SMALL
bcc


@<TRIPOS>ATOM
      1 C1         -1.9790   -0.2240   -1.9290 c1        1 HQ9      0.337000
      2 C2         -0.4660   -0.2240   -1.9290 c2        1 HQ9     -0.235000
      3 C1'         0.0380   -0.2240   -0.5030 c2        1 HQ9      0.020000
      4 C2'        -0.2470   -1.4040    0.4000 c1        1 HQ9     -0.297000
      5 C3'        -0.0240   -1.2860    1.8830 c1        1 HQ9      0.298000
      6 O3'        -0.2920   -2.2190    2.6130 o         1 HQ9     -0.355000
      7 C4'         0.4830    0.0040    2.4660 c2        1 HQ9     -0.249000
      8 C5'         0.7670    1.1830    1.5600 c1        1 HQ9     -0.083000
      9 C6'         0.8590    0.9770    0.0280 c2        1 HQ9      0.063000
     10 O6'         2.2560    0.8920   -0.4080 oh        1 HQ9     -0.356000
     11 O1         -2.6090    0.8180   -1.6080 o         1 HQ9     -0.567000
     12 O2         -2.6090   -1.2640   -2.2570 o         1 HQ9     -0.567000
     13 H21C       -0.1410   -1.0210   -2.3890 ha        1 HQ9      0.094000
     14 H22C       -0.1410    0.5730   -2.3890 ha        1 HQ9      0.094000
     15 H2'        -0.5330   -2.2540    0.0160 ha        1 HQ9      0.140000
     16 H4'         0.5980    0.0920    3.4310 ha        1 HQ9      0.129000
     17 H5'         0.8730    2.0750    1.9400 ha        1 HQ9      0.128000
     18 H6'         0.5780    1.7930   -0.4290 h4        1 HQ9      0.147000
     19 H6'A        2.5890    1.7100   -0.4950 ho        1 HQ9      0.258000
@<TRIPOS>BOND
     1    1   11 1   
     2    1   12 1   
     3    2    3 1   
     4    2   13 1   
     5    2   14 1   
     6    3    4 1   
     7    3    9 1   
     8    4   15 1   
     9    5    6 1   
    10    5    7 1   
    11    7    8 1   
    12    7   16 1   
    13    8   17 1   
    14    9   10 1   
    15    9   18 1   
    16   10   19 1   
@<TRIPOS>SUBSTRUCTURE
     1 HQ9         1 TEMP              0 ****  ****    0 ROOT
