@<TRIPOS>MOLECULE
HQA
   28    29     1     0     0
SMALL
bcc


@<TRIPOS>ATOM
      1 OXT        -4.2950   -1.4540    0.1390 o         1 HQA     -0.836800
      2 C          -4.1820   -0.2320   -0.1500 c         1 HQA      0.889600
      3 O          -5.1470    0.5710   -0.2880 o         1 HQA     -0.836800
      4 CA         -2.7320    0.3230   -0.3750 c3        1 HQA      0.018500
      5 N          -2.6710    1.7500   -0.6590 n3        1 HQA     -0.893800
      6 C03        -1.8850   -0.0760    0.8400 c3        1 HQA     -0.034100
      7 C04        -0.4270   -0.0070    0.5760 ca        1 HQA     -0.134600
      8 C05         0.2440    1.2670    0.5580 ca        1 HQA      0.440200
      9 N06         1.5370    1.4270    0.3550 nb        1 HQA     -0.704000
     10 C07         2.3070    0.2990    0.1380 ca        1 HQA      0.322600
     11 C08         3.7240    0.4120   -0.0860 ca        1 HQA      0.090800
     12 O09         4.3830    1.6200   -0.0910 oh        1 HQA     -0.513100
     13 C10         4.5030   -0.7120   -0.3080 ca        1 HQA     -0.191000
     14 C11         3.9090   -1.9890   -0.3170 ca        1 HQA     -0.108000
     15 C12         2.5590   -2.1400   -0.1070 ca        1 HQA     -0.149000
     16 C13         1.7370   -1.0090    0.1240 ca        1 HQA     -0.106300
     17 C14         0.3350   -1.1310    0.3520 ca        1 HQA     -0.117000
     18 HA         -2.3240   -0.2160   -1.2790 h1        1 HQA      0.046700
     19 HN         -3.2330    1.9160   -1.4780 hn        1 HQA      0.333800
     20 HNA        -3.1280    2.2370    0.0930 hn        1 HQA      0.333800
     21 H03        -2.1360    0.5820    1.7140 hc        1 HQA      0.065200
     22 H03A       -2.1810   -1.1290    1.1080 hc        1 HQA      0.065200
     23 H05        -0.3530    2.1880    0.7060 h4        1 HQA      0.040100
     24 HO09        3.7360    2.3290    0.0390 ho        1 HQA      0.442000
     25 H10         5.5830   -0.6010   -0.4780 ha        1 HQA      0.138000
     26 H11         4.5480   -2.8660   -0.4970 ha        1 HQA      0.122000
     27 H12         2.0930   -3.1350   -0.1170 ha        1 HQA      0.131000
     28 H14        -0.1230   -2.1310    0.3400 ha        1 HQA      0.147000
@<TRIPOS>BOND
     1    1    2 1   
     2    2    3 1   
     3    2    4 1   
     4    4    5 1   
     5    4    6 1   
     6    4   18 1   
     7    5   19 1   
     8    5   20 1   
     9    6    7 1   
    10    6   21 1   
    11    6   22 1   
    12    7    8 ar  
    13    7   17 ar  
    14    8    9 ar  
    15    8   23 1   
    16    9   10 ar  
    17   10   11 ar  
    18   10   16 ar  
    19   11   12 1   
    20   11   13 ar  
    21   12   24 1   
    22   13   14 ar  
    23   13   25 1   
    24   14   15 ar  
    25   14   26 1   
    26   15   16 ar  
    27   15   27 1   
    28   16   17 ar  
    29   17   28 1   
@<TRIPOS>SUBSTRUCTURE
     1 HQA         1 TEMP              0 ****  ****    0 ROOT
