@<TRIPOS>MOLECULE
HQC
   58    53     1     0     0
SMALL
bcc


@<TRIPOS>ATOM
      1 O33         4.4560   -3.2320   -4.3230 o         1 HQC     -0.359000
      2 C20         4.0680   -4.1160   -3.5810 c1        1 HQC      0.172000
      3 C17         3.7250   -3.8000   -2.1520 c2        1 HQC     -0.041000
      4 C9          4.5170   -4.7070   -1.2290 c3        1 HQC     -0.235000
      5 C11         5.8430   -4.0470   -0.8850 c2        1 HQC      0.333000
      6 O32         6.7410   -3.9390   -1.7640 o         1 HQC     -0.574000
      7 O29         6.0280   -3.5670    0.2650 o         1 HQC     -0.574000
      8 N1          2.3250   -4.0080   -1.9400 n         1 HQC     -0.340000
      9 C19         1.3610   -3.1020   -2.5290 c2        1 HQC      0.299000
     10 O30         1.7000   -2.3550   -3.4270 o         1 HQC     -0.390000
     11 C10        -0.0870   -3.1350   -2.0760 c3        1 HQC     -0.063000
     12 C14        -0.8970   -3.9650   -3.0390 c2        1 HQC     -0.375000
     13 S35        -1.0880   -3.6780   -4.5540 ss        1 HQC      0.595000
     14 C7         -2.0580   -4.7530   -5.1150 c1        1 HQC     -0.452000
     15 C15        -2.4320   -5.6330   -4.0220 c1        1 HQC     -0.155000
     16 C5         -1.6930   -5.1330   -2.7020 c1        1 HQC     -0.165000
     17 C12        -0.6410   -1.7150   -2.0370 c3        1 HQC     -0.144000
     18 C13        -1.2720   -1.4490   -0.6600 c3        1 HQC     -0.160000
     19 C6         -1.5310    0.0690   -0.4930 c3        1 HQC     -0.180000
     20 C16        -1.9960    0.3580    0.9610 c3        1 HQC     -0.038000
     21 N3         -1.9740    1.7860    1.2020 n         1 HQC     -0.343000
     22 C8         -2.2670    2.3040    2.5270 c2        1 HQC      0.346000
     23 O31        -2.6040    1.5440    3.4160 o         1 HQC     -0.376000
     24 C18        -2.0940    3.7960    2.8220 c2        1 HQC     -0.047000
     25 N2         -0.9700    4.2060    3.4820 n2        1 HQC     -0.090000
     26 C24        -3.0710    4.7230    2.4650 c1        1 HQC     -0.124000
     27 C23        -2.9040    6.0460    2.7760 c1        1 HQC     -0.107000
     28 C22        -1.7630    6.4630    3.4460 c1        1 HQC     -0.039000
     29 C4         -1.5890    7.8250    3.7670 c1        1 HQC     -0.118000
     30 C21        -0.7990    5.5460    3.7980 c2        1 HQC     -0.018000
     31 C25         0.3600    5.9680    4.4780 c2        1 HQC      0.126000
     32 O28         1.5150    5.2340    4.8070 oh        1 HQC     -0.219000
     33 C26         0.5300    7.3110    4.7950 c1        1 HQC     -0.239000
     34 C27        -0.4460    8.2400    4.4380 c1        1 HQC     -0.118000
     35 H20         3.9540   -5.0240   -3.9220 ha        1 HQC      0.168000
     36 H17         3.9490   -2.8660   -1.9620 h4        1 HQC      0.159000
     37 H91         4.0080   -4.8620   -0.4080 hc        1 HQC      0.077500
     38 H92         4.6850   -5.5640   -1.6760 hc        1 HQC      0.077500
     39 HN1         2.0390   -4.7290   -1.4630 hn        1 HQC      0.220000
     40 H10        -0.1390   -3.5280   -1.1860 hc        1 HQC      0.117000
     41 H7         -2.3640   -4.8250   -6.0430 DU        1 HQC      0.154333
     42 H15        -3.0350   -6.4030   -4.0850 DU        1 HQC      0.154333
     43 H5         -1.7640   -5.5400   -1.8190 DU        1 HQC      0.154333
     44 H121        0.0830   -1.0790   -2.1920 hc        1 HQC      0.089500
     45 H122       -1.3220   -1.6110   -2.7340 hc        1 HQC      0.089500
     46 H131       -0.6630   -1.7530    0.0410 hc        1 HQC      0.095500
     47 H132       -2.1200   -1.9350   -0.5890 hc        1 HQC      0.095500
     48 H61        -0.7060    0.5630   -0.6770 hc        1 HQC      0.085000
     49 H62        -2.2310    0.3530   -1.1230 hc        1 HQC      0.085000
     50 H161       -2.9070    0.0200    1.0850 h1        1 HQC      0.106000
     51 H162       -1.3950   -0.0880    1.5900 h1        1 HQC      0.106000
     52 HN3        -1.8040    2.3620    0.5140 hn        1 HQC      0.241000
     53 H24        -3.8920    4.4230    2.0360 ha        1 HQC      0.173000
     54 H23        -3.5880    6.6960    2.5260 ha        1 HQC      0.142000
     55 H4         -2.2730    8.4770    3.5180 ha        1 HQC      0.135000
     56 H28         1.5120    5.0500    5.6770 ho        1 HQC      0.217000
     57 H26         1.3080    7.5960    5.3160 ha        1 HQC      0.136000
     58 H27        -0.3270    9.1840    4.6600 ha        1 HQC      0.135000
@<TRIPOS>BOND
     1    1    2 1   
     2    2   35 1   
     3    3    4 1   
     4    3    8 1   
     5    3   36 1   
     6    4    5 1   
     7    4   37 1   
     8    4   38 1   
     9    5    6 1   
    10    5    7 1   
    11    8    9 1   
    12    8   39 1   
    13    9   10 1   
    14    9   11 1   
    15   11   12 1   
    16   11   17 1   
    17   11   40 1   
    18   12   13 1   
    19   12   16 1   
    20   13   14 1   
    21   14   15 1   
    22   15   16 1   
    23   17   18 1   
    24   17   44 1   
    25   17   45 1   
    26   18   19 1   
    27   18   46 1   
    28   18   47 1   
    29   19   20 1   
    30   19   48 1   
    31   19   49 1   
    32   20   21 1   
    33   20   50 1   
    34   20   51 1   
    35   21   22 1   
    36   21   52 1   
    37   22   23 1   
    38   22   24 1   
    39   24   25 1   
    40   24   26 1   
    41   25   30 1   
    42   26   53 1   
    43   27   28 1   
    44   27   54 1   
    45   28   30 1   
    46   29   34 1   
    47   29   55 1   
    48   30   31 1   
    49   31   32 1   
    50   31   33 1   
    51   32   56 1   
    52   33   57 1   
    53   34   58 1   
@<TRIPOS>SUBSTRUCTURE
     1 HQC         1 TEMP              0 ****  ****    0 ROOT
