@<TRIPOS>MOLECULE
HQC
   60    62     1     0     0
SMALL
bcc


@<TRIPOS>ATOM
      1 O33         0.7350   -2.7200    0.8680 o         1 HQC     -0.505100
      2 C20         1.6810   -1.9380    0.8390 c         1 HQC      0.560900
      3 C17         1.7510   -0.6660    1.6810 c3        1 HQC     -0.012300
      4 C9          3.0870   -0.6780    2.4550 c3        1 HQC     -0.191400
      5 C11         4.1040    0.1790    1.7580 c         1 HQC      0.621100
      6 O32         3.9220    1.5270    1.7150 oh        1 HQC     -0.581100
      7 O29         5.1280   -0.2150    1.2010 o         1 HQC     -0.482000
      8 N1          0.5990   -0.4800    2.5320 n         1 HQC     -0.550900
      9 C19         0.3290    0.7360    3.1100 c         1 HQC      0.666100
     10 O30         1.1360    1.6880    3.0140 o         1 HQC     -0.646100
     11 C10        -0.9580    0.8640    3.9380 c3        1 HQC     -0.041400
     12 C14        -2.0990    0.1870    3.2890 cc        1 HQC     -0.164400
     13 S35        -3.0520    0.8630    2.0740 ss        1 HQC      0.030200
     14 C7         -4.0210   -0.4860    1.9260 cc        1 HQC     -0.150100
     15 C15        -3.6440   -1.4870    2.7940 cd        1 HQC     -0.149000
     16 C5         -2.5230   -1.0960    3.5890 cd        1 HQC     -0.143000
     17 C12        -1.2330    2.3380    4.2180 c3        1 HQC     -0.077400
     18 C13        -2.1530    2.5120    5.4080 c3        1 HQC     -0.077400
     19 C6         -2.4040    3.9860    5.6610 c3        1 HQC     -0.106400
     20 C16        -3.3070    4.1410    6.8770 c3        1 HQC      0.102800
     21 N3         -3.5780    5.5710    7.2040 n4        1 HQC     -0.664800
     22 C8         -4.4740    5.7580    8.4110 c         1 HQC      0.466600
     23 O31        -4.8750    4.7450    8.9660 o         1 HQC     -0.417100
     24 C18        -4.7690    7.1600    8.7910 ca        1 HQC      0.300800
     25 N2         -4.2460    8.1560    8.0670 nb        1 HQC     -0.624000
     26 C24        -5.6090    7.3540    9.9310 ca        1 HQC     -0.176300
     27 C23        -5.8970    8.6460   10.3050 ca        1 HQC     -0.075000
     28 C22        -5.3650    9.7380    9.5660 ca        1 HQC     -0.068300
     29 C4         -5.6360   11.0800    9.9180 ca        1 HQC     -0.159000
     30 C21        -4.5280    9.4400    8.4320 ca        1 HQC      0.373600
     31 C25        -3.9910   10.5620    7.6880 ca        1 HQC      0.111800
     32 O28        -3.1980   10.2640    6.6130 oh        1 HQC     -0.479100
     33 C26        -4.2820   11.8600    8.0670 ca        1 HQC     -0.212000
     34 C27        -5.1050   12.1150    9.1830 ca        1 HQC     -0.032000
     35 H20         2.5730   -2.0850    0.1920 h4        1 HQC      0.040200
     36 H17         1.7790    0.2040    0.9470 h1        1 HQC      0.088700
     37 H91         3.4840   -1.7230    2.5400 hc        1 HQC      0.092200
     38 H92         2.9500   -0.2800    3.4960 hc        1 HQC      0.092200
     39 HN1         3.1030    1.7720    2.1790 ho        1 HQC      0.453000
     40 H10        -0.7400    0.3470    4.9200 hc        1 HQC      0.085700
     41 H7         -4.8420   -0.5450    1.2120 h4        1 HQC      0.183000
     42 H15        -4.1220   -2.4660    2.8760 ha        1 HQC      0.169000
     43 H5         -2.0690   -1.7490    4.3390 ha        1 HQC      0.159000
     44 H121       -1.6860    2.8140    3.3080 hc        1 HQC      0.070700
     45 H122       -0.2570    2.8610    4.4150 hc        1 HQC      0.070700
     46 H131       -1.6890    2.0450    6.3170 hc        1 HQC      0.059200
     47 H132       -3.1250    1.9840    5.2180 hc        1 HQC      0.059200
     48 H61        -1.4230    4.5060    5.8300 hc        1 HQC      0.067700
     49 H62        -2.8820    4.4450    4.7550 hc        1 HQC      0.067700
     50 H161       -4.2990    3.6330    6.6980 hx        1 HQC      0.112200
     51 H162       -2.8320    3.6650    7.7830 hx        1 HQC      0.112200
     52 HN3        -2.6890    6.0580    7.3810 hn        1 HQC      0.469800
     53 H24        -6.0020    6.4820   10.4770 ha        1 HQC      0.179000
     54 H23        -6.5410    8.8510   11.1770 ha        1 HQC      0.173000
     55 H4         -6.2790   11.2810   10.7900 ha        1 HQC      0.162000
     56 H28        -2.9050   11.0980    6.2090 ho        1 HQC      0.443000
     57 H26        -3.8700   12.7090    7.4970 ha        1 HQC      0.162000
     58 H27        -5.3170   13.1620    9.4580 ha        1 HQC      0.164000
     59 H12        -0.0760   -1.2130    2.5600 hn        1 HQC      0.346500
     60 H32        -4.0220    6.0310    6.3970 hn        1 HQC      0.469800
@<TRIPOS>BOND
     1    1    2 2   
     2    2    3 1   
     3    2   35 1   
     4    3    4 1   
     5    3    8 1   
     6    3   36 1   
     7    4    5 1   
     8    4   37 1   
     9    4   38 1   
    10    5    6 1   
    11    5    7 2   
    12    6   39 1   
    13    8    9 1   
    14    8   59 1   
    15    9   10 2   
    16    9   11 1   
    17   11   12 1   
    18   11   17 1   
    19   11   40 1   
    20   12   13 1   
    21   12   16 2   
    22   13   14 1   
    23   14   15 2   
    24   14   41 1   
    25   15   16 1   
    26   15   42 1   
    27   16   43 1   
    28   17   18 1   
    29   17   44 1   
    30   17   45 1   
    31   18   19 1   
    32   18   46 1   
    33   18   47 1   
    34   19   20 1   
    35   19   48 1   
    36   19   49 1   
    37   20   21 1   
    38   20   50 1   
    39   20   51 1   
    40   21   22 1   
    41   21   52 1   
    42   21   60 1   
    43   22   23 2   
    44   22   24 1   
    45   24   25 ar  
    46   24   26 ar  
    47   25   30 ar  
    48   26   27 ar  
    49   26   53 1   
    50   27   28 ar  
    51   27   54 1   
    52   28   29 ar  
    53   28   30 ar  
    54   29   34 ar  
    55   29   55 1   
    56   30   31 ar  
    57   31   32 1   
    58   31   33 ar  
    59   32   56 1   
    60   33   34 ar  
    61   33   57 1   
    62   34   58 1   
@<TRIPOS>SUBSTRUCTURE
     1 HQC         1 TEMP              0 ****  ****    0 ROOT
