@<TRIPOS>MOLECULE
HQC
   60    62     1     0     0
SMALL
bcc


@<TRIPOS>ATOM
      1 O33         0.6800   -2.2930    0.4350 o         1 HQC     -0.495100
      2 C20         1.6450   -1.5350    0.4610 c         1 HQC      0.553900
      3 C17         1.8380   -0.4420    1.5110 c3        1 HQC     -0.022300
      4 C9          3.1610   -0.7530    2.2330 c3        1 HQC     -0.191400
      5 C11         3.4010    0.0840    3.4540 c         1 HQC      0.633100
      6 O32         3.2520    1.4380    3.4150 oh        1 HQC     -0.582100
      7 O29         3.7700   -0.3410    4.5490 o         1 HQC     -0.489000
      8 N1          0.7220   -0.2970    2.4130 n         1 HQC     -0.551900
      9 C19         0.1850    0.9410    2.7020 c         1 HQC      0.668100
     10 O30         0.7200    1.9870    2.2760 o         1 HQC     -0.629100
     11 C10        -1.0230    0.9690    3.6460 c3        1 HQC     -0.041400
     12 C14        -2.1050    0.0950    3.1500 cc        1 HQC     -0.162400
     13 S35        -3.2330    0.5320    1.9780 ss        1 HQC      0.035200
     14 C7         -4.0110   -0.9410    2.0150 cc        1 HQC     -0.152100
     15 C15        -3.4320   -1.8070    2.9170 cd        1 HQC     -0.149000
     16 C5         -2.3200   -1.2040    3.5800 cd        1 HQC     -0.144000
     17 C12        -1.4720    2.4110    3.8610 c3        1 HQC     -0.076400
     18 C13        -2.2100    2.5640    5.1740 c3        1 HQC     -0.077400
     19 C6         -2.5600    4.0220    5.4100 c3        1 HQC     -0.106400
     20 C16        -3.2460    4.1590    6.7630 c3        1 HQC      0.102800
     21 N3         -3.5590    5.5790    7.0980 n4        1 HQC     -0.663800
     22 C8         -4.2470    5.7450    8.4370 c         1 HQC      0.466600
     23 O31        -4.4860    4.7280    9.0700 o         1 HQC     -0.417100
     24 C18        -4.5580    7.1380    8.8390 ca        1 HQC      0.301800
     25 N2         -4.2420    8.1430    8.0140 nb        1 HQC     -0.624000
     26 C24        -5.1890    7.3140   10.1100 ca        1 HQC     -0.176300
     27 C23        -5.4880    8.5970   10.5070 ca        1 HQC     -0.075000
     28 C22        -5.1700    9.6970    9.6640 ca        1 HQC     -0.068300
     29 C4         -5.4600   11.0300   10.0360 ca        1 HQC     -0.159000
     30 C21        -4.5350    9.4170    8.4020 ca        1 HQC      0.373600
     31 C25        -4.2170   10.5470    7.5520 ca        1 HQC      0.111800
     32 O28        -3.6140   10.2660    6.3550 oh        1 HQC     -0.479100
     33 C26        -4.5170   11.8360    7.9540 ca        1 HQC     -0.213000
     34 C27        -5.1390   12.0730    9.1970 ca        1 HQC     -0.033000
     35 H20         2.4690   -1.5820   -0.2840 h4        1 HQC      0.023200
     36 H17         1.9620    0.5350    0.9420 h1        1 HQC      0.099700
     37 H91         4.0080   -0.5810    1.5150 hc        1 HQC      0.093200
     38 H92         3.1840   -1.8310    2.5460 hc        1 HQC      0.093200
     39 HN1         2.8650    1.7190    2.5710 ho        1 HQC      0.445000
     40 H10        -0.6540    0.5620    4.6370 hc        1 HQC      0.090700
     41 H7         -4.8690   -1.1700    1.3820 h4        1 HQC      0.182000
     42 H15        -3.7610   -2.8300    3.1120 ha        1 HQC      0.167000
     43 H5         -1.7230   -1.7220    4.3340 ha        1 HQC      0.158000
     44 H121       -0.5680    3.0800    3.8560 hc        1 HQC      0.070700
     45 H122       -2.1280    2.7330    3.0090 hc        1 HQC      0.070700
     46 H131       -3.1440    1.9430    5.1630 hc        1 HQC      0.059700
     47 H132       -1.5670    2.1910    6.0150 hc        1 HQC      0.059700
     48 H61        -1.6210    4.6380    5.3790 hc        1 HQC      0.067700
     49 H62        -3.2340    4.3840    4.5890 hc        1 HQC      0.067700
     50 H161       -4.2130    3.5780    6.7740 hx        1 HQC      0.112200
     51 H162       -2.5860    3.7500    7.5820 hx        1 HQC      0.112200
     52 HN3        -4.1650    5.9790    6.3710 hn        1 HQC      0.469800
     53 H24        -5.4190    6.4370   10.7350 ha        1 HQC      0.179000
     54 H23        -5.9740    8.7890   11.4780 ha        1 HQC      0.173000
     55 H4         -5.9450   11.2170   11.0070 ha        1 HQC      0.162000
     56 H28        -3.4530   11.1040    5.8910 ho        1 HQC      0.442000
     57 H26        -4.2710   12.6910    7.3040 ha        1 HQC      0.162000
     58 H27        -5.3640   13.1140    9.4880 ha        1 HQC      0.163000
     59 H12         0.1900   -1.1160    2.6120 hn        1 HQC      0.339500
     60 H32        -2.6890    6.1280    7.1090 hn        1 HQC      0.469800
@<TRIPOS>BOND
     1    1    2 2   
     2    2    3 1   
     3    2   35 1   
     4    3    4 1   
     5    3    8 1   
     6    3   36 1   
     7    4    5 1   
     8    4   37 1   
     9    4   38 1   
    10    5    6 1   
    11    5    7 2   
    12    6   39 1   
    13    8    9 1   
    14    8   59 1   
    15    9   10 2   
    16    9   11 1   
    17   11   12 1   
    18   11   17 1   
    19   11   40 1   
    20   12   13 1   
    21   12   16 2   
    22   13   14 1   
    23   14   15 2   
    24   14   41 1   
    25   15   16 1   
    26   15   42 1   
    27   16   43 1   
    28   17   18 1   
    29   17   44 1   
    30   17   45 1   
    31   18   19 1   
    32   18   46 1   
    33   18   47 1   
    34   19   20 1   
    35   19   48 1   
    36   19   49 1   
    37   20   21 1   
    38   20   50 1   
    39   20   51 1   
    40   21   22 1   
    41   21   52 1   
    42   21   60 1   
    43   22   23 2   
    44   22   24 1   
    45   24   25 ar  
    46   24   26 ar  
    47   25   30 ar  
    48   26   27 ar  
    49   26   53 1   
    50   27   28 ar  
    51   27   54 1   
    52   28   29 ar  
    53   28   30 ar  
    54   29   34 ar  
    55   29   55 1   
    56   30   31 ar  
    57   31   32 1   
    58   31   33 ar  
    59   32   56 1   
    60   33   34 ar  
    61   33   57 1   
    62   34   58 1   
@<TRIPOS>SUBSTRUCTURE
     1 HQC         1 TEMP              0 ****  ****    0 ROOT
