@<TRIPOS>MOLECULE
HQC
   60    62     1     0     0
SMALL
bcc


@<TRIPOS>ATOM
      1 O33         0.7330   -2.7170    0.8630 o         1 HQC     -0.505100
      2 C20         1.6830   -1.9390    0.8410 c         1 HQC      0.560900
      3 C17         1.7540   -0.6700    1.6880 c3        1 HQC     -0.012300
      4 C9          3.0860   -0.6900    2.4690 c3        1 HQC     -0.191400
      5 C11         4.1100    0.1640    1.7790 c         1 HQC      0.621100
      6 O32         3.9340    1.5140    1.7400 oh        1 HQC     -0.581100
      7 O29         5.1350   -0.2320    1.2260 o         1 HQC     -0.482000
      8 N1          0.5980   -0.4820    2.5340 ns        1 HQC     -0.550900
      9 C19         0.3300    0.7330    3.1150 c         1 HQC      0.666100
     10 O30         1.1420    1.6820    3.0260 o         1 HQC     -0.646100
     11 C10        -0.9590    0.8640    3.9370 c3        1 HQC     -0.041400
     12 C14        -2.1000    0.1930    3.2810 cc        1 HQC     -0.164400
     13 S35        -3.0450    0.8760    2.0640 ss        1 HQC      0.030200
     14 C7         -4.0180   -0.4680    1.9070 cc        1 HQC     -0.150100
     15 C15        -3.6490   -1.4740    2.7740 cd        1 HQC     -0.149000
     16 C5         -2.5310   -1.0890    3.5750 cd        1 HQC     -0.143000
     17 C12        -1.2300    2.3380    4.2200 c3        1 HQC     -0.077400
     18 C13        -2.1550    2.5120    5.4070 c3        1 HQC     -0.077400
     19 C6         -2.4020    3.9870    5.6620 c3        1 HQC     -0.106400
     20 C16        -3.3090    4.1410    6.8750 c3        1 HQC      0.102800
     21 N3         -3.5790    5.5720    7.2030 ny        1 HQC     -0.664800
     22 C8         -4.4770    5.7580    8.4090 c         1 HQC      0.466600
     23 O31        -4.8790    4.7460    8.9620 o         1 HQC     -0.417100
     24 C18        -4.7710    7.1600    8.7890 ca        1 HQC      0.300800
     25 N2         -4.2470    8.1570    8.0650 nb        1 HQC     -0.624000
     26 C24        -5.6130    7.3550    9.9280 ca        1 HQC     -0.176300
     27 C23        -5.9000    8.6460   10.3020 ca        1 HQC     -0.075000
     28 C22        -5.3660    9.7390    9.5640 ca        1 HQC     -0.068300
     29 C4         -5.6370   11.0810    9.9160 ca        1 HQC     -0.159000
     30 C21        -4.5280    9.4410    8.4310 ca        1 HQC      0.373600
     31 C25        -3.9900   10.5620    7.6880 ca        1 HQC      0.111800
     32 O28        -3.1960   10.2640    6.6130 oh        1 HQC     -0.479100
     33 C26        -4.2800   11.8610    8.0670 ca        1 HQC     -0.212000
     34 C27        -5.1040   12.1160    9.1820 ca        1 HQC     -0.032000
     35 H20         2.5770   -2.0880    0.1980 h4        1 HQC      0.040200
     36 H17         1.7890    0.2030    0.9580 h1        1 HQC      0.088700
     37 H91         2.9460   -0.2950    3.5100 hc        1 HQC      0.092200
     38 H92         3.4780   -1.7380    2.5520 hc        1 HQC      0.092200
     39 HN1        -0.0800   -1.2120    2.5570 hn        1 HQC      0.346500
     40 H10        -0.7490    0.3430    4.9190 hc        1 HQC      0.085700
     41 H7         -4.8360   -0.5220    1.1890 h4        1 HQC      0.183000
     42 H15        -4.1320   -2.4510    2.8510 ha        1 HQC      0.169000
     43 H5         -2.0830   -1.7460    4.3260 ha        1 HQC      0.159000
     44 H121       -0.2530    2.8570    4.4230 hc        1 HQC      0.070700
     45 H122       -1.6780    2.8180    3.3090 hc        1 HQC      0.070700
     46 H131       -1.6960    2.0420    6.3160 hc        1 HQC      0.059200
     47 H132       -3.1270    1.9880    5.2110 hc        1 HQC      0.059200
     48 H61        -2.8770    4.4480    4.7550 hc        1 HQC      0.067700
     49 H62        -1.4210    4.5040    5.8340 hc        1 HQC      0.067700
     50 H161       -4.3010    3.6360    6.6920 hx        1 HQC      0.112200
     51 H162       -2.8380    3.6630    7.7820 hx        1 HQC      0.112200
     52 HN3        -2.6890    6.0570    7.3830 hn        1 HQC      0.469800
     53 H24        -6.0070    6.4830   10.4730 ha        1 HQC      0.179000
     54 H23        -6.5450    8.8520   11.1730 ha        1 HQC      0.173000
     55 H4         -6.2810   11.2820   10.7870 ha        1 HQC      0.162000
     56 H28        -2.9020   11.0980    6.2100 ho        1 HQC      0.443000
     57 H26        -3.8680   12.7090    7.4980 ha        1 HQC      0.162000
     58 H27        -5.3160   13.1630    9.4570 ha        1 HQC      0.164000
     59 H12         3.1140    1.7610    2.2010 ho        1 HQC      0.453000
     60 H32        -4.0200    6.0330    6.3960 hn        1 HQC      0.469800
@<TRIPOS>BOND
     1    1    2 2   
     2    2    3 1   
     3    2   35 1   
     4    3    4 1   
     5    3    8 1   
     6    3   36 1   
     7    4    5 1   
     8    4   37 1   
     9    4   38 1   
    10    5    6 1   
    11    5    7 2   
    12    6   59 1   
    13    8    9 1   
    14    8   39 1   
    15    9   10 2   
    16    9   11 1   
    17   11   12 1   
    18   11   17 1   
    19   11   40 1   
    20   12   13 1   
    21   12   16 2   
    22   13   14 1   
    23   14   15 2   
    24   14   41 1   
    25   15   16 1   
    26   15   42 1   
    27   16   43 1   
    28   17   18 1   
    29   17   44 1   
    30   17   45 1   
    31   18   19 1   
    32   18   46 1   
    33   18   47 1   
    34   19   20 1   
    35   19   48 1   
    36   19   49 1   
    37   20   21 1   
    38   20   50 1   
    39   20   51 1   
    40   21   22 1   
    41   21   52 1   
    42   21   60 1   
    43   22   23 2   
    44   22   24 1   
    45   24   25 ar  
    46   24   26 ar  
    47   25   30 ar  
    48   26   27 ar  
    49   26   53 1   
    50   27   28 ar  
    51   27   54 1   
    52   28   29 ar  
    53   28   30 ar  
    54   29   34 ar  
    55   29   55 1   
    56   30   31 ar  
    57   31   32 1   
    58   31   33 ar  
    59   32   56 1   
    60   33   34 ar  
    61   33   57 1   
    62   34   58 1   
@<TRIPOS>SUBSTRUCTURE
     1 HQC         1 TEMP              0 ****  ****    0 ROOT
