@<TRIPOS>MOLECULE
HQC
   58    60     1     0     0
SMALL
bcc


@<TRIPOS>ATOM
      1 O33         6.7020    0.2670   -3.1980 o         1 HQC     -0.542100
      2 C20         6.9270    1.1480   -2.3700 c         1 HQC      0.565900
      3 C17         6.3940    1.2300   -0.9490 c3        1 HQC      0.004700
      4 C9          7.6080    1.1330   -0.0100 c3        1 HQC     -0.216400
      5 C11         7.2010    1.0970    1.4760 c         1 HQC      0.914600
      6 O32         6.6010    0.0640    1.9040 o         1 HQC     -0.842300
      7 O29         7.5030    2.0850    2.1950 o         1 HQC     -0.842300
      8 N1          5.3720    0.2550   -0.6350 n         1 HQC     -0.506900
      9 C19         4.0400    0.5990   -0.6810 c         1 HQC      0.658100
     10 O30         3.6260    1.5630   -1.3650 o         1 HQC     -0.653100
     11 C10         3.0560   -0.2350    0.1570 c3        1 HQC     -0.058400
     12 C14         3.4330   -1.6590    0.2610 cc        1 HQC     -0.100400
     13 S35         2.7580   -2.8930   -0.6800 ss        1 HQC     -0.034800
     14 C7          3.6660   -4.0950    0.0450 cc        1 HQC     -0.180100
     15 C15         4.5050   -3.5870    1.0110 cd        1 HQC     -0.151000
     16 C5          4.3720   -2.1680    1.1390 cd        1 HQC     -0.143000
     17 C12         1.6370   -0.0450   -0.3620 c3        1 HQC     -0.077400
     18 C13         0.6060   -0.3260    0.7110 c3        1 HQC     -0.080400
     19 C6         -0.7940   -0.0920    0.1820 c3        1 HQC     -0.097400
     20 C16        -1.8200   -0.3750    1.2790 c3        1 HQC      0.083000
     21 N3         -3.1740   -0.0670    0.8930 n         1 HQC     -0.545900
     22 C8         -4.2070   -0.9520    1.0480 c         1 HQC      0.566600
     23 O31        -4.0660   -2.0740    1.5760 o         1 HQC     -0.609100
     24 C18        -5.5780   -0.5490    0.5390 ca        1 HQC      0.385800
     25 N2         -5.9540    0.7230    0.5250 nb        1 HQC     -0.663000
     26 C24        -6.4220   -1.6300    0.1100 ca        1 HQC     -0.196300
     27 C23        -7.6790   -1.3390   -0.3490 ca        1 HQC     -0.098000
     28 C22        -8.1250    0.0150   -0.3840 ca        1 HQC     -0.100300
     29 C4         -9.4140    0.3690   -0.8480 ca        1 HQC     -0.158000
     30 C21        -7.2220    1.0240    0.0740 ca        1 HQC      0.329600
     31 C25        -7.6780    2.3910    0.0500 ca        1 HQC      0.101800
     32 O28        -6.9100    3.4460    0.4680 oh        1 HQC     -0.495100
     33 C26        -8.9480    2.7040   -0.4110 ca        1 HQC     -0.178000
     34 C27        -9.8100    1.6860   -0.8600 ca        1 HQC     -0.084000
     35 H20         7.5980    2.0060   -2.6180 h4        1 HQC     -0.028800
     36 H17         5.9460    2.2690   -0.8500 h1        1 HQC      0.078700
     37 H91         8.2630    2.0200   -0.1910 hc        1 HQC      0.041700
     38 H92         8.1880    0.2030   -0.2340 hc        1 HQC      0.041700
     39 HN1         5.6530   -0.4090    0.0700 hn        1 HQC      0.353500
     40 H10         3.1240    0.2200    1.1940 hc        1 HQC      0.095700
     41 H7          3.5840   -5.1410   -0.2400 h4        1 HQC      0.155000
     42 H15         5.2020   -4.1700    1.6150 ha        1 HQC      0.148000
     43 H5          4.9790   -1.5630    1.8320 ha        1 HQC      0.215000
     44 H121        1.5200    1.0130   -0.7250 hc        1 HQC      0.060200
     45 H122        1.4630   -0.7170   -1.2450 hc        1 HQC      0.060200
     46 H131        0.7070   -1.3850    1.0660 hc        1 HQC      0.048200
     47 H132        0.7910    0.3410    1.5950 hc        1 HQC      0.048200
     48 H61        -0.8850    0.9690   -0.1730 hc        1 HQC      0.044700
     49 H62        -0.9810   -0.7580   -0.7000 hc        1 HQC      0.044700
     50 H161       -1.7600   -1.4620    1.5750 h1        1 HQC      0.063200
     51 H162       -1.5630    0.2440    2.1870 h1        1 HQC      0.063200
     52 HN3        -3.3300    0.8080    0.4530 hn        1 HQC      0.322500
     53 H24        -6.0340   -2.6580    0.1780 ha        1 HQC      0.173000
     54 H23        -8.3610   -2.1320   -0.6910 ha        1 HQC      0.143000
     55 H4        -10.0870   -0.4270   -1.1970 ha        1 HQC      0.136000
     56 H28        -6.0560    3.1180    0.7880 ho        1 HQC      0.446000
     57 H26        -9.2750    3.7540   -0.4220 ha        1 HQC      0.153000
     58 H27       -10.8120    1.9640   -1.2220 ha        1 HQC      0.135000
@<TRIPOS>BOND
     1    1    2 2   
     2    2    3 1   
     3    2   35 1   
     4    3    4 1   
     5    3    8 1   
     6    3   36 1   
     7    4    5 1   
     8    4   37 1   
     9    4   38 1   
    10    5    6 1   
    11    5    7 1   
    12    8    9 1   
    13    8   39 1   
    14    9   10 2   
    15    9   11 1   
    16   11   12 1   
    17   11   17 1   
    18   11   40 1   
    19   12   13 1   
    20   12   16 2   
    21   13   14 1   
    22   14   15 2   
    23   14   41 1   
    24   15   16 1   
    25   15   42 1   
    26   16   43 1   
    27   17   18 1   
    28   17   44 1   
    29   17   45 1   
    30   18   19 1   
    31   18   46 1   
    32   18   47 1   
    33   19   20 1   
    34   19   48 1   
    35   19   49 1   
    36   20   21 1   
    37   20   50 1   
    38   20   51 1   
    39   21   22 1   
    40   21   52 1   
    41   22   23 2   
    42   22   24 1   
    43   24   25 ar  
    44   24   26 ar  
    45   25   30 ar  
    46   26   27 ar  
    47   26   53 1   
    48   27   28 ar  
    49   27   54 1   
    50   28   29 ar  
    51   28   30 ar  
    52   29   34 ar  
    53   29   55 1   
    54   30   31 ar  
    55   31   32 1   
    56   31   33 ar  
    57   32   56 1   
    58   33   34 ar  
    59   33   57 1   
    60   34   58 1   
@<TRIPOS>SUBSTRUCTURE
     1 HQC         1 TEMP              0 ****  ****    0 ROOT
