@<TRIPOS>MOLECULE
HQD
   22    19     1     0     0
SMALL
bcc


@<TRIPOS>ATOM
      1 N1         -0.2430    0.0180   -1.3910 n3        1 HQD     -0.239000
      2 C2          1.2010    0.0180   -1.3910 c2        1 HQD      0.031000
      3 C3          1.9380    0.0180   -0.1140 c1        1 HQD     -0.101000
      4 C4          1.2090    0.0180    1.1380 c1        1 HQD      0.291000
      5 C5         -1.0050    0.0180    2.3370 c1        1 HQD     -0.121500
      6 C6         -2.4010    0.0180    2.3300 c1        1 HQD     -0.121500
      7 C7         -3.0970    0.0180    1.1100 c1        1 HQD     -0.121500
      8 C8         -2.3950    0.0180   -0.0950 c1        1 HQD     -0.121500
      9 C9         -0.9980    0.0180   -0.0900 c1        1 HQD      0.117000
     10 C10        -0.3000    0.0180    1.1310 c1        1 HQD     -0.192000
     11 C           1.9570    0.0310   -2.7010 c3        1 HQD     -0.185000
     12 O3          3.3410    0.1190   -0.1120 oh        1 HQD     -0.255000
     13 O13         1.8120    0.0880    2.1910 o         1 HQD     -0.347000
     14 HC1         2.4920   -0.7820   -2.7760 hc        1 HQD      0.101333
     15 HC2         1.3230    0.0730   -3.4420 hc        1 HQD      0.101333
     16 HC3         2.5440    0.8110   -2.7300 hc        1 HQD      0.101333
     17 H3          3.6890   -0.6050    0.2660 ho        1 HQD      0.242000
     18 H5         -0.5220    0.0180    3.1850 ha        1 HQD      0.142250
     19 H6         -2.8930    0.0180    3.1730 ha        1 HQD      0.142250
     20 H7         -4.0740    0.0180    1.1060 ha        1 HQD      0.142250
     21 H8         -2.8800    0.0180   -0.9430 ha        1 HQD      0.142250
     22 H1N        -0.6980    0.0180   -2.1810 hn        1 HQD      0.247000
@<TRIPOS>BOND
     1    1    2 1   
     2    1    9 1   
     3    1   22 1   
     4    2    3 1   
     5    2   11 1   
     6    3   12 1   
     7    4   10 1   
     8    4   13 1   
     9    5    6 1   
    10    5   18 1   
    11    6   19 1   
    12    7    8 1   
    13    7   20 1   
    14    8   21 1   
    15    9   10 1   
    16   11   14 1   
    17   11   15 1   
    18   11   16 1   
    19   12   17 1   
@<TRIPOS>SUBSTRUCTURE
     1 HQD         1 TEMP              0 ****  ****    0 ROOT
