@<TRIPOS>MOLECULE
HQD
   22    23     1     0     0
SMALL
bcc


@<TRIPOS>ATOM
      1 N1         -0.3780   -1.6060    0.0290 na        1 HQD     -0.607400
      2 C2         -1.6270   -0.9950    0.0010 cc        1 HQD      0.108800
      3 C3         -1.7160    0.3760   -0.0350 cd        1 HQD     -0.076100
      4 C4         -0.5350    1.2480   -0.0460 c         1 HQD      0.569900
      5 C5          1.9510    1.2820   -0.0230 ca        1 HQD     -0.034000
      6 C6          3.1740    0.6350    0.0060 ca        1 HQD     -0.185000
      7 C7          3.2200   -0.7670    0.0430 ca        1 HQD     -0.062000
      8 C8          2.0590   -1.5170    0.0510 ca        1 HQD     -0.205000
      9 C9          0.7940   -0.8670    0.0210 ca        1 HQD      0.198600
     10 C10         0.7500    0.5520   -0.0160 ca        1 HQD     -0.212600
     11 C          -2.8370   -1.8670    0.0120 c3        1 HQD     -0.062900
     12 O3         -2.9700    0.9500   -0.0630 oh        1 HQD     -0.500100
     13 O13        -0.6580    2.4870   -0.0800 o         1 HQD     -0.586100
     14 HC1        -2.8630   -2.4950    0.9370 hc        1 HQD      0.062033
     15 HC2        -3.7570   -1.2300   -0.0130 hc        1 HQD      0.062033
     16 HC3        -2.8460   -2.5420   -0.8810 hc        1 HQD      0.062033
     17 H3         -2.8370    1.9140   -0.0860 ho        1 HQD      0.443000
     18 H5          1.8890    2.3830   -0.0520 ha        1 HQD      0.159000
     19 H6          4.1090    1.2120    0.0000 ha        1 HQD      0.140000
     20 H7          4.1960   -1.2760    0.0660 ha        1 HQD      0.135000
     21 H8          2.1130   -2.6150    0.0800 ha        1 HQD      0.135000
     22 H1N        -0.3310   -2.5980    0.0550 hn        1 HQD      0.451800
@<TRIPOS>BOND
     1    1    2 1   
     2    1    9 1   
     3    1   22 1   
     4    2    3 2   
     5    2   11 1   
     6    3    4 1   
     7    3   12 1   
     8    4   10 1   
     9    4   13 2   
    10    5    6 ar  
    11    5   10 ar  
    12    5   18 1   
    13    6    7 ar  
    14    6   19 1   
    15    7    8 ar  
    16    7   20 1   
    17    8    9 ar  
    18    8   21 1   
    19    9   10 ar  
    20   11   14 1   
    21   11   15 1   
    22   11   16 1   
    23   12   17 1   
@<TRIPOS>SUBSTRUCTURE
     1 HQD         1 TEMP              0 ****  ****    0 ROOT
