@<TRIPOS>MOLECULE
HQD
   22    23     1     0     0
SMALL
bcc


@<TRIPOS>ATOM
      1 N1         -0.0070   -0.0540   -0.0350 na        1 HQD     -0.607400
      2 C2          1.3840   -0.0390   -0.0620 cc        1 HQD      0.108800
      3 C3          2.0900   -0.0150    1.1170 cd        1 HQD     -0.076100
      4 C4          1.4380   -0.0050    2.4320 c         1 HQD      0.569900
      5 C5         -0.7590   -0.0130    3.5980 ca        1 HQD     -0.034000
      6 C6         -2.1430   -0.0290    3.5810 ca        1 HQD     -0.185000
      7 C7         -2.8240   -0.0530    2.3550 ca        1 HQD     -0.062000
      8 C8         -2.1340   -0.0610    1.1570 ca        1 HQD     -0.205000
      9 C9         -0.7120   -0.0460    1.1580 ca        1 HQD      0.198600
     10 C10        -0.0240   -0.0210    2.4000 ca        1 HQD     -0.212600
     11 C           2.0610   -0.0490   -1.3910 c3        1 HQD     -0.062900
     12 O3          3.4680   -0.0010    1.0550 oh        1 HQD     -0.500100
     13 O13         2.1130    0.0170    3.4780 o         1 HQD     -0.586100
     14 HC1         1.7900   -0.9700   -1.9660 hc        1 HQD      0.062033
     15 HC2         1.7690    0.8490   -1.9900 hc        1 HQD      0.062033
     16 HC3         3.1710   -0.0350   -1.2440 hc        1 HQD      0.062033
     17 H3          3.7890    0.0150    1.9730 ho        1 HQD      0.443000
     18 H5         -0.2000    0.0060    4.5490 ha        1 HQD      0.159000
     19 H6         -2.7110   -0.0220    4.5220 ha        1 HQD      0.140000
     20 H7         -3.9250   -0.0650    2.3480 ha        1 HQD      0.135000
     21 H8         -2.6840   -0.0800    0.2050 ha        1 HQD      0.135000
     22 H1N        -0.5020   -0.0710   -0.8960 hn        1 HQD      0.451800
@<TRIPOS>BOND
     1    1    2 1   
     2    1    9 1   
     3    1   22 1   
     4    2    3 2   
     5    2   11 1   
     6    3    4 1   
     7    3   12 1   
     8    4   10 1   
     9    4   13 2   
    10    5    6 ar  
    11    5   10 ar  
    12    5   18 1   
    13    6    7 ar  
    14    6   19 1   
    15    7    8 ar  
    16    7   20 1   
    17    8    9 ar  
    18    8   21 1   
    19    9   10 ar  
    20   11   14 1   
    21   11   15 1   
    22   11   16 1   
    23   12   17 1   
@<TRIPOS>SUBSTRUCTURE
     1 HQD         1 TEMP              0 ****  ****    0 ROOT
