@<TRIPOS>MOLECULE
HQD
   22    23     1     0     0
SMALL
bcc


@<TRIPOS>ATOM
      1 N1         -0.0080   -0.0510   -0.0350 na        1 HQD     -0.607400
      2 C2          1.3830   -0.0340   -0.0630 cc        1 HQD      0.108800
      3 C3          2.0900   -0.0130    1.1160 cd        1 HQD     -0.076100
      4 C4          1.4380   -0.0060    2.4310 c         1 HQD      0.569900
      5 C5         -0.7570   -0.0200    3.5990 ca        1 HQD     -0.034000
      6 C6         -2.1410   -0.0370    3.5820 ca        1 HQD     -0.185000
      7 C7         -2.8240   -0.0590    2.3570 ca        1 HQD     -0.062000
      8 C8         -2.1340   -0.0640    1.1590 ca        1 HQD     -0.205000
      9 C9         -0.7120   -0.0460    1.1580 ca        1 HQD      0.198600
     10 C10        -0.0230   -0.0240    2.4000 ca        1 HQD     -0.212600
     11 C           2.0600   -0.0400   -1.3920 c3        1 HQD     -0.062900
     12 O3          3.4680    0.0040    1.0520 oh        1 HQD     -0.500100
     13 O13         2.1140    0.0130    3.4770 o         1 HQD     -0.586100
     14 HC1         1.7860   -0.9580   -1.9700 hc        1 HQD      0.062367
     15 HC2         1.7680    0.8600   -1.9880 hc        1 HQD      0.062367
     16 HC3         3.1690   -0.0280   -1.2460 hc        1 HQD      0.062367
     17 H3          3.7900    0.0170    1.9710 ho        1 HQD      0.443000
     18 H5         -0.1980   -0.0030    4.5500 ha        1 HQD      0.159000
     19 H6         -2.7090   -0.0340    4.5240 ha        1 HQD      0.140000
     20 H7         -3.9250   -0.0730    2.3500 ha        1 HQD      0.135000
     21 H8         -2.6850   -0.0810    0.2070 ha        1 HQD      0.135000
     22 H1N        -0.5040   -0.0660   -0.8960 hn        1 HQD      0.451800
@<TRIPOS>BOND
     1    1    2 1   
     2    1    9 1   
     3    1   22 1   
     4    2    3 2   
     5    2   11 1   
     6    3    4 1   
     7    3   12 1   
     8    4   10 1   
     9    4   13 2   
    10    5    6 ar  
    11    5   10 ar  
    12    5   18 1   
    13    6    7 ar  
    14    6   19 1   
    15    7    8 ar  
    16    7   20 1   
    17    8    9 ar  
    18    8   21 1   
    19    9   10 ar  
    20   11   14 1   
    21   11   15 1   
    22   11   16 1   
    23   12   17 1   
@<TRIPOS>SUBSTRUCTURE
     1 HQD         1 TEMP              0 ****  ****    0 ROOT
