@<TRIPOS>MOLECULE
HQE
   14    14     1     0     0
SMALL
bcc


@<TRIPOS>ATOM
      1 C1          0.6110    1.2670   -0.0760 ca        1 HQE     -0.148500
      2 C2         -0.7760    1.1690   -0.0780 ca        1 HQE     -0.148500
      3 C3         -1.3830   -0.0950   -0.1120 ca        1 HQE      0.089100
      4 O3         -2.7510   -0.2630   -0.1160 oh        1 HQE     -0.499100
      5 C4         -0.6110   -1.2680   -0.1440 ca        1 HQE     -0.148500
      6 C5          0.7760   -1.1690   -0.1420 ca        1 HQE     -0.148500
      7 C6          1.3830    0.0950   -0.1080 ca        1 HQE      0.089100
      8 O6          2.7510    0.2630   -0.1040 oh        1 HQE     -0.499100
      9 H1          1.1110    2.2460   -0.0500 ha        1 HQE      0.144500
     10 H2         -1.3920    2.0790   -0.0530 ha        1 HQE      0.144500
     11 H3         -3.1570    0.6150   -0.0920 ho        1 HQE      0.418000
     12 H4         -1.1100   -2.2460   -0.1700 ha        1 HQE      0.144500
     13 H5          1.3920   -2.0790   -0.1670 ha        1 HQE      0.144500
     14 H6          3.1570   -0.6160   -0.1280 ho        1 HQE      0.418000
@<TRIPOS>BOND
     1    1    2 ar  
     2    1    7 ar  
     3    1    9 1   
     4    2    3 ar  
     5    2   10 1   
     6    3    4 1   
     7    3    5 ar  
     8    4   11 1   
     9    5    6 ar  
    10    5   12 1   
    11    6    7 ar  
    12    6   13 1   
    13    7    8 1   
    14    8   14 1   
@<TRIPOS>SUBSTRUCTURE
     1 HQE         1 TEMP              0 ****  ****    0 ROOT
