@<TRIPOS>MOLECULE
HQE
   14    14     1     0     0
SMALL
bcc


@<TRIPOS>ATOM
      1 C1         -0.0030    0.0210   -0.1260 ca        1 HQE     -0.149000
      2 C2          1.3840    0.0190   -0.1260 ca        1 HQE     -0.149000
      3 C3          2.0770    0.1180    1.0950 ca        1 HQE      0.090100
      4 O3          3.4530    0.1100    1.0170 oh        1 HQE     -0.498100
      5 C4          1.3880    0.2170    2.3090 ca        1 HQE     -0.149000
      6 C5         -0.0050    0.2180    2.3090 ca        1 HQE     -0.149000
      7 C6         -0.6950    0.1200    1.0950 ca        1 HQE      0.090100
      8 O6         -2.0710    0.1150    1.0180 oh        1 HQE     -0.498100
      9 H1         -0.5710   -0.0550   -1.0640 ha        1 HQE      0.144500
     10 H2          1.9510   -0.0570   -1.0650 ha        1 HQE      0.144500
     11 H3          3.8010    0.1830    1.9170 ho        1 HQE      0.417000
     12 H4          1.9390    0.2930    3.2570 ha        1 HQE      0.144500
     13 H5         -0.5560    0.2950    3.2580 ha        1 HQE      0.144500
     14 H6         -2.4180    0.1890    1.9190 ho        1 HQE      0.417000
@<TRIPOS>BOND
     1    1    2 ar  
     2    1    7 ar  
     3    1    9 1   
     4    2    3 ar  
     5    2   10 1   
     6    3    4 1   
     7    3    5 ar  
     8    4   11 1   
     9    5    6 ar  
    10    5   12 1   
    11    6    7 ar  
    12    6   13 1   
    13    7    8 1   
    14    8   14 1   
@<TRIPOS>SUBSTRUCTURE
     1 HQE         1 TEMP              0 ****  ****    0 ROOT
