@<TRIPOS>MOLECULE
HQE
   14    11     1     0     0
SMALL
bcc


@<TRIPOS>ATOM
      1 C1         -0.6930    0.0000   -1.2000 c1        1 HQE     -0.118500
      2 C2          0.6930    0.0000   -1.2000 c1        1 HQE     -0.118500
      3 C3          1.3860    0.0000   -0.0000 c1        1 HQE      0.073600
      4 O3          2.7930    0.0080   -0.0000 oh        1 HQE     -0.481600
      5 C4          0.6930    0.0000    1.2000 c1        1 HQE     -0.064500
      6 C5         -0.6930    0.0000    1.2000 c1        1 HQE     -0.064500
      7 C6         -1.3860    0.0000   -0.0000 c1        1 HQE      0.073600
      8 O6         -2.7930   -0.0100   -0.0000 oh        1 HQE     -0.481600
      9 H1         -1.1810    0.0000   -2.0460 ha        1 HQE      0.077500
     10 H2          1.1810    0.0000   -2.0460 ha        1 HQE      0.077500
     11 H3          3.0930   -0.8280   -0.0000 ho        1 HQE      0.417000
     12 H4          1.1810    0.0000    2.0460 ha        1 HQE      0.096500
     13 H5         -1.1810    0.0000    2.0460 ha        1 HQE      0.096500
     14 H6         -3.0950    0.8250    0.0000 ho        1 HQE      0.417000
@<TRIPOS>BOND
     1    1    7 3   
     2    1    9 1   
     3    2    3 3   
     4    2   10 1   
     5    3    4 1   
     6    4   11 1   
     7    5    6 3   
     8    5   12 1   
     9    6   13 1   
    10    7    8 1   
    11    8   14 1   
@<TRIPOS>SUBSTRUCTURE
     1 HQE         1 TEMP              0 ****  ****    0 ROOT
