@<TRIPOS>MOLECULE
HQI
   26    26     1     0     0
SMALL
bcc


@<TRIPOS>ATOM
      1 N1         -0.4090    0.4090   -0.2960 n4        1 HQI     -0.034000
      2 N2         -3.9070   -1.3890    2.6780 n2        1 HQI     -0.327000
      3 CAA         2.1050    0.0890   -0.0180 c3        1 HQI     -0.258000
      4 OAB         0.8120    1.9190    0.9740 o         1 HQI     -0.189000
      5 CAD        -3.1960    1.5940    2.1390 c2        1 HQI     -0.080000
      6 CAE        -4.9330   -1.2920    3.2690 c1        1 HQI      0.236000
      7 CAF        -0.7430   -2.9790    1.3040 c3        1 HQI     -0.204000
      8 CAG        -0.2580   -1.8510    0.5420 c1        1 HQI     -0.164000
      9 CAH        -2.9230    0.7840    1.1130 c2        1 HQI     -0.268000
     10 CAK         0.9030    0.9020    0.3050 c2        1 HQI      0.284000
     11 CAL        -2.0190   -2.7760    2.0420 c2        1 HQI      0.171000
     12 CAM        -0.9850   -0.6700    0.5160 c2        1 HQI     -0.273000
     13 CAN        -2.1970   -0.4750    1.2150 c2        1 HQI      0.201000
     14 CAO        -2.7230   -1.5530    1.9980 c2        1 HQI     -0.020000
     15 HN1        -1.0720    1.1900   -0.3650 hn        1 HQI      0.252500
     16 HAA         1.8930   -1.0090    0.1130 hc        1 HQI      0.159000
     17 HAAA        2.4160    0.2750   -1.0790 hc        1 HQI      0.159000
     18 HAAB        2.9400    0.3960    0.6640 hc        1 HQI      0.159000
     19 HOAC       -1.9540   -4.5650    2.7200 ho        1 HQI      0.263000
     20 HAD        -2.8760    1.3910    3.1720 ha        1 HQI      0.148500
     21 HAE        -3.7540    2.5330    1.9980 ha        1 HQI      0.148500
     22 HAF        -0.8560   -3.8500    0.5840 hc        1 HQI      0.200000
     23 HAG         0.0730   -3.2830    2.0320 hc        1 HQI      0.200000
     24 HAH        -3.2860    1.0170    0.0930 ha        1 HQI      0.159000
     25 H12        -0.2200    0.0270   -1.2300 hn        1 HQI      0.252500
     26 OAC        -2.5330   -3.7810    2.7760 oh        1 HQI     -0.176000
@<TRIPOS>BOND
     1    1   10 1   
     2    1   12 1   
     3    1   15 1   
     4    1   25 1   
     5    2    6 1   
     6    2   14 1   
     7    3   10 1   
     8    3   16 1   
     9    3   17 1   
    10    3   18 1   
    11    4   10 1   
    12    5    9 1   
    13    5   20 1   
    14    5   21 1   
    15    7    8 1   
    16    7   11 1   
    17    7   22 1   
    18    7   23 1   
    19    8   12 1   
    20    9   13 1   
    21    9   24 1   
    22   11   14 1   
    23   11   26 1   
    24   12   13 1   
    25   13   14 1   
    26   19   26 1   
@<TRIPOS>SUBSTRUCTURE
     1 HQI         1 TEMP              0 ****  ****    0 ROOT
