@<TRIPOS>MOLECULE
HQI
   25    25     1     0     0
SMALL
bcc


@<TRIPOS>ATOM
      1 N1         -0.0210   -0.5800   -0.2310 ns        1 HQI     -0.288000
      2 N2         -3.5810   -0.7860    3.1340 n2        1 HQI     -0.282000
      3 CAA         1.6940    0.9730   -1.0970 c3        1 HQI     -0.244000
      4 OAB         0.6460    1.2320    1.0510 o         1 HQI     -0.364000
      5 CAD        -3.4550    0.9570    0.5330 c2        1 HQI     -0.175000
      6 CAE        -4.4730   -0.2790    3.7220 c1        1 HQI      0.145000
      7 CAF        -1.0090   -3.3530    2.0900 c3        1 HQI     -0.199000
      8 CAG        -0.3310   -2.5850    1.0680 c1        1 HQI     -0.137000
      9 CAH        -2.2810    0.6720    1.0930 c2        1 HQI     -0.167000
     10 CAK         0.7560    0.5540    0.0110 c2        1 HQI      0.292000
     11 CAL        -2.1320   -2.6880    2.8000 c2        1 HQI      0.063000
     12 CAM        -0.7330   -1.2560    0.7930 c2        1 HQI     -0.081000
     13 CAN        -1.8300   -0.6740    1.4300 c2        1 HQI      0.131000
     14 CAO        -2.5350   -1.4020    2.4780 c2        1 HQI     -0.008000
     15 HN1         0.3370   -1.2060   -0.9240 hn        1 HQI      0.230000
     16 HAA         1.1330    1.1310   -2.0490 hc        1 HQI      0.107333
     17 HAAA        2.4760    0.1930   -1.2570 hc        1 HQI      0.107333
     18 HAAB        2.1900    1.9300   -0.8030 hc        1 HQI      0.107333
     19 HOAC       -2.3720   -4.2400    3.8820 ho        1 HQI      0.229000
     20 HAD        -4.2050    0.1960    0.2810 ha        1 HQI      0.120500
     21 HAE        -3.7360    1.9890    0.2810 ha        1 HQI      0.120500
     22 HAF        -0.2210   -3.6670    2.8410 hc        1 HQI      0.169500
     23 HAG        -1.3850   -4.3020    1.6010 hc        1 HQI      0.169500
     24 HAH        -1.5350    1.4620    1.3210 ha        1 HQI      0.180000
     25 OAC        -2.7800   -3.3640    3.7960 oh        1 HQI     -0.224000
@<TRIPOS>BOND
     1    1   10 1   
     2    1   12 1   
     3    1   15 1   
     4    2    6 1   
     5    2   14 1   
     6    3   10 1   
     7    3   16 1   
     8    3   17 1   
     9    3   18 1   
    10    4   10 1   
    11    5    9 1   
    12    5   20 1   
    13    5   21 1   
    14    7    8 1   
    15    7   11 1   
    16    7   22 1   
    17    7   23 1   
    18    8   12 1   
    19    9   13 1   
    20    9   24 1   
    21   11   14 1   
    22   11   25 1   
    23   12   13 1   
    24   13   14 1   
    25   19   25 1   
@<TRIPOS>SUBSTRUCTURE
     1 HQI         1 TEMP              0 ****  ****    0 ROOT
