@<TRIPOS>MOLECULE
HQI
   25    23     1     0     0
SMALL
bcc


@<TRIPOS>ATOM
      1 N1          1.0330    0.8360   -1.0080 n         1 HQI     -0.333000
      2 N2         -2.4100   -0.5530    2.0680 n1        1 HQI     -0.096000
      3 CAA         3.0820    1.7040   -2.2290 c3        1 HQI     -0.246000
      4 OAB         2.8210   -0.5130   -1.4440 o         1 HQI     -0.350000
      5 OAC        -2.3140   -3.0750    1.1520 oh        1 HQI     -0.221000
      6 CAD        -1.5410    1.6680    2.1730 c1        1 HQI     -0.119500
      7 CAE        -2.4340    0.6970    2.6160 c1        1 HQI     -0.119500
      8 CAF        -0.5530   -2.4550   -0.4850 c1        1 HQI     -0.206000
      9 CAG         0.3410   -1.4850   -0.9290 c1        1 HQI     -0.104000
     10 CAH        -0.6390    1.3700    1.1890 c1        1 HQI     -0.098000
     11 CAK         2.3270    0.5930   -1.5350 c2        1 HQI      0.307000
     12 CAL        -1.4710   -2.1490    0.5110 c2        1 HQI      0.097000
     13 CAM         0.3160   -0.2120   -0.3770 c2        1 HQI      0.045000
     14 CAN        -0.6150    0.1000    0.6330 c2        1 HQI     -0.073000
     15 CAO        -1.4980   -0.8580    1.0720 c2        1 HQI      0.000000
     16 HN1         0.6620    1.6660   -1.0760 hn        1 HQI      0.229000
     17 HAA         2.8700    2.5600   -1.8020 hc        1 HQI      0.108000
     18 HAAA        4.0450    1.5360   -2.1630 hc        1 HQI      0.108000
     19 HAAB        2.8200    1.7360   -3.1730 hc        1 HQI      0.108000
     20 HOAC       -2.6460   -3.6400    0.5500 ho        1 HQI      0.215000
     21 HAD        -1.5580    2.5620    2.5650 ha        1 HQI      0.154000
     22 HAE        -3.0770    0.9100    3.3180 ha        1 HQI      0.154000
     23 HAF        -0.5350   -3.3500   -0.8740 ha        1 HQI      0.141000
     24 HAG         0.9860   -1.7010   -1.6300 ha        1 HQI      0.171000
     25 HAH        -0.0120    2.0510    0.8790 ha        1 HQI      0.128000
@<TRIPOS>BOND
     1    1   11 1   
     2    1   13 1   
     3    1   16 1   
     4    2   15 1   
     5    3   11 1   
     6    3   17 1   
     7    3   18 1   
     8    3   19 1   
     9    4   11 1   
    10    5   12 1   
    11    5   20 1   
    12    6    7 1   
    13    6   21 1   
    14    7   22 1   
    15    8   12 1   
    16    8   23 1   
    17    9   13 1   
    18    9   24 1   
    19   10   14 1   
    20   10   25 1   
    21   12   15 1   
    22   13   14 1   
    23   14   15 1   
@<TRIPOS>SUBSTRUCTURE
     1 HQI         1 TEMP              0 ****  ****    0 ROOT
