@<TRIPOS>MOLECULE
HQI
   25    26     1     0     0
SMALL
bcc


@<TRIPOS>ATOM
      1 N1         -2.0110   -0.5170   -0.3200 n         1 HQI     -0.479100
      2 N2          2.8820   -0.4590    0.1820 nb        1 HQI     -0.674000
      3 CAA        -4.4130   -1.0370   -0.1810 c3        1 HQI     -0.178100
      4 OAB        -3.4770    1.0680    0.5100 o         1 HQI     -0.587100
      5 CAD         1.7080   -2.5780    0.2170 ca        1 HQI     -0.244300
      6 CAE         2.8910   -1.7750    0.2550 ca        1 HQI      0.415200
      7 CAF         0.4300    2.2940   -0.1190 ca        1 HQI     -0.146000
      8 CAG        -0.7760    1.5880   -0.2140 ca        1 HQI     -0.107000
      9 CAH         0.4960   -1.9520    0.0850 ca        1 HQI     -0.088000
     10 CAK        -3.2750   -0.0660    0.0400 c         1 HQI      0.663100
     11 CAL         1.6360    1.6220    0.0020 ca        1 HQI      0.074800
     12 CAM        -0.8050    0.1940   -0.1770 ca        1 HQI      0.037600
     13 CAN         0.4270   -0.5280   -0.0160 ca        1 HQI     -0.135300
     14 CAO         1.6650    0.1870    0.0550 ca        1 HQI      0.348600
     15 HN1        -1.9380   -1.4430   -0.6720 hn        1 HQI      0.314500
     16 HAA        -4.2630   -1.9630    0.4250 hc        1 HQI      0.068700
     17 HAAA       -5.3640   -0.5460    0.1390 hc        1 HQI      0.068700
     18 HAAB       -4.4920   -1.3120   -1.2600 hc        1 HQI      0.068700
     19 HOAC        3.5420    1.8370    0.1640 ho        1 HQI      0.443000
     20 HAD         1.7930   -3.6690    0.3000 ha        1 HQI      0.146000
     21 HAE         3.8820   -2.2560    0.3530 h4        1 HQI      0.025100
     22 HAF         0.4230    3.3940   -0.1460 ha        1 HQI      0.158000
     23 HAG        -1.7120    2.1670   -0.3080 ha        1 HQI      0.172000
     24 HAH        -0.4200   -2.5600    0.0750 ha        1 HQI      0.129000
     25 OAC         2.7620    2.4040    0.0650 oh        1 HQI     -0.495100
@<TRIPOS>BOND
     1    1   10 1   
     2    1   12 1   
     3    1   15 1   
     4    2    6 ar  
     5    2   14 ar  
     6    3   10 1   
     7    3   16 1   
     8    3   17 1   
     9    3   18 1   
    10    4   10 2   
    11    5    6 ar  
    12    5    9 ar  
    13    5   20 1   
    14    6   21 1   
    15    7    8 ar  
    16    7   11 ar  
    17    7   22 1   
    18    8   12 ar  
    19    8   23 1   
    20    9   13 ar  
    21    9   24 1   
    22   11   14 ar  
    23   11   25 1   
    24   12   13 ar  
    25   13   14 ar  
    26   19   25 1   
@<TRIPOS>SUBSTRUCTURE
     1 HQI         1 TEMP              0 ****  ****    0 ROOT
