@<TRIPOS>MOLECULE
HQI
   25    25     1     0     0
SMALL
bcc


@<TRIPOS>ATOM
      1 N1         -0.0420   -0.5820   -0.2860 n         1 HQI     -0.288000
      2 N2         -3.4380   -0.8800    3.2400 n2        1 HQI     -0.298000
      3 CAA         1.6810    0.9690   -1.1360 c3        1 HQI     -0.244000
      4 OAB         0.7270    1.1390    1.0630 o         1 HQI     -0.366000
      5 CAD        -3.3800    1.0130    0.7110 c2        1 HQI     -0.180000
      6 CAE        -4.2740   -0.3360    3.8780 c1        1 HQI      0.140000
      7 CAF        -1.0260   -3.4660    1.9000 c3        1 HQI     -0.165000
      8 CAG        -0.3760   -2.6550    0.8980 c1        1 HQI     -0.138000
      9 CAH        -2.1990    0.6610    1.2160 c2        1 HQI     -0.165000
     10 CAK         0.7750    0.5150   -0.0150 c2        1 HQI      0.292000
     11 CAL        -2.0820   -2.8010    2.7130 c2        1 HQI      0.095000
     12 CAM        -0.7350   -1.2950    0.7270 c2        1 HQI     -0.078000
     13 CAN        -1.7770   -0.7160    1.4500 c2        1 HQI      0.131000
     14 CAO        -2.4510   -1.4850    2.4870 c2        1 HQI     -0.074000
     15 HN1         0.2690   -1.1780   -1.0270 hn        1 HQI      0.230000
     16 HAA         1.0890    1.1920   -2.0560 hc        1 HQI      0.107000
     17 HAAA        2.4340    0.1770   -1.3690 hc        1 HQI      0.107000
     18 HAAB        2.2160    1.8950   -0.8130 hc        1 HQI      0.107000
     19 HOAC       -3.2690   -3.1640    4.1920 ho        1 HQI      0.238000
     20 HAD        -4.1570    0.2900    0.4320 ha        1 HQI      0.120000
     21 HAE        -3.6390    2.0660    0.5360 ha        1 HQI      0.120000
     22 HAF        -0.2260   -3.8720    2.5910 hc        1 HQI      0.181500
     23 HAG        -1.4710   -4.3700    1.3840 hc        1 HQI      0.181500
     24 HAH        -1.4250    1.4140    1.4720 ha        1 HQI      0.180000
     25 OAC        -2.6060   -3.6280    3.6560 oh        1 HQI     -0.233000
@<TRIPOS>BOND
     1    1   10 1   
     2    1   12 1   
     3    1   15 1   
     4    2    6 1   
     5    2   14 1   
     6    3   10 1   
     7    3   16 1   
     8    3   17 1   
     9    3   18 1   
    10    4   10 1   
    11    5    9 1   
    12    5   20 1   
    13    5   21 1   
    14    7    8 1   
    15    7   11 1   
    16    7   22 1   
    17    7   23 1   
    18    8   12 1   
    19    9   13 1   
    20    9   24 1   
    21   11   14 1   
    22   11   25 1   
    23   12   13 1   
    24   13   14 1   
    25   19   25 1   
@<TRIPOS>SUBSTRUCTURE
     1 HQI         1 TEMP              0 ****  ****    0 ROOT
