@<TRIPOS>MOLECULE
HQL
   55    58     1     0     0
SMALL
bcc


@<TRIPOS>ATOM
      1 C1         -0.3820    0.6020    0.1100 ca        1 HQL     -0.126000
      2 C2          0.9690    0.2890   -0.0530 ca        1 HQL     -0.132500
      3 C3          1.7740    0.0640    1.0610 ca        1 HQL     -0.112000
      4 C4          1.2320    0.1560    2.3490 ca        1 HQL     -0.096300
      5 C5          2.1230   -0.0850    3.5370 c3        1 HQL      0.234700
      6 O1          1.2980   -0.6160    4.5820 os        1 HQL     -0.416600
      7 C6          2.0390   -1.2430    5.6340 c3        1 HQL      0.138100
      8 C7          1.1280   -1.2200    6.8570 c3        1 HQL     -0.091400
      9 C8          1.7700   -1.9890    8.0080 c3        1 HQL      0.174300
     10 N1          2.1480   -3.3490    7.6530 n3        1 HQL     -0.742600
     11 C9          2.7120   -4.0840    8.7760 c3        1 HQL      0.169800
     12 C10         1.6480   -4.7380    9.6610 c3        1 HQL     -0.074400
     13 C11         0.9780   -5.9210    8.9900 c3        1 HQL     -0.111700
     14 C12         1.8370   -7.1320    9.0130 cc        1 HQL      0.398800
     15 N2          1.9800   -8.0130   10.1070 na        1 HQL     -0.193400
     16 N3          2.8350   -8.9830    9.7540 nc        1 HQL     -0.197800
     17 N4          3.2100   -8.7480    8.5500 nd        1 HQL     -0.051000
     18 N5          2.6490   -7.6520    8.0420 nd        1 HQL     -0.378000
     19 C13         2.9810   -3.4170    6.4600 c3        1 HQL      0.174300
     20 C14         2.3820   -2.6810    5.2650 c3        1 HQL     -0.091400
     21 C15         2.8090    1.1850    3.9660 ca        1 HQL     -0.096300
     22 C16         4.0380    1.5330    3.3920 ca        1 HQL     -0.112000
     23 C17         4.6780    2.7120    3.7690 ca        1 HQL     -0.132500
     24 C18         4.0970    3.5500    4.7210 ca        1 HQL     -0.126000
     25 C19         2.8740    3.2060    5.2960 ca        1 HQL     -0.132500
     26 C20         2.2310    2.0280    4.9200 ca        1 HQL     -0.112000
     27 C21        -0.1210    0.4690    2.5100 ca        1 HQL     -0.112000
     28 C22        -0.9240    0.6890    1.3910 ca        1 HQL     -0.132500
     29 H1         -1.0160    0.7770   -0.7710 ha        1 HQL      0.130500
     30 H2          1.3990    0.2180   -1.0630 ha        1 HQL      0.131250
     31 H3          2.8380   -0.1830    0.9300 ha        1 HQL      0.137000
     32 H5          2.9070   -0.8520    3.2630 h1        1 HQL      0.050700
     33 H6          2.9790   -0.6580    5.8410 h1        1 HQL      0.047700
     34 H71         0.1380   -1.6690    6.5880 hc        1 HQL      0.058700
     35 H72         0.9510   -0.1620    7.1770 hc        1 HQL      0.058700
     36 H81         1.0300   -2.0510    8.8550 h1        1 HQL      0.033700
     37 H82         2.6600   -1.3970    8.3790 h1        1 HQL      0.033700
     38 H91         3.3410   -3.4130    9.4330 h1        1 HQL      0.043700
     39 H92         3.3880   -4.8980    8.3860 h1        1 HQL      0.043700
     40 H101        2.1450   -5.0630   10.6120 hc        1 HQL      0.048200
     41 H102        0.8570   -3.9900    9.9330 hc        1 HQL      0.048200
     42 H111        0.0100   -6.1510    9.5130 hc        1 HQL      0.082700
     43 H112        0.7340   -5.6680    7.9210 hc        1 HQL      0.082700
     44 H131        3.0970   -4.5040    6.1880 h1        1 HQL      0.033700
     45 H132        4.0130   -2.9990    6.6560 h1        1 HQL      0.033700
     46 H141        3.1240   -2.7010    4.4270 hc        1 HQL      0.058700
     47 H142        1.4530   -3.2000    4.9120 hc        1 HQL      0.058700
     48 H16         4.4960    0.8760    2.6380 ha        1 HQL      0.137000
     49 H17         5.6410    2.9820    3.3130 ha        1 HQL      0.131250
     50 H18         4.6030    4.4810    5.0160 ha        1 HQL      0.130500
     51 H19         2.4130    3.8660    6.0460 ha        1 HQL      0.131250
     52 H20         1.2660    1.7470    5.3700 ha        1 HQL      0.137000
     53 H21        -0.5450    0.5300    3.5240 ha        1 HQL      0.137000
     54 H22        -1.9890    0.9320    1.5230 ha        1 HQL      0.131250
     55 HN1         1.5450   -7.9790   10.9980 hn        1 HQL      0.330700
@<TRIPOS>BOND
     1    1    2 ar  
     2    1   28 ar  
     3    1   29 1   
     4    2    3 ar  
     5    2   30 1   
     6    3    4 ar  
     7    3   31 1   
     8    4    5 1   
     9    4   27 ar  
    10    5    6 1   
    11    5   21 1   
    12    5   32 1   
    13    6    7 1   
    14    7    8 1   
    15    7   20 1   
    16    7   33 1   
    17    8    9 1   
    18    8   34 1   
    19    8   35 1   
    20    9   10 1   
    21    9   36 1   
    22    9   37 1   
    23   10   11 1   
    24   10   19 1   
    25   11   12 1   
    26   11   38 1   
    27   11   39 1   
    28   12   13 1   
    29   12   40 1   
    30   12   41 1   
    31   13   14 1   
    32   13   42 1   
    33   13   43 1   
    34   14   15 1   
    35   14   18 2   
    36   15   16 1   
    37   15   55 1   
    38   16   17 2   
    39   17   18 1   
    40   19   20 1   
    41   19   44 1   
    42   19   45 1   
    43   20   46 1   
    44   20   47 1   
    45   21   22 ar  
    46   21   26 ar  
    47   22   23 ar  
    48   22   48 1   
    49   23   24 ar  
    50   23   49 1   
    51   24   25 ar  
    52   24   50 1   
    53   25   26 ar  
    54   25   51 1   
    55   26   52 1   
    56   27   28 ar  
    57   27   53 1   
    58   28   54 1   
@<TRIPOS>SUBSTRUCTURE
     1 HQL         1 TEMP              0 ****  ****    0 ROOT
