@<TRIPOS>MOLECULE
HQL
   55    58     1     0     0
SMALL
bcc


@<TRIPOS>ATOM
      1 C1         -0.3870    0.6010    0.1130 ca        1 HQL     -0.126000
      2 C2          0.9630    0.2900   -0.0520 ca        1 HQL     -0.132500
      3 C3          1.7700    0.0650    1.0620 ca        1 HQL     -0.112000
      4 C4          1.2300    0.1570    2.3500 ca        1 HQL     -0.096300
      5 C5          2.1230   -0.0850    3.5370 c3        1 HQL      0.234700
      6 O1          1.2990   -0.6150    4.5830 os        1 HQL     -0.416600
      7 C6          2.0410   -1.2430    5.6340 c3        1 HQL      0.138100
      8 C7          1.1320   -1.2190    6.8590 c3        1 HQL     -0.091400
      9 C8          1.7750   -1.9880    8.0080 c3        1 HQL      0.174300
     10 N1          2.1500   -3.3500    7.6530 n3        1 HQL     -0.742600
     11 C9          2.7160   -4.0850    8.7750 c3        1 HQL      0.169800
     12 C10         1.6520   -4.7370    9.6620 c3        1 HQL     -0.074400
     13 C11         0.9790   -5.9190    8.9920 c3        1 HQL     -0.111700
     14 C12         1.8350   -7.1320    9.0140 cc        1 HQL      0.398800
     15 N2          1.9750   -8.0140   10.1080 na        1 HQL     -0.193400
     16 N3          2.8290   -8.9860    9.7540 nc        1 HQL     -0.197800
     17 N4          3.2050   -8.7510    8.5510 nd        1 HQL     -0.051000
     18 N5          2.6470   -7.6520    8.0430 nd        1 HQL     -0.378000
     19 C13         2.9820   -3.4180    6.4580 c3        1 HQL      0.174300
     20 C14         2.3810   -2.6810    5.2640 c3        1 HQL     -0.091400
     21 C15         2.8090    1.1850    3.9650 ca        1 HQL     -0.096300
     22 C16         4.0370    1.5320    3.3900 ca        1 HQL     -0.112000
     23 C17         4.6780    2.7120    3.7650 ca        1 HQL     -0.132500
     24 C18         4.0990    3.5500    4.7170 ca        1 HQL     -0.126000
     25 C19         2.8760    3.2070    5.2940 ca        1 HQL     -0.132500
     26 C20         2.2320    2.0290    4.9190 ca        1 HQL     -0.112000
     27 C21        -0.1230    0.4680    2.5130 ca        1 HQL     -0.112000
     28 C22        -0.9280    0.6890    1.3950 ca        1 HQL     -0.132500
     29 H1         -1.0220    0.7770   -0.7670 ha        1 HQL      0.130500
     30 H2          1.3920    0.2190   -1.0620 ha        1 HQL      0.131250
     31 H3          2.8340   -0.1820    0.9290 ha        1 HQL      0.137000
     32 H5          2.9060   -0.8520    3.2620 h1        1 HQL      0.050700
     33 H6          2.9820   -0.6590    5.8390 h1        1 HQL      0.047700
     34 H71         0.1400   -1.6670    6.5910 hc        1 HQL      0.058700
     35 H72         0.9570   -0.1610    7.1790 hc        1 HQL      0.058700
     36 H81         2.6670   -1.3980    8.3780 h1        1 HQL      0.033700
     37 H82         1.0360   -2.0500    8.8560 h1        1 HQL      0.033700
     38 H91         3.3470   -3.4150    9.4300 h1        1 HQL      0.043700
     39 H92         3.3900   -4.9000    8.3830 h1        1 HQL      0.043700
     40 H101        0.8630   -3.9880    9.9350 hc        1 HQL      0.048200
     41 H102        2.1510   -5.0640   10.6120 hc        1 HQL      0.048200
     42 H111        0.7340   -5.6660    7.9230 hc        1 HQL      0.082700
     43 H112        0.0110   -6.1470    9.5160 hc        1 HQL      0.082700
     44 H131        4.0150   -3.0020    6.6520 h1        1 HQL      0.033700
     45 H132        3.0950   -4.5060    6.1860 h1        1 HQL      0.033700
     46 H141        1.4510   -3.2000    4.9130 hc        1 HQL      0.058700
     47 H142        3.1220   -2.7020    4.4250 hc        1 HQL      0.058700
     48 H16         4.4940    0.8750    2.6350 ha        1 HQL      0.137000
     49 H17         5.6410    2.9810    3.3080 ha        1 HQL      0.131250
     50 H18         4.6050    4.4810    5.0120 ha        1 HQL      0.130500
     51 H19         2.4160    3.8670    6.0440 ha        1 HQL      0.131250
     52 H20         1.2680    1.7480    5.3700 ha        1 HQL      0.137000
     53 H21        -0.5470    0.5290    3.5270 ha        1 HQL      0.137000
     54 H22        -1.9930    0.9310    1.5280 ha        1 HQL      0.131250
     55 HN1         1.5400   -7.9800   10.9990 hn        1 HQL      0.330700
@<TRIPOS>BOND
     1    1    2 ar  
     2    1   28 ar  
     3    1   29 1   
     4    2    3 ar  
     5    2   30 1   
     6    3    4 ar  
     7    3   31 1   
     8    4    5 1   
     9    4   27 ar  
    10    5    6 1   
    11    5   21 1   
    12    5   32 1   
    13    6    7 1   
    14    7    8 1   
    15    7   20 1   
    16    7   33 1   
    17    8    9 1   
    18    8   34 1   
    19    8   35 1   
    20    9   10 1   
    21    9   36 1   
    22    9   37 1   
    23   10   11 1   
    24   10   19 1   
    25   11   12 1   
    26   11   38 1   
    27   11   39 1   
    28   12   13 1   
    29   12   40 1   
    30   12   41 1   
    31   13   14 1   
    32   13   42 1   
    33   13   43 1   
    34   14   15 1   
    35   14   18 2   
    36   15   16 1   
    37   15   55 1   
    38   16   17 2   
    39   17   18 1   
    40   19   20 1   
    41   19   44 1   
    42   19   45 1   
    43   20   46 1   
    44   20   47 1   
    45   21   22 ar  
    46   21   26 ar  
    47   22   23 ar  
    48   22   48 1   
    49   23   24 ar  
    50   23   49 1   
    51   24   25 ar  
    52   24   50 1   
    53   25   26 ar  
    54   25   51 1   
    55   26   52 1   
    56   27   28 ar  
    57   27   53 1   
    58   28   54 1   
@<TRIPOS>SUBSTRUCTURE
     1 HQL         1 TEMP              0 ****  ****    0 ROOT
