@<TRIPOS>MOLECULE
HQL
   55    58     1     0     0
SMALL
bcc


@<TRIPOS>ATOM
      1 C1          6.0620    1.9290   -0.7650 ca        1 HQL     -0.126000
      2 C2          5.5140    1.6020   -2.0060 ca        1 HQL     -0.132500
      3 C3          4.5500    0.6000   -2.1030 ca        1 HQL     -0.112000
      4 C4          4.1340   -0.0860   -0.9570 ca        1 HQL     -0.096300
      5 C5          3.0970   -1.1690   -1.0870 c3        1 HQL      0.234700
      6 O1          2.3680   -1.2050    0.1460 os        1 HQL     -0.416600
      7 C6          1.1230   -1.9060    0.0550 c3        1 HQL      0.138100
      8 C7          0.7830   -2.3400    1.4780 c3        1 HQL     -0.091400
      9 C8         -0.6000   -2.9830    1.5170 c3        1 HQL      0.174300
     10 N1         -1.6450   -2.1380    0.9570 n3        1 HQL     -0.742600
     11 C9         -2.9650   -2.7450    1.0480 c3        1 HQL      0.169800
     12 C10        -3.6480   -2.4940    2.3940 c3        1 HQL     -0.074400
     13 C11        -4.1000   -1.0550    2.5600 c3        1 HQL     -0.111700
     14 C12        -5.3440   -0.7740    1.7990 cc        1 HQL      0.398800
     15 N2         -6.6520   -1.0850    2.2270 na        1 HQL     -0.193400
     16 N3         -7.5100   -0.6810    1.2790 nc        1 HQL     -0.197800
     17 N4         -6.8210   -0.1620    0.3300 nd        1 HQL     -0.051000
     18 N5         -5.5110   -0.1830    0.5760 nd        1 HQL     -0.378000
     19 C13        -1.3350   -1.6630   -0.3850 c3        1 HQL      0.174300
     20 C14         0.0310   -0.9910   -0.4860 c3        1 HQL     -0.091400
     21 C15         3.7360   -2.4970   -1.3910 ca        1 HQL     -0.096300
     22 C16         3.9680   -2.8630   -2.7210 ca        1 HQL     -0.112000
     23 C17         4.5730   -4.0840   -3.0170 ca        1 HQL     -0.132500
     24 C18         4.9470   -4.9470   -1.9870 ca        1 HQL     -0.126000
     25 C19         4.7160   -4.5870   -0.6600 ca        1 HQL     -0.132500
     26 C20         4.1130   -3.3660   -0.3610 ca        1 HQL     -0.112000
     27 C21         4.6840    0.2430    0.2860 ca        1 HQL     -0.112000
     28 C22         5.6450    1.2500    0.3790 ca        1 HQL     -0.132500
     29 H1          6.8210    2.7210   -0.6910 ha        1 HQL      0.130500
     30 H2          5.8400    2.1370   -2.9100 ha        1 HQL      0.131250
     31 H3          4.1190    0.3450   -3.0830 ha        1 HQL      0.137000
     32 H5          2.3870   -0.9020   -1.9250 h1        1 HQL      0.050700
     33 H6          1.2400   -2.8090   -0.6070 h1        1 HQL      0.047700
     34 H71         0.8230   -1.4490    2.1550 hc        1 HQL      0.058700
     35 H72         1.5410   -3.0810    1.8370 hc        1 HQL      0.058700
     36 H81        -0.5450   -3.9790    0.9840 h1        1 HQL      0.033700
     37 H82        -0.8690   -3.1890    2.5910 h1        1 HQL      0.033700
     38 H91        -3.6250   -2.3230    0.2380 h1        1 HQL      0.043700
     39 H92        -2.9150   -3.8640    0.8910 h1        1 HQL      0.043700
     40 H101       -4.5280   -3.1860    2.4670 hc        1 HQL      0.048200
     41 H102       -2.9510   -2.7440    3.2370 hc        1 HQL      0.048200
     42 H111       -4.2820   -0.8410    3.6480 hc        1 HQL      0.082700
     43 H112       -3.2920   -0.3570    2.2070 hc        1 HQL      0.082700
     44 H131       -2.1250   -0.9100   -0.6700 h1        1 HQL      0.033700
     45 H132       -1.3760   -2.5050   -1.1390 h1        1 HQL      0.033700
     46 H141        0.2270   -0.7450   -1.5600 hc        1 HQL      0.058700
     47 H142        0.0370   -0.0310    0.0920 hc        1 HQL      0.058700
     48 H16         3.6780   -2.1820   -3.5350 ha        1 HQL      0.137000
     49 H17         4.7550   -4.3650   -4.0640 ha        1 HQL      0.131250
     50 H18         5.4250   -5.9100   -2.2220 ha        1 HQL      0.130500
     51 H19         5.0120   -5.2650    0.1540 ha        1 HQL      0.131250
     52 H20         3.9250   -3.0740    0.6840 ha        1 HQL      0.137000
     53 H21         4.3460   -0.2910    1.1870 ha        1 HQL      0.137000
     54 H22         6.0730    1.5080    1.3590 ha        1 HQL      0.131250
     55 HN1        -6.9490   -1.5160    3.0700 hn        1 HQL      0.330700
@<TRIPOS>BOND
     1    1    2 ar  
     2    1   28 ar  
     3    1   29 1   
     4    2    3 ar  
     5    2   30 1   
     6    3    4 ar  
     7    3   31 1   
     8    4    5 1   
     9    4   27 ar  
    10    5    6 1   
    11    5   21 1   
    12    5   32 1   
    13    6    7 1   
    14    7    8 1   
    15    7   20 1   
    16    7   33 1   
    17    8    9 1   
    18    8   34 1   
    19    8   35 1   
    20    9   10 1   
    21    9   36 1   
    22    9   37 1   
    23   10   11 1   
    24   10   19 1   
    25   11   12 1   
    26   11   38 1   
    27   11   39 1   
    28   12   13 1   
    29   12   40 1   
    30   12   41 1   
    31   13   14 1   
    32   13   42 1   
    33   13   43 1   
    34   14   15 1   
    35   14   18 2   
    36   15   16 1   
    37   15   55 1   
    38   16   17 2   
    39   17   18 1   
    40   19   20 1   
    41   19   44 1   
    42   19   45 1   
    43   20   46 1   
    44   20   47 1   
    45   21   22 ar  
    46   21   26 ar  
    47   22   23 ar  
    48   22   48 1   
    49   23   24 ar  
    50   23   49 1   
    51   24   25 ar  
    52   24   50 1   
    53   25   26 ar  
    54   25   51 1   
    55   26   52 1   
    56   27   28 ar  
    57   27   53 1   
    58   28   54 1   
@<TRIPOS>SUBSTRUCTURE
     1 HQL         1 TEMP              0 ****  ****    0 ROOT
