@<TRIPOS>MOLECULE
HQL
   55    58     1     0     0
SMALL
bcc


@<TRIPOS>ATOM
      1 C1         -0.3840    0.6300    0.1240 ca        1 HQL     -0.126000
      2 C2          0.9640    0.3120   -0.0440 ca        1 HQL     -0.132500
      3 C3          1.7710    0.0800    1.0680 ca        1 HQL     -0.112000
      4 C4          1.2330    0.1710    2.3570 ca        1 HQL     -0.096300
      5 C5          2.1260   -0.0790    3.5420 c3        1 HQL      0.234700
      6 O1          1.3010   -0.6090    4.5870 os        1 HQL     -0.416600
      7 C6          2.0410   -1.2430    5.6360 c3        1 HQL      0.138100
      8 C7          1.1320   -1.2200    6.8610 c3        1 HQL     -0.091400
      9 C8          1.7730   -1.9960    8.0080 c3        1 HQL      0.174300
     10 N1          2.1440   -3.3570    7.6480 n3        1 HQL     -0.742600
     11 C9          2.7070   -4.0980    8.7670 c3        1 HQL      0.169800
     12 C10         1.6420   -4.7500    9.6510 c3        1 HQL     -0.074400
     13 C11         0.9670   -5.9290    8.9770 c3        1 HQL     -0.111700
     14 C12         1.8220   -7.1420    8.9940 cc        1 HQL      0.398800
     15 N2          1.9670   -8.0260   10.0850 na        1 HQL     -0.193400
     16 N3          2.8180   -8.9980    9.7260 nc        1 HQL     -0.197800
     17 N4          3.1870   -8.7620    8.5210 nd        1 HQL     -0.051000
     18 N5          2.6280   -7.6630    8.0180 nd        1 HQL     -0.378000
     19 C13         2.9750   -3.4240    6.4530 c3        1 HQL      0.174300
     20 C14         2.3760   -2.6810    5.2610 c3        1 HQL     -0.091400
     21 C15         2.8190    1.1860    3.9740 ca        1 HQL     -0.096300
     22 C16         4.0470    1.5310    3.3980 ca        1 HQL     -0.112000
     23 C17         4.6930    2.7060    3.7770 ca        1 HQL     -0.132500
     24 C18         4.1190    3.5440    4.7340 ca        1 HQL     -0.126000
     25 C19         2.8960    3.2030    5.3110 ca        1 HQL     -0.132500
     26 C20         2.2470    2.0290    4.9320 ca        1 HQL     -0.112000
     27 C21        -0.1180    0.4890    2.5220 ca        1 HQL     -0.112000
     28 C22        -0.9230    0.7160    1.4070 ca        1 HQL     -0.132500
     29 H1         -1.0190    0.8120   -0.7550 ha        1 HQL      0.130500
     30 H2          1.3920    0.2430   -1.0540 ha        1 HQL      0.131250
     31 H3          2.8340   -0.1710    0.9340 ha        1 HQL      0.137000
     32 H5          2.9050   -0.8480    3.2640 h1        1 HQL      0.050700
     33 H6          2.9830   -0.6630    5.8430 h1        1 HQL      0.047700
     34 H71         0.1390   -1.6640    6.5920 hc        1 HQL      0.058700
     35 H72         0.9610   -0.1620    7.1850 hc        1 HQL      0.058700
     36 H81         1.0340   -2.0580    8.8560 h1        1 HQL      0.033700
     37 H82         2.6670   -1.4090    8.3800 h1        1 HQL      0.033700
     38 H91         3.3400   -3.4310    9.4260 h1        1 HQL      0.043200
     39 H92         3.3800   -4.9120    8.3730 h1        1 HQL      0.043200
     40 H101        0.8540   -4.0010    9.9270 hc        1 HQL      0.048200
     41 H102        2.1390   -5.0810   10.6010 hc        1 HQL      0.048200
     42 H111        0.7220   -5.6710    7.9100 hc        1 HQL      0.082700
     43 H112       -0.0010   -6.1580    9.5010 hc        1 HQL      0.082700
     44 H131        4.0090   -3.0120    6.6480 h1        1 HQL      0.033700
     45 H132        3.0850   -4.5110    6.1770 h1        1 HQL      0.033700
     46 H141        1.4450   -3.1950    4.9090 hc        1 HQL      0.058700
     47 H142        3.1170   -2.7020    4.4220 hc        1 HQL      0.058700
     48 H16         4.5000    0.8740    2.6400 ha        1 HQL      0.137000
     49 H17         5.6570    2.9730    3.3190 ha        1 HQL      0.131250
     50 H18         4.6300    4.4710    5.0300 ha        1 HQL      0.130500
     51 H19         2.4400    3.8630    6.0640 ha        1 HQL      0.131250
     52 H20         1.2820    1.7510    5.3840 ha        1 HQL      0.137000
     53 H21        -0.5400    0.5490    3.5370 ha        1 HQL      0.137000
     54 H22        -1.9860    0.9640    1.5410 ha        1 HQL      0.131250
     55 HN1         1.5370   -7.9920   10.9790 hn        1 HQL      0.330700
@<TRIPOS>BOND
     1    1    2 ar  
     2    1   28 ar  
     3    1   29 1   
     4    2    3 ar  
     5    2   30 1   
     6    3    4 ar  
     7    3   31 1   
     8    4    5 1   
     9    4   27 ar  
    10    5    6 1   
    11    5   21 1   
    12    5   32 1   
    13    6    7 1   
    14    7    8 1   
    15    7   20 1   
    16    7   33 1   
    17    8    9 1   
    18    8   34 1   
    19    8   35 1   
    20    9   10 1   
    21    9   36 1   
    22    9   37 1   
    23   10   11 1   
    24   10   19 1   
    25   11   12 1   
    26   11   38 1   
    27   11   39 1   
    28   12   13 1   
    29   12   40 1   
    30   12   41 1   
    31   13   14 1   
    32   13   42 1   
    33   13   43 1   
    34   14   15 1   
    35   14   18 2   
    36   15   16 1   
    37   15   55 1   
    38   16   17 2   
    39   17   18 1   
    40   19   20 1   
    41   19   44 1   
    42   19   45 1   
    43   20   46 1   
    44   20   47 1   
    45   21   22 ar  
    46   21   26 ar  
    47   22   23 ar  
    48   22   48 1   
    49   23   24 ar  
    50   23   49 1   
    51   24   25 ar  
    52   24   50 1   
    53   25   26 ar  
    54   25   51 1   
    55   26   52 1   
    56   27   28 ar  
    57   27   53 1   
    58   28   54 1   
@<TRIPOS>SUBSTRUCTURE
     1 HQL         1 TEMP              0 ****  ****    0 ROOT
