@<TRIPOS>MOLECULE
HQL
   55    52     1     0     0
SMALL
bcc


@<TRIPOS>ATOM
      1 C1         -1.5880    0.8120   -6.1970 c1        1 HQL     -0.124167
      2 C2         -2.4840    1.0140   -5.1450 c1        1 HQL     -0.124167
      3 C3         -2.0020    1.3170   -3.8640 c1        1 HQL     -0.124167
      4 C4         -0.6380    1.4160   -3.6420 c1        1 HQL     -0.073000
      5 C5         -0.1050    1.8060   -2.2280 c3        1 HQL      0.110000
      6 O1         -0.8030    1.0210   -1.2120 os        1 HQL     -0.272000
      7 C6          0.1040    0.3750   -0.2060 c3        1 HQL      0.027000
      8 C7         -0.5810    0.3530    1.1170 c3        1 HQL     -0.170000
      9 C8          0.1860   -0.4560    2.1550 c3        1 HQL     -0.065000
     10 N1          0.5280   -1.7920    1.6770 n3        1 HQL     -0.259000
     11 C9          1.3580   -2.4610    2.6460 c3        1 HQL     -0.062000
     12 C10         0.4590   -3.2000    3.6780 c3        1 HQL     -0.168000
     13 C11         1.1390   -4.5220    4.1020 c3        1 HQL     -0.099000
     14 C12         1.1120   -4.6460    5.6250 c2        1 HQL     -0.051000
     15 N2          0.1970   -5.3220    6.3470 nc        1 HQL     -0.166000
     16 N3          0.5880   -5.3020    7.6370 nc        1 HQL     -0.037000
     17 N4          1.7440   -4.6140    7.7120 nc        1 HQL     -0.037000
     18 N5          2.0690   -4.2090    6.4700 nc        1 HQL     -0.166000
     19 C13         1.2110   -1.7770    0.3640 c3        1 HQL     -0.065000
     20 C14         0.4480   -0.9750   -0.6780 c3        1 HQL     -0.170000
     21 C15        -0.3580    3.3180   -1.9780 c2        1 HQL     -0.107000
     22 C16         0.6900    4.2080   -2.0200 c2        1 HQL     -0.121000
     23 C17         0.4610    5.5660   -1.8060 c1        1 HQL     -0.131000
     24 C18        -0.8240    6.0200   -1.5500 c1        1 HQL     -0.124167
     25 C19        -1.8780    5.1240   -1.5080 c1        1 HQL     -0.124167
     26 C20        -1.6480    3.7730   -1.7210 c1        1 HQL     -0.108000
     27 C21         0.2660    1.2120   -4.7020 c1        1 HQL     -0.123000
     28 C22        -0.2090    0.9120   -5.9700 c1        1 HQL     -0.124167
     29 H1         -1.9120    0.6060   -7.0620 ha        1 HQL      0.134167
     30 H2         -3.4580    0.9420   -5.3020 ha        1 HQL      0.134167
     31 H3         -2.6140    1.4550   -3.1430 ha        1 HQL      0.134167
     32 H5          0.8470    1.6260   -2.1810 h1        1 HQL      0.089000
     33 H6          0.9230    0.9030   -0.1300 h1        1 HQL      0.088000
     34 H71        -1.4750   -0.0410    1.0050 hc        1 HQL      0.099250
     35 H72        -0.6770    1.2550    1.4330 hc        1 HQL      0.099250
     36 H81        -0.3620   -0.5380    2.9630 h1        1 HQL      0.071500
     37 H82         1.0240    0.0280    2.3840 h1        1 HQL      0.071500
     38 H91         1.9380   -3.1160    2.1850 h1        1 HQL      0.075000
     39 H92         1.9160   -1.8030    3.1110 h1        1 HQL      0.075000
     40 H101        0.3310   -2.6340    4.4630 hc        1 HQL      0.093000
     41 H102       -0.4330   -3.4000    3.2610 hc        1 HQL      0.093000
     42 H111        2.0630   -4.5250    3.7930 hc        1 HQL      0.121500
     43 H112        0.6640   -5.2730    3.7060 hc        1 HQL      0.121500
     44 H131        1.3090   -2.7210    0.0380 h1        1 HQL      0.071500
     45 H132        2.0980   -1.3870    0.4730 h1        1 HQL      0.071500
     46 H141       -0.3680   -1.4460   -0.9010 hc        1 HQL      0.099250
     47 H142        1.0140   -0.8960   -1.5030 hc        1 HQL      0.099250
     48 H16         1.5810    3.8930   -2.1980 ha        1 HQL      0.129000
     49 H17         1.2010    6.1930   -1.8360 ha        1 HQL      0.132000
     50 H18        -0.9860    6.9760   -1.4000 ha        1 HQL      0.134167
     51 H19        -2.7960    5.4460   -1.3260 ha        1 HQL      0.134167
     52 H20        -2.3830    3.1500   -1.6910 ha        1 HQL      0.144000
     53 H21         1.2300    1.2830   -4.5450 ha        1 HQL      0.127000
     54 H22         0.4330    0.7680   -6.7230 ha        1 HQL      0.134167
     55 HN1        -0.5500   -5.7190    6.0240 DU        1 HQL      0.285000
@<TRIPOS>BOND
     1    1   28 1   
     2    1   29 1   
     3    2    3 1   
     4    2   30 1   
     5    3   31 1   
     6    4    5 1   
     7    4   27 1   
     8    5    6 1   
     9    5   21 1   
    10    5   32 1   
    11    6    7 1   
    12    7    8 1   
    13    7   20 1   
    14    7   33 1   
    15    8    9 1   
    16    8   34 1   
    17    8   35 1   
    18    9   10 1   
    19    9   36 1   
    20    9   37 1   
    21   10   11 1   
    22   10   19 1   
    23   11   12 1   
    24   11   38 1   
    25   11   39 1   
    26   12   13 1   
    27   12   40 1   
    28   12   41 1   
    29   13   14 1   
    30   13   42 1   
    31   13   43 1   
    32   14   15 1   
    33   14   18 1   
    34   15   16 1   
    35   16   17 1   
    36   17   18 1   
    37   19   20 1   
    38   19   44 1   
    39   19   45 1   
    40   20   46 1   
    41   20   47 1   
    42   21   22 1   
    43   21   26 1   
    44   22   23 1   
    45   22   48 1   
    46   23   49 1   
    47   24   25 1   
    48   24   50 1   
    49   25   51 1   
    50   26   52 1   
    51   27   53 1   
    52   28   54 1   
@<TRIPOS>SUBSTRUCTURE
     1 HQL         1 TEMP              0 ****  ****    0 ROOT
