@<TRIPOS>MOLECULE
HQN
   15    15     1     0     0
SMALL
bcc


@<TRIPOS>ATOM
      1 C1          0.0050    0.2510    0.0280 ca        1 HQN     -0.270000
      2 O1          3.4990    0.1350    1.1340 oh        1 HQN     -0.476100
      3 C2          1.4030    0.2390    0.0120 ca        1 HQN      0.140100
      4 O2          2.1350    0.3180   -1.1480 oh        1 HQN     -0.470100
      5 C3          2.1250    0.1410    1.2250 ca        1 HQN      0.066100
      6 O3         -2.0360    0.1730    1.3510 oh        1 HQN     -0.495100
      7 C4          1.4360    0.0580    2.4390 ca        1 HQN     -0.149000
      8 C5          0.0450    0.0700    2.4650 ca        1 HQN     -0.155000
      9 C6         -0.6620    0.1660    1.2580 ca        1 HQN      0.130100
     10 H1         -0.5590    0.3270   -0.9110 ha        1 HQN      0.138000
     11 HO1         3.8480    0.0650    2.0350 ho        1 HQN      0.414000
     12 HO2         1.5110    0.3790   -1.8860 ho        1 HQN      0.416000
     13 HO3        -2.3950    0.2430    0.4550 ho        1 HQN      0.419000
     14 H4          2.0000   -0.0180    3.3810 ha        1 HQN      0.140000
     15 H5         -0.5040    0.0040    3.4140 ha        1 HQN      0.154000
@<TRIPOS>BOND
     1    1    3 ar  
     2    1    9 ar  
     3    1   10 1   
     4    2    5 1   
     5    2   11 1   
     6    3    4 1   
     7    3    5 ar  
     8    4   12 1   
     9    5    7 ar  
    10    6    9 1   
    11    6   13 1   
    12    7    8 ar  
    13    7   14 1   
    14    8    9 ar  
    15    8   15 1   
@<TRIPOS>SUBSTRUCTURE
     1 HQN         1 TEMP              0 ****  ****    0 ROOT
