@<TRIPOS>MOLECULE
HQN
   15    15     1     0     0
SMALL
bcc


@<TRIPOS>ATOM
      1 C1         -0.0090    0.2390    0.0390 ca        1 HQN     -0.270000
      2 O1          3.5010    0.1580    1.0960 oh        1 HQN     -0.476100
      3 C2          1.3880    0.2380    0.0030 ca        1 HQN      0.140100
      4 O2          2.1030    0.3160   -1.1670 oh        1 HQN     -0.470100
      5 C3          2.1280    0.1540    1.2060 ca        1 HQN      0.066100
      6 O3         -2.0310    0.1520    1.3910 oh        1 HQN     -0.495100
      7 C4          1.4580    0.0720    2.4300 ca        1 HQN     -0.149000
      8 C5          0.0670    0.0720    2.4760 ca        1 HQN     -0.155000
      9 C6         -0.6580    0.1560    1.2790 ca        1 HQN      0.130100
     10 H1         -0.5870    0.3040   -0.8920 ha        1 HQN      0.138000
     11 HO1         3.8630    0.0950    1.9920 ho        1 HQN      0.414000
     12 HO2         1.4680    0.3670   -1.8970 ho        1 HQN      0.416000
     13 HO3        -2.4040    0.2130    0.5000 ho        1 HQN      0.419000
     14 H4          2.0350    0.0060    3.3650 ha        1 HQN      0.140000
     15 H5         -0.4690    0.0080    3.4330 ha        1 HQN      0.154000
@<TRIPOS>BOND
     1    1    3 ar  
     2    1    9 ar  
     3    1   10 1   
     4    2    5 1   
     5    2   11 1   
     6    3    4 1   
     7    3    5 ar  
     8    4   12 1   
     9    5    7 ar  
    10    6    9 1   
    11    6   13 1   
    12    7    8 ar  
    13    7   14 1   
    14    8    9 ar  
    15    8   15 1   
@<TRIPOS>SUBSTRUCTURE
     1 HQN         1 TEMP              0 ****  ****    0 ROOT
