@<TRIPOS>MOLECULE
HQN
   15    13     1     0     0
SMALL
bcc


@<TRIPOS>ATOM
      1 C1         -0.7950   -0.0580   -1.0010 c1        1 HQN     -0.257000
      2 O1          2.6910   -0.0480    0.2000 oh        1 HQN     -0.249000
      3 C2          0.5910   -0.0580   -1.0010 c1        1 HQN      0.032000
      4 O2          1.2940   -0.0470   -2.2190 oh        1 HQN     -0.267000
      5 C3          1.2840   -0.0580    0.2000 c2        1 HQN      0.031000
      6 O3         -2.8950   -0.0680    0.2000 oh        1 HQN     -0.248000
      7 C4          0.5910   -0.0580    1.4000 c2        1 HQN     -0.098000
      8 C5         -0.7950   -0.0580    1.4000 c1        1 HQN     -0.154000
      9 C6         -1.4880   -0.0580    0.2000 c1        1 HQN      0.081000
     10 H1         -1.2830   -0.0550   -1.8460 ha        1 HQN      0.137000
     11 HO1         2.9810    0.7600    0.4240 ho        1 HQN      0.234000
     12 HO2         1.2250   -0.8420   -2.6080 ho        1 HQN      0.229000
     13 HO3        -3.1970    0.7650    0.1600 ho        1 HQN      0.217000
     14 H4          1.0790   -0.0580    2.2450 ha        1 HQN      0.157000
     15 H5         -1.2830   -0.0580    2.2450 ha        1 HQN      0.156000
@<TRIPOS>BOND
     1    1    9 1   
     2    1   10 1   
     3    2    5 1   
     4    2   11 1   
     5    3    4 1   
     6    3    5 1   
     7    4   12 1   
     8    5    7 1   
     9    6    9 1   
    10    6   13 1   
    11    7    8 1   
    12    7   14 1   
    13    8   15 1   
@<TRIPOS>SUBSTRUCTURE
     1 HQN         1 TEMP              0 ****  ****    0 ROOT
