@<TRIPOS>MOLECULE
HQN
   15    15     1     0     0
SMALL
bcc


@<TRIPOS>ATOM
      1 C1          0.7950    1.0720   -0.0320 ca        1 HQN     -0.221000
      2 O1         -2.4680   -0.5520   -0.3820 oh        1 HQN     -0.518100
      3 C2         -0.5780    0.8660   -0.2110 ca        1 HQN      0.151100
      4 O2         -1.3600    1.9790   -0.3960 oh        1 HQN     -0.493100
      5 C3         -1.1020   -0.4450   -0.1970 ca        1 HQN      0.003100
      6 O3          2.9810    0.0790    0.3430 oh        1 HQN     -0.496100
      7 C4         -0.2600   -1.5420   -0.0050 ca        1 HQN     -0.134000
      8 C5          1.1060   -1.3480    0.1750 ca        1 HQN     -0.159000
      9 C6          1.6220   -0.0420    0.1600 ca        1 HQN      0.130100
     10 H1          1.1980    2.0930   -0.0440 ha        1 HQN      0.155000
     11 HO1        -2.6950   -1.4920   -0.3510 ho        1 HQN      0.428000
     12 HO2        -2.2780    1.6850   -0.5060 ho        1 HQN      0.440000
     13 HO3         3.2040    1.0200    0.3110 ho        1 HQN      0.421000
     14 H4         -0.6770   -2.5600    0.0050 ha        1 HQN      0.138000
     15 H5          1.7840   -2.1990    0.3270 ha        1 HQN      0.155000
@<TRIPOS>BOND
     1    1    3 ar  
     2    1    9 ar  
     3    1   10 1   
     4    2    5 1   
     5    2   11 1   
     6    3    4 1   
     7    3    5 ar  
     8    4   12 1   
     9    5    7 ar  
    10    6    9 1   
    11    6   13 1   
    12    7    8 ar  
    13    7   14 1   
    14    8    9 ar  
    15    8   15 1   
@<TRIPOS>SUBSTRUCTURE
     1 HQN         1 TEMP              0 ****  ****    0 ROOT
