@<TRIPOS>MOLECULE
HQO
   40    36     1     0     0
SMALL
bcc


@<TRIPOS>ATOM
      1 C1         -3.5430   -1.1760   -1.1490 c1        1 HQO      0.064000
      2 O1         -4.3590   -1.7220   -2.1570 o         1 HQO     -0.244000
      3 C2         -2.1760   -1.2120   -1.1760 c1        1 HQO     -0.193000
      4 C3         -1.4530   -1.0970    0.0080 c1        1 HQO     -0.109000
      5 N1         -2.1070   -0.9480    1.1960 n2        1 HQO      0.331000
      6 O4         -1.5760   -0.7850    2.4440 os        1 HQO     -0.454000
      7 C5         -3.4910   -0.9120    1.2270 c2        1 HQO     -0.054000
      8 C6         -4.1650   -0.7370    2.4510 c1        1 HQO     -0.091000
      9 C7         -5.5530   -0.6810    2.4780 c1        1 HQO     -0.121000
     10 C8         -6.2780   -0.7960    1.2960 c1        1 HQO     -0.121000
     11 C9         -5.6140   -0.9670    0.0880 c1        1 HQO     -0.103000
     12 C10        -4.2070   -1.0250    0.0590 c2        1 HQO     -0.025000
     13 C11         0.0470   -1.2990   -0.0430 c3        1 HQO     -0.101000
     14 C12         2.2300   -0.1600   -0.2620 c3        1 HQO     -0.156000
     15 C13         0.7300    0.0360   -0.2540 c3        1 HQO     -0.161000
     16 C14         2.9130    1.1690   -0.5130 c3        1 HQO     -0.157000
     17 C15         4.4140    0.9870   -0.4430 c3        1 HQO     -0.158000
     18 C16         5.0950    2.3240   -0.6520 c3        1 HQO     -0.159000
     19 C17         6.5970    2.1340   -0.6320 c3        1 HQO     -0.210000
     20 HO11       -4.3580   -1.1820   -2.8640 ho        1 HQO      0.223000
     21 HC2        -1.7070   -1.3180   -2.0250 ha        1 HQO      0.152000
     22 HC6        -3.6570   -0.6570    3.2800 ha        1 HQO      0.173000
     23 HC7        -6.0200   -0.5600    3.3270 ha        1 HQO      0.141500
     24 HC8        -7.2530   -0.7560    1.3160 ha        1 HQO      0.141500
     25 HC9        -6.1230   -1.0480   -0.7410 ha        1 HQO      0.157000
     26 H111        0.3520   -1.6920    0.8000 hc        1 HQO      0.100500
     27 H112        0.2700   -1.8990   -0.7820 hc        1 HQO      0.100500
     28 H121        2.4730   -0.7900   -0.9690 hc        1 HQO      0.078500
     29 H122        2.5170   -0.5150    0.6030 hc        1 HQO      0.078500
     30 H131        0.4460    0.4160   -1.1100 hc        1 HQO      0.093000
     31 H132        0.4840    0.6460    0.4710 hc        1 HQO      0.093000
     32 H141        2.6650    1.5000   -1.3990 hc        1 HQO      0.080500
     33 H142        2.6300    1.8150    0.1660 hc        1 HQO      0.080500
     34 H151        4.6590    0.6300    0.4340 hc        1 HQO      0.078500
     35 H152        4.7000    0.3640   -1.1400 hc        1 HQO      0.078500
     36 H161        4.8250    2.6960   -1.5150 hc        1 HQO      0.078000
     37 H162        4.8340    2.9370    0.0640 hc        1 HQO      0.078000
     38 H171        6.8950    1.9860    0.2900 hc        1 HQO      0.071667
     39 H172        7.0320    2.9340   -0.9920 hc        1 HQO      0.071667
     40 H173        6.8350    1.3570   -1.1800 hc        1 HQO      0.071667
@<TRIPOS>BOND
     1    1    3 1   
     2    1   12 1   
     3    2   20 1   
     4    3   21 1   
     5    4    5 1   
     6    4   13 1   
     7    5    7 1   
     8    7    8 1   
     9    7   12 1   
    10    8   22 1   
    11    9   10 1   
    12    9   23 1   
    13   10   24 1   
    14   11   12 1   
    15   11   25 1   
    16   13   15 1   
    17   13   26 1   
    18   13   27 1   
    19   14   15 1   
    20   14   16 1   
    21   14   28 1   
    22   14   29 1   
    23   15   30 1   
    24   15   31 1   
    25   16   17 1   
    26   16   32 1   
    27   16   33 1   
    28   17   18 1   
    29   17   34 1   
    30   17   35 1   
    31   18   19 1   
    32   18   36 1   
    33   18   37 1   
    34   19   38 1   
    35   19   39 1   
    36   19   40 1   
@<TRIPOS>SUBSTRUCTURE
     1 HQO         1 TEMP              0 ****  ****    0 ROOT
