@<TRIPOS>MOLECULE
HQO
   40    41     1     0     0
SMALL
bcc


@<TRIPOS>ATOM
      1 C1         -2.5570   -1.7260    0.3670 ca        1 HQO      0.090100
      2 O1         -3.1160   -2.9840    0.3430 oh        1 HQO     -0.491100
      3 C2         -1.2550   -1.6310    0.8120 ca        1 HQO     -0.125000
      4 C3         -0.5850   -0.3820    0.8340 ca        1 HQO     -0.145600
      5 N1         -1.2120    0.7730    0.4250 na        1 HQO      0.230600
      6 O4         -0.6510    1.8650    0.4500 o         1 HQO     -0.301000
      7 C5         -2.5600    0.6870   -0.0360 ca        1 HQO     -0.081300
      8 C6         -3.2270    1.8750   -0.4640 ca        1 HQO     -0.080000
      9 C7         -4.5190    1.8130   -0.9250 ca        1 HQO     -0.132000
     10 C8         -5.1980    0.5760   -0.9860 ca        1 HQO     -0.102000
     11 C9         -4.5760   -0.5790   -0.5760 ca        1 HQO     -0.135000
     12 C10        -3.2450   -0.5570   -0.0830 ca        1 HQO     -0.052000
     13 C11         0.8300   -0.3200    1.3230 c3        1 HQO     -0.016100
     14 C12         3.2340   -0.1340    0.6850 c3        1 HQO     -0.077400
     15 C13         1.8080   -0.1340    0.1780 c3        1 HQO     -0.082400
     16 C14         4.2160    0.0530   -0.4520 c3        1 HQO     -0.078400
     17 C15         5.6440    0.0540    0.0510 c3        1 HQO     -0.079400
     18 C16         6.6280    0.2410   -1.0850 c3        1 HQO     -0.080400
     19 C17         8.0510    0.2430   -0.5890 c3        1 HQO     -0.092100
     20 HO11       -4.0790   -2.8870    0.3740 ho        1 HQO      0.421000
     21 HC2        -0.7140   -2.5270    1.1510 ha        1 HQO      0.169000
     22 HC6        -2.6810    2.8340   -0.4150 ha        1 HQO      0.175000
     23 HC7        -5.0350    2.7270   -1.2540 ha        1 HQO      0.145000
     24 HC8        -6.2300    0.5480   -1.3690 ha        1 HQO      0.141000
     25 HC9        -5.1080   -1.5400   -0.6430 ha        1 HQO      0.133000
     26 H111        1.0620   -1.2680    1.8760 hc        1 HQO      0.063200
     27 H112        0.9410    0.5360    2.0440 hc        1 HQO      0.063200
     28 H121        3.4490   -1.1010    1.2120 hc        1 HQO      0.039200
     29 H122        3.3660    0.6890    1.4350 hc        1 HQO      0.039200
     30 H131        1.5890    0.8380   -0.3400 hc        1 HQO      0.054200
     31 H132        1.6740   -0.9560   -0.5730 hc        1 HQO      0.054200
     32 H141        4.0020    1.0210   -0.9770 hc        1 HQO      0.041200
     33 H142        4.0830   -0.7680   -1.2040 hc        1 HQO      0.041200
     34 H151        5.8590   -0.9130    0.5770 hc        1 HQO      0.039200
     35 H152        5.7780    0.8760    0.8030 hc        1 HQO      0.039200
     36 H161        6.4110    1.2090   -1.6100 hc        1 HQO      0.038700
     37 H162        6.4910   -0.5800   -1.8370 hc        1 HQO      0.038700
     38 H171        8.2130    1.0710    0.1430 hc        1 HQO      0.032033
     39 H172        8.2930   -0.7230   -0.0840 hc        1 HQO      0.032033
     40 H173        8.7590    0.3830   -1.4410 hc        1 HQO      0.032033
@<TRIPOS>BOND
     1    1    2 1   
     2    1    3 ar  
     3    1   12 ar  
     4    2   20 1   
     5    3    4 ar  
     6    3   21 1   
     7    4    5 1   
     8    4   13 1   
     9    5    6 1   
    10    5    7 2   
    11    7    8 ar  
    12    7   12 ar  
    13    8    9 ar  
    14    8   22 1   
    15    9   10 ar  
    16    9   23 1   
    17   10   11 ar  
    18   10   24 1   
    19   11   12 ar  
    20   11   25 1   
    21   13   15 1   
    22   13   26 1   
    23   13   27 1   
    24   14   15 1   
    25   14   16 1   
    26   14   28 1   
    27   14   29 1   
    28   15   30 1   
    29   15   31 1   
    30   16   17 1   
    31   16   32 1   
    32   16   33 1   
    33   17   18 1   
    34   17   34 1   
    35   17   35 1   
    36   18   19 1   
    37   18   36 1   
    38   18   37 1   
    39   19   38 1   
    40   19   39 1   
    41   19   40 1   
@<TRIPOS>SUBSTRUCTURE
     1 HQO         1 TEMP              0 ****  ****    0 ROOT
