@<TRIPOS>MOLECULE
HQO
   40    41     1     0     0
SMALL
bcc


@<TRIPOS>ATOM
      1 C1         -0.0450   -0.3170    0.0060 ca        1 HQO      0.109100
      2 O1         -0.8490   -0.5400   -1.0880 oh        1 HQO     -0.490100
      3 C2          1.3280   -0.2690   -0.0520 ca        1 HQO     -0.193000
      4 C3          2.0960   -0.0340    1.1200 ca        1 HQO     -0.140600
      5 N1          1.4970    0.1550    2.3420 na        1 HQO      0.229600
      6 O4          2.1460    0.3590    3.3650 o         1 HQO     -0.304000
      7 C5          0.0700    0.1040    2.4140 ca        1 HQO     -0.078300
      8 C6         -0.5790    0.2930    3.6710 ca        1 HQO     -0.091000
      9 C7         -1.9510    0.2470    3.7490 ca        1 HQO     -0.124000
     10 C8         -2.7320    0.0140    2.5970 ca        1 HQO     -0.118000
     11 C9         -2.1280   -0.1710    1.3750 ca        1 HQO     -0.103000
     12 C10        -0.7170   -0.1300    1.2570 ca        1 HQO     -0.025000
     13 C11         3.5910    0.0030    1.0180 c3        1 HQO     -0.015100
     14 C12         5.6250    1.4450    0.9420 c3        1 HQO     -0.077400
     15 C13         4.1200    1.4220    1.1060 c3        1 HQO     -0.082400
     16 C14         6.1610    2.8580    1.0310 c3        1 HQO     -0.078400
     17 C15         7.6660    2.8850    0.8680 c3        1 HQO     -0.079400
     18 C16         8.2040    4.2980    0.9550 c3        1 HQO     -0.080400
     19 C17         9.7010    4.3300    0.7940 c3        1 HQO     -0.092100
     20 HO11       -0.2740   -0.6480   -1.8610 ho        1 HQO      0.424000
     21 HC2         1.8690   -0.4080   -1.0000 ha        1 HQO      0.152000
     22 HC6         0.0420    0.4750    4.5650 ha        1 HQO      0.173000
     23 HC7        -2.4520    0.3930    4.7190 ha        1 HQO      0.142000
     24 HC8        -3.8290   -0.0180    2.6870 ha        1 HQO      0.141000
     25 HC9        -2.7180   -0.3540    0.4640 ha        1 HQO      0.157000
     26 H111        3.8980   -0.4620    0.0440 hc        1 HQO      0.061200
     27 H112        4.0390   -0.6100    1.8470 hc        1 HQO      0.061200
     28 H121        6.0990    0.8120    1.7380 hc        1 HQO      0.039200
     29 H122        5.9050    0.9980   -0.0480 hc        1 HQO      0.039200
     30 H131        3.6440    2.0550    0.3130 hc        1 HQO      0.053700
     31 H132        3.8400    1.8570    2.1030 hc        1 HQO      0.053700
     32 H141        5.6850    3.4920    0.2370 hc        1 HQO      0.041200
     33 H142        5.8810    3.3040    2.0220 hc        1 HQO      0.041200
     34 H151        8.1420    2.2530    1.6630 hc        1 HQO      0.039200
     35 H152        7.9460    2.4380   -0.1220 hc        1 HQO      0.039200
     36 H161        7.7250    4.9300    0.1610 hc        1 HQO      0.038700
     37 H162        7.9210    4.7440    1.9460 hc        1 HQO      0.038700
     38 H171       10.1970    3.7260    1.5920 hc        1 HQO      0.032367
     39 H172       10.0770    5.3800    0.8620 hc        1 HQO      0.032367
     40 H173       10.0010    3.9120   -0.1970 hc        1 HQO      0.032367
@<TRIPOS>BOND
     1    1    2 1   
     2    1    3 ar  
     3    1   12 ar  
     4    2   20 1   
     5    3    4 ar  
     6    3   21 1   
     7    4    5 1   
     8    4   13 1   
     9    5    6 1   
    10    5    7 2   
    11    7    8 ar  
    12    7   12 ar  
    13    8    9 ar  
    14    8   22 1   
    15    9   10 ar  
    16    9   23 1   
    17   10   11 ar  
    18   10   24 1   
    19   11   12 ar  
    20   11   25 1   
    21   13   15 1   
    22   13   26 1   
    23   13   27 1   
    24   14   15 1   
    25   14   16 1   
    26   14   28 1   
    27   14   29 1   
    28   15   30 1   
    29   15   31 1   
    30   16   17 1   
    31   16   32 1   
    32   16   33 1   
    33   17   18 1   
    34   17   34 1   
    35   17   35 1   
    36   18   19 1   
    37   18   36 1   
    38   18   37 1   
    39   19   38 1   
    40   19   39 1   
    41   19   40 1   
@<TRIPOS>SUBSTRUCTURE
     1 HQO         1 TEMP              0 ****  ****    0 ROOT
