@<TRIPOS>MOLECULE
HQO
   40    41     1     0     0
SMALL
bcc


@<TRIPOS>ATOM
      1 C1         -0.0460   -0.3260    0.0180 ca        1 HQO      0.109100
      2 O1         -0.8500   -0.5550   -1.0740 oh        1 HQO     -0.490100
      3 C2          1.3280   -0.2770   -0.0430 ca        1 HQO     -0.193000
      4 C3          2.0970   -0.0360    1.1270 ca        1 HQO     -0.140600
      5 N1          1.4990    0.1590    2.3500 na        1 HQO      0.229600
      6 O4          2.1480    0.3690    3.3700 o         1 HQO     -0.304000
      7 C5          0.0710    0.1080    2.4240 ca        1 HQO     -0.078300
      8 C6         -0.5760    0.3030    3.6790 ca        1 HQO     -0.091000
      9 C7         -1.9480    0.2560    3.7600 ca        1 HQO     -0.124000
     10 C8         -2.7300    0.0170    2.6100 ca        1 HQO     -0.118000
     11 C9         -2.1270   -0.1740    1.3890 ca        1 HQO     -0.103000
     12 C10        -0.7160   -0.1330    1.2680 ca        1 HQO     -0.025000
     13 C11         3.5910    0.0020    1.0230 c3        1 HQO     -0.015100
     14 C12         5.6250    1.4450    0.9390 c3        1 HQO     -0.077400
     15 C13         4.1200    1.4210    1.1050 c3        1 HQO     -0.082400
     16 C14         6.1600    2.8580    1.0220 c3        1 HQO     -0.078400
     17 C15         7.6640    2.8860    0.8560 c3        1 HQO     -0.079400
     18 C16         8.2020    4.2990    0.9390 c3        1 HQO     -0.080400
     19 C17         9.6990    4.3320    0.7740 c3        1 HQO     -0.092100
     20 HO11       -0.2760   -0.6660   -1.8470 ho        1 HQO      0.424000
     21 HC2         1.8670   -0.4200   -0.9900 ha        1 HQO      0.152000
     22 HC6         0.0460    0.4900    4.5730 ha        1 HQO      0.173000
     23 HC7        -2.4480    0.4070    4.7290 ha        1 HQO      0.142000
     24 HC8        -3.8260   -0.0160    2.7010 ha        1 HQO      0.141000
     25 HC9        -2.7180   -0.3630    0.4780 ha        1 HQO      0.157000
     26 H111        3.8970   -0.4670    0.0510 hc        1 HQO      0.061200
     27 H112        4.0410   -0.6070    1.8550 hc        1 HQO      0.061200
     28 H121        6.1010    0.8150    1.7360 hc        1 HQO      0.039200
     29 H122        5.9040    0.9950   -0.0510 hc        1 HQO      0.039200
     30 H131        3.6420    2.0510    0.3110 hc        1 HQO      0.053700
     31 H132        3.8410    1.8600    2.1000 hc        1 HQO      0.053700
     32 H141        5.6820    3.4900    0.2270 hc        1 HQO      0.041200
     33 H142        5.8820    3.3070    2.0120 hc        1 HQO      0.041200
     34 H151        8.1420    2.2550    1.6510 hc        1 HQO      0.039200
     35 H152        7.9420    2.4360   -0.1340 hc        1 HQO      0.039200
     36 H161        7.7210    4.9290    0.1440 hc        1 HQO      0.038700
     37 H162        7.9210    4.7470    1.9290 hc        1 HQO      0.038700
     38 H171       10.1970    3.7300    1.5720 hc        1 HQO      0.032367
     39 H172       10.0740    5.3820    0.8390 hc        1 HQO      0.032367
     40 H173        9.9960    3.9120   -0.2170 hc        1 HQO      0.032367
@<TRIPOS>BOND
     1    1    2 1   
     2    1    3 ar  
     3    1   12 ar  
     4    2   20 1   
     5    3    4 ar  
     6    3   21 1   
     7    4    5 1   
     8    4   13 1   
     9    5    6 1   
    10    5    7 2   
    11    7    8 ar  
    12    7   12 ar  
    13    8    9 ar  
    14    8   22 1   
    15    9   10 ar  
    16    9   23 1   
    17   10   11 ar  
    18   10   24 1   
    19   11   12 ar  
    20   11   25 1   
    21   13   15 1   
    22   13   26 1   
    23   13   27 1   
    24   14   15 1   
    25   14   16 1   
    26   14   28 1   
    27   14   29 1   
    28   15   30 1   
    29   15   31 1   
    30   16   17 1   
    31   16   32 1   
    32   16   33 1   
    33   17   18 1   
    34   17   34 1   
    35   17   35 1   
    36   18   19 1   
    37   18   36 1   
    38   18   37 1   
    39   19   38 1   
    40   19   39 1   
    41   19   40 1   
@<TRIPOS>SUBSTRUCTURE
     1 HQO         1 TEMP              0 ****  ****    0 ROOT
