@<TRIPOS>MOLECULE
HQP
   45    49     1     0     0
SMALL
bcc


@<TRIPOS>ATOM
      1 CAL         9.1940   -2.2480  -12.6180 cx        1 HQP     -0.125400
      2 CAM        10.0690   -2.8190  -11.5460 cx        1 HQP     -0.125400
      3 CBB         8.5700   -2.9700  -11.4480 cx        1 HQP     -0.066400
      4 CAX         7.8080   -2.2450  -10.4410 cc        1 HQP     -0.051600
      5 CAK         6.6620   -2.6590   -9.7430 cd        1 HQP     -0.316300
      6 NAS         8.1020   -0.9560   -9.9760 na        1 HQP     -0.012600
      7 NAN         7.2470   -0.5180   -9.0570 nc        1 HQP     -0.487800
      8 CAV         6.3320   -1.5360   -8.8730 cd        1 HQP      0.509200
      9 NAR         5.2990   -1.5460   -7.9230 nh        1 HQP     -0.798600
     10 C6          4.4250   -0.4560   -7.7550 ca        1 HQP      0.698200
     11 N1          4.5570    0.6460   -8.5100 nb        1 HQP     -0.748000
     12 C5          3.4200   -0.5450   -6.6950 ca        1 HQP     -0.291600
     13 CAJ         3.2200   -1.6790   -5.8760 ca        1 HQP     -0.088000
     14 CAD         2.2560   -1.6700   -4.8940 ca        1 HQP     -0.145000
     15 CAC         1.4560   -0.5250   -4.6900 ca        1 HQP     -0.104000
     16 CAI         1.6260    0.5980   -5.4620 ca        1 HQP     -0.180300
     17 C4          2.6210    0.6210   -6.4930 ca        1 HQP      0.444600
     18 N3          2.7730    1.7650   -7.2490 nb        1 HQP     -0.708000
     19 C2          3.7060    1.7250   -8.2270 ca        1 HQP      0.859000
     20 NAQ         3.7620    2.8360   -9.1340 ne        1 HQP     -0.606700
     21 CAU         4.7670    3.6550   -9.1520 cf        1 HQP      0.552900
     22 CAG         4.7510    4.7600  -10.1370 cf        1 HQP     -0.221100
     23 CAE         5.6770    5.7240  -10.1440 c2        1 HQP     -0.139200
     24 CAT         6.7890    5.8050   -9.1500 c3        1 HQP      0.052800
     25 CAB         8.0570    6.0600   -9.8160 c1        1 HQP      0.218700
     26 NAA         9.0710    6.2680  -10.3450 n1        1 HQP     -0.361800
     27 CAF         6.8820    4.5900   -8.2860 c2        1 HQP     -0.139200
     28 CAH         5.9550    3.6260   -8.2780 cf        1 HQP     -0.221100
     29 HAL1        9.0820   -1.1520  -12.6990 hc        1 HQP      0.076700
     30 HAL2        9.1660   -2.7340  -13.6090 hc        1 HQP      0.076700
     31 HAM1       10.6730   -3.7180  -11.7630 hc        1 HQP      0.076700
     32 HAM2       10.5900   -2.1360  -10.8510 hc        1 HQP      0.076700
     33 HBB         8.1370   -3.9760  -11.6320 hc        1 HQP      0.100700
     34 HAK         6.1360   -3.6020   -9.8250 ha        1 HQP      0.164000
     35 HAS         8.8250   -0.3590  -10.3050 hn        1 HQP      0.323700
     36 HAR         4.8590   -2.4400   -7.8380 hn        1 HQP      0.434800
     37 HAJ         3.8420   -2.5780   -6.0020 ha        1 HQP      0.131000
     38 HAD         2.1020   -2.5530   -4.2560 ha        1 HQP      0.137000
     39 HAC         0.6890   -0.5420   -3.9000 ha        1 HQP      0.137000
     40 HAI         1.0040    1.4930   -5.3030 ha        1 HQP      0.156000
     41 HAG         3.9310    4.7560  -10.8770 ha        1 HQP      0.159500
     42 HAH         6.0610    2.7530   -7.6100 ha        1 HQP      0.159500
     43 HAE         5.6530    6.5330  -10.8930 ha        1 HQP      0.144000
     44 HAF         7.7670    4.5400   -7.6310 ha        1 HQP      0.144000
     45 HAT         6.5770    6.6930   -8.4700 hc        1 HQP      0.103700
@<TRIPOS>BOND
     1    1    2 1   
     2    1    3 1   
     3    1   29 1   
     4    1   30 1   
     5    2    3 1   
     6    2   31 1   
     7    2   32 1   
     8    3    4 1   
     9    3   33 1   
    10    4    5 2   
    11    4    6 1   
    12    5    8 1   
    13    5   34 1   
    14    6    7 1   
    15    6   35 1   
    16    7    8 2   
    17    8    9 1   
    18    9   10 1   
    19    9   36 1   
    20   10   11 ar  
    21   10   12 ar  
    22   11   19 ar  
    23   12   13 ar  
    24   12   17 ar  
    25   13   14 ar  
    26   13   37 1   
    27   14   15 ar  
    28   14   38 1   
    29   15   16 ar  
    30   15   39 1   
    31   16   17 ar  
    32   16   40 1   
    33   17   18 ar  
    34   18   19 ar  
    35   19   20 1   
    36   20   21 2   
    37   21   22 1   
    38   21   28 1   
    39   22   23 2   
    40   22   41 1   
    41   23   24 1   
    42   23   43 1   
    43   24   25 1   
    44   24   27 1   
    45   24   45 1   
    46   25   26 3   
    47   27   28 2   
    48   27   44 1   
    49   28   42 1   
@<TRIPOS>SUBSTRUCTURE
     1 HQP         1 TEMP              0 ****  ****    0 ROOT
