@<TRIPOS>MOLECULE
HQP
   45    49     1     0     0
SMALL
bcc


@<TRIPOS>ATOM
      1 CAL        -0.5310   -0.3590    0.7950 cx        1 HQP     -0.121400
      2 CAM         0.8670   -0.3460    0.2580 cx        1 HQP     -0.121400
      3 CBB         0.1710    0.9570    0.5720 cx        1 HQP     -0.072400
      4 CAX         0.6280    1.7840    1.6830 cc        1 HQP     -0.056600
      5 CAK         1.5530    2.8390    1.6690 cd        1 HQP     -0.319300
      6 NAS         0.1860    1.6710    3.0080 na        1 HQP     -0.010600
      7 NAN         0.7410    2.5590    3.8270 nc        1 HQP     -0.476800
      8 CAV         1.6010    3.3080    3.0500 cd        1 HQP      0.507200
      9 NAR         2.4700    4.3070    3.5110 nu        1 HQP     -0.802600
     10 C6          2.0730    5.3130    4.4030 ca        1 HQP      0.706200
     11 N1          0.8210    5.3360    4.8910 nb        1 HQP     -0.749000
     12 C5          3.0690    6.3110    4.7990 ca        1 HQP     -0.295600
     13 CAJ         4.4070    6.3290    4.3450 ca        1 HQP     -0.089000
     14 CAD         5.2700    7.3210    4.7510 ca        1 HQP     -0.146000
     15 CAC         4.8290    8.3330    5.6320 ca        1 HQP     -0.103000
     16 CAI         3.5420    8.3380    6.1080 ca        1 HQP     -0.181300
     17 C4          2.6210    7.3140    5.7110 ca        1 HQP      0.446600
     18 N3          1.3420    7.3280    6.2270 nb        1 HQP     -0.715000
     19 C2          0.5190    6.3300    5.8330 ca        1 HQP      0.861000
     20 NAQ        -0.7490    6.2130    6.4970 ne        1 HQP     -0.598700
     21 CAU        -1.8590    6.5370    5.9110 cf        1 HQP      0.548900
     22 CAG        -3.1250    6.3640    6.6600 cf        1 HQP     -0.220600
     23 CAE        -4.2980    6.7960    6.1850 c2        1 HQP     -0.139200
     24 CAT        -4.4450    7.5200    4.8870 c3        1 HQP      0.053800
     25 CAB        -5.5570    6.9800    4.1190 c1        1 HQP      0.217700
     26 NAA        -6.4470    6.5540    3.5060 n1        1 HQP     -0.359800
     27 CAF        -3.1910    7.5150    4.0760 c2        1 HQP     -0.139200
     28 CAH        -2.0170    7.0830    4.5500 cf        1 HQP     -0.220600
     29 HAL1       -0.7060   -0.7240    1.8230 hc        1 HQP      0.076700
     30 HAL2       -1.3660   -0.6250    0.1230 hc        1 HQP      0.076700
     31 HAM1        1.0420   -0.6050   -0.8010 hc        1 HQP      0.076700
     32 HAM2        1.6950   -0.6810    0.9080 hc        1 HQP      0.076700
     33 HBB        -0.1640    1.5820   -0.2840 hc        1 HQP      0.099700
     34 HAK         2.1160    3.2200    0.8270 ha        1 HQP      0.164000
     35 HAS        -0.5200    1.0590    3.3470 hn        1 HQP      0.325700
     36 HAR         3.1430    4.5890    2.8290 hn        1 HQP      0.437800
     37 HAJ         4.7840    5.5410    3.6760 ha        1 HQP      0.131000
     38 HAD         6.3120    7.3330    4.3990 ha        1 HQP      0.136000
     39 HAC         5.5370    9.1190    5.9400 ha        1 HQP      0.137000
     40 HAI         3.1990    9.1190    6.8040 ha        1 HQP      0.156000
     41 HAG        -3.0600    5.8560    7.6380 ha        1 HQP      0.156500
     42 HAH        -1.1110    7.1170    3.9210 ha        1 HQP      0.156500
     43 HAE        -5.2310    6.6490    6.7530 ha        1 HQP      0.144000
     44 HAF        -3.2870    7.9100    3.0520 ha        1 HQP      0.144000
     45 HAT        -4.6930    8.6050    5.1270 hc        1 HQP      0.103700
@<TRIPOS>BOND
     1    1    2 1   
     2    1    3 1   
     3    1   29 1   
     4    1   30 1   
     5    2    3 1   
     6    2   31 1   
     7    2   32 1   
     8    3    4 1   
     9    3   33 1   
    10    4    5 2   
    11    4    6 1   
    12    5    8 1   
    13    5   34 1   
    14    6    7 1   
    15    6   35 1   
    16    7    8 2   
    17    8    9 1   
    18    9   10 1   
    19    9   36 1   
    20   10   11 ar  
    21   10   12 ar  
    22   11   19 ar  
    23   12   13 ar  
    24   12   17 ar  
    25   13   14 ar  
    26   13   37 1   
    27   14   15 ar  
    28   14   38 1   
    29   15   16 ar  
    30   15   39 1   
    31   16   17 ar  
    32   16   40 1   
    33   17   18 ar  
    34   18   19 ar  
    35   19   20 1   
    36   20   21 2   
    37   21   22 1   
    38   21   28 1   
    39   22   23 2   
    40   22   41 1   
    41   23   24 1   
    42   23   43 1   
    43   24   25 1   
    44   24   27 1   
    45   24   45 1   
    46   25   26 3   
    47   27   28 2   
    48   27   44 1   
    49   28   42 1   
@<TRIPOS>SUBSTRUCTURE
     1 HQP         1 TEMP              0 ****  ****    0 ROOT
