@<TRIPOS>MOLECULE
HQP
   46    50     1     0     0
SMALL
bcc


@<TRIPOS>ATOM
      1 CAL         0.2070    1.3510   -0.4000 cx        1 HQP     -0.108900
      2 CAM         0.8860    0.0860    0.0190 cx        1 HQP     -0.108900
      3 CBB         0.3890    1.0520    1.0710 cx        1 HQP     -0.106400
      4 CAX         1.3220    1.8190    1.8820 cc        1 HQP     -0.011600
      5 CAK         1.2120    2.1890    3.2380 cd        1 HQP     -0.236300
      6 NAS         2.5490    2.3420    1.4310 na        1 HQP      0.033400
      7 NAN         3.2130    2.9980    2.3590 nc        1 HQP     -0.464800
      8 CAV         2.4280    2.9270    3.4990 cd        1 HQP      0.318200
      9 NAR         2.7950    3.5150    4.7720 n4        1 HQP     -0.698400
     10 C6          2.1260    4.8330    4.9940 ca        1 HQP      0.548200
     11 N1          0.9390    4.7840    5.5890 nb        1 HQP     -0.674000
     12 C5          2.7860    6.0380    4.5740 ca        1 HQP     -0.259600
     13 CAJ         4.0410    6.1170    3.9230 ca        1 HQP     -0.129000
     14 CAD         4.5670    7.3400    3.5840 ca        1 HQP     -0.087000
     15 CAC         3.8620    8.5340    3.8760 ca        1 HQP     -0.087000
     16 CAI         2.6400    8.4990    4.4960 ca        1 HQP     -0.160300
     17 C4          2.0540    7.2420    4.8680 ca        1 HQP      0.452600
     18 N3          0.8300    7.2220    5.4840 nb        1 HQP     -0.669000
     19 C2          0.3120    6.0210    5.8490 ca        1 HQP      0.880000
     20 NAQ        -0.8420    5.9440    6.6740 ne        1 HQP     -0.650700
     21 CAU        -2.0110    6.3910    6.3140 cf        1 HQP      0.611900
     22 CAG        -3.1140    6.3000    7.2950 cf        1 HQP     -0.258100
     23 CAE        -4.3460    6.7450    7.0220 c2        1 HQP     -0.093200
     24 CAT        -4.7210    7.4060    5.7370 c3        1 HQP      0.038800
     25 CAB        -5.9160    6.7990    5.1740 c1        1 HQP      0.200700
     26 NAA        -6.8740    6.3190    4.7250 n1        1 HQP     -0.319800
     27 CAF        -3.6120    7.4040    4.7360 c2        1 HQP     -0.093200
     28 CAH        -2.3790    6.9580    5.0070 cf        1 HQP     -0.258100
     29 HAL1        0.7990    2.1570   -0.8690 hc        1 HQP      0.088200
     30 HAL2       -0.8170    1.3050   -0.8150 hc        1 HQP      0.088200
     31 HAM1        0.3540   -0.8780   -0.0930 hc        1 HQP      0.088200
     32 HAM2        1.9720   -0.0290   -0.1450 hc        1 HQP      0.088200
     33 HBB        -0.5100    0.7640    1.6590 hc        1 HQP      0.119700
     34 HAK         0.3980    1.9780    3.9260 ha        1 HQP      0.202000
     35 HAS         2.9330    2.2510    0.5120 hn        1 HQP      0.354700
     36 HAR         2.5090    2.8480    5.5090 hn        1 HQP      0.479800
     37 HAJ         4.6010    5.2070    3.6630 ha        1 HQP      0.136000
     38 HAD         5.5440    7.4070    3.0770 ha        1 HQP      0.162000
     39 HAC         4.3140    9.5010    3.5950 ha        1 HQP      0.166000
     40 HAI         2.0890    9.4280    4.7230 ha        1 HQP      0.178000
     41 HAG        -2.8790    5.8460    8.2740 ha        1 HQP      0.159500
     42 HAH        -1.5910    7.0070    4.2380 ha        1 HQP      0.159500
     43 HAE        -5.1590    6.6580    7.7640 ha        1 HQP      0.159000
     44 HAF        -3.8680    7.8160    3.7440 ha        1 HQP      0.159000
     45 HAT        -4.9640    8.4940    5.9720 hc        1 HQP      0.123700
     46 HAR2        3.8130    3.6640    4.8240 hn        1 HQP      0.479800
@<TRIPOS>BOND
     1    1    2 1   
     2    1    3 1   
     3    1   29 1   
     4    1   30 1   
     5    2    3 1   
     6    2   31 1   
     7    2   32 1   
     8    3    4 1   
     9    3   33 1   
    10    4    5 2   
    11    4    6 1   
    12    5    8 1   
    13    5   34 1   
    14    6    7 1   
    15    6   35 1   
    16    7    8 2   
    17    8    9 1   
    18    9   10 1   
    19    9   36 1   
    20    9   46 1   
    21   10   11 ar  
    22   10   12 ar  
    23   11   19 ar  
    24   12   13 ar  
    25   12   17 ar  
    26   13   14 ar  
    27   13   37 1   
    28   14   15 ar  
    29   14   38 1   
    30   15   16 ar  
    31   15   39 1   
    32   16   17 ar  
    33   16   40 1   
    34   17   18 ar  
    35   18   19 ar  
    36   19   20 1   
    37   20   21 2   
    38   21   22 1   
    39   21   28 1   
    40   22   23 2   
    41   22   41 1   
    42   23   24 1   
    43   23   43 1   
    44   24   25 1   
    45   24   27 1   
    46   24   45 1   
    47   25   26 3   
    48   27   28 2   
    49   27   44 1   
    50   28   42 1   
@<TRIPOS>SUBSTRUCTURE
     1 HQP         1 TEMP              0 ****  ****    0 ROOT
