@<TRIPOS>MOLECULE
HQQ
   37    39     1     0     0
SMALL
bcc


@<TRIPOS>ATOM
      1 N1         -0.1100   -0.7410    0.2130 n         1 HQQ     -0.593500
      2 C2          1.1650   -0.2390   -0.0940 c         1 HQQ      0.820500
      3 O2          1.5330   -0.1090   -1.2780 o         1 HQQ     -0.615500
      4 N3          2.0250    0.0940    0.9670 n         1 HQQ     -0.593500
      5 C4          1.6680   -0.0010    2.3110 c         1 HQQ      0.710000
      6 O4          2.5500    0.1420    3.1710 o         1 HQQ     -0.587500
      7 C5          0.2000   -0.2570    2.6710 c3        1 HQQ     -0.109700
      8 C6         -0.5900   -0.8860    1.5130 c         1 HQQ      0.710000
      9 O6         -1.6550   -1.4960    1.6920 o         1 HQQ     -0.587500
     10 C7          0.1770   -1.2330    3.8470 c3        1 HQQ     -0.085100
     11 C8         -0.4790    1.0340    3.0490 ca        1 HQQ     -0.130300
     12 C9         -1.8550    1.0180    3.3290 ca        1 HQQ     -0.084000
     13 C10        -2.5230    2.1790    3.6970 ca        1 HQQ     -0.166500
     14 C11        -1.7990    3.3800    3.7960 ca        1 HQQ      0.132100
     15 C12        -0.4270    3.4120    3.5290 ca        1 HQQ     -0.166500
     16 C13         0.2250    2.2370    3.1580 ca        1 HQQ     -0.084000
     17 O11        -2.5320    4.4730    4.2370 os        1 HQQ     -0.246200
     18 C14        -2.0140    5.7370    3.9540 ca        1 HQQ      0.091100
     19 C15        -1.6060    6.1040    2.6660 ca        1 HQQ     -0.146000
     20 C16        -1.2200    7.4230    2.4330 ca        1 HQQ     -0.112500
     21 C17        -1.2440    8.3580    3.4690 ca        1 HQQ     -0.139000
     22 C18        -1.6550    7.9790    4.7470 ca        1 HQQ     -0.112500
     23 C19        -2.0380    6.6640    5.0050 ca        1 HQQ     -0.146000
     24 HN1        -0.6670   -1.0590   -0.5530 hn        1 HQQ      0.358000
     25 HN3         2.9640    0.3380    0.7250 hn        1 HQQ      0.358000
     26 H71         0.7280   -0.7880    4.7110 hc        1 HQQ      0.065700
     27 H72         0.6680   -2.1930    3.5600 hc        1 HQQ      0.065700
     28 H73        -0.8800   -1.4390    4.1430 hc        1 HQQ      0.065700
     29 H9         -2.4190    0.0720    3.2480 ha        1 HQQ      0.153500
     30 H10        -3.6000    2.1700    3.9170 ha        1 HQQ      0.156500
     31 H12         0.1350    4.3550    3.6150 ha        1 HQQ      0.156500
     32 H13         1.3100    2.2780    2.9710 ha        1 HQQ      0.153500
     33 H15        -1.5930    5.3590    1.8580 ha        1 HQQ      0.149500
     34 H16        -0.8990    7.7260    1.4250 ha        1 HQQ      0.138000
     35 H17        -0.9400    9.3970    3.2760 ha        1 HQQ      0.137000
     36 H18        -1.6740    8.7190    5.5610 ha        1 HQQ      0.138000
     37 H19        -2.3690    6.3500    6.0050 ha        1 HQQ      0.149500
@<TRIPOS>BOND
     1    1    2 1   
     2    1    8 1   
     3    1   24 1   
     4    2    3 2   
     5    2    4 1   
     6    4    5 1   
     7    4   25 1   
     8    5    6 2   
     9    5    7 1   
    10    7    8 1   
    11    7   10 1   
    12    7   11 1   
    13    8    9 2   
    14   10   26 1   
    15   10   27 1   
    16   10   28 1   
    17   11   12 ar  
    18   11   16 ar  
    19   12   13 ar  
    20   12   29 1   
    21   13   14 ar  
    22   13   30 1   
    23   14   15 ar  
    24   14   17 1   
    25   15   16 ar  
    26   15   31 1   
    27   16   32 1   
    28   17   18 1   
    29   18   19 ar  
    30   18   23 ar  
    31   19   20 ar  
    32   19   33 1   
    33   20   21 ar  
    34   20   34 1   
    35   21   22 ar  
    36   21   35 1   
    37   22   23 ar  
    38   22   36 1   
    39   23   37 1   
@<TRIPOS>SUBSTRUCTURE
     1 HQQ         1 TEMP              0 ****  ****    0 ROOT
