@<TRIPOS>MOLECULE
HQQ
   37    39     1     0     0
SMALL
bcc


@<TRIPOS>ATOM
      1 N1         -0.0640   -0.7560    0.2390 n         1 HQQ     -0.593500
      2 C2          1.2120   -0.2500   -0.0560 c         1 HQQ      0.820500
      3 O2          1.5940   -0.1270   -1.2370 o         1 HQQ     -0.615500
      4 N3          2.0580    0.0940    1.0120 n         1 HQQ     -0.593500
      5 C4          1.6860    0.0050    2.3530 c         1 HQQ      0.710000
      6 O4          2.5570    0.1590    3.2220 o         1 HQQ     -0.587500
      7 C5          0.2150   -0.2550    2.6980 c3        1 HQQ     -0.109700
      8 C6         -0.5580   -0.8940    1.5340 c         1 HQQ      0.710000
      9 O6         -1.6220   -1.5090    1.7050 o         1 HQQ     -0.587500
     10 C7          0.1820   -1.2230    3.8800 c3        1 HQQ     -0.085100
     11 C8         -0.4750    1.0360    3.0590 ca        1 HQQ     -0.130300
     12 C9         -1.8540    1.0150    3.3230 ca        1 HQQ     -0.084000
     13 C10        -2.5310    2.1750    3.6750 ca        1 HQQ     -0.167000
     14 C11        -1.8130    3.3810    3.7750 ca        1 HQQ      0.132100
     15 C12        -0.4380    3.4170    3.5240 ca        1 HQQ     -0.167000
     16 C13         0.2230    2.2430    3.1680 ca        1 HQQ     -0.084000
     17 O11        -2.5570    4.4720    4.2000 os        1 HQQ     -0.246200
     18 C14        -2.0400    5.7370    3.9170 ca        1 HQQ      0.091100
     19 C15        -1.6180    6.0990    2.6330 ca        1 HQQ     -0.146000
     20 C16        -1.2350    7.4190    2.3980 ca        1 HQQ     -0.112500
     21 C17        -1.2750    8.3580    3.4280 ca        1 HQQ     -0.139000
     22 C18        -1.6990    7.9840    4.7040 ca        1 HQQ     -0.112500
     23 C19        -2.0810    6.6690    4.9640 ca        1 HQQ     -0.146000
     24 HN1        -0.6110   -1.0810   -0.5320 hn        1 HQQ      0.358000
     25 HN3         2.9980    0.3400    0.7800 hn        1 HQQ      0.358000
     26 H71        -0.8770   -1.4320    4.1640 hc        1 HQQ      0.065700
     27 H72         0.6810   -2.1830    3.6040 hc        1 HQQ      0.065700
     28 H73         0.7210   -0.7700    4.7470 hc        1 HQQ      0.065700
     29 H9         -2.4120    0.0660    3.2410 ha        1 HQQ      0.153500
     30 H10        -3.6100    2.1630    3.8820 ha        1 HQQ      0.156500
     31 H12         0.1180    4.3620    3.6110 ha        1 HQQ      0.156500
     32 H13         1.3100    2.2870    2.9940 ha        1 HQQ      0.153500
     33 H15        -1.5930    5.3500    1.8290 ha        1 HQQ      0.150000
     34 H16        -0.9030    7.7180    1.3920 ha        1 HQQ      0.138000
     35 H17        -0.9730    9.3980    3.2340 ha        1 HQQ      0.137000
     36 H18        -1.7310    8.7280    5.5140 ha        1 HQQ      0.138000
     37 H19        -2.4220    6.3590    5.9610 ha        1 HQQ      0.150000
@<TRIPOS>BOND
     1    1    2 1   
     2    1    8 1   
     3    1   24 1   
     4    2    3 2   
     5    2    4 1   
     6    4    5 1   
     7    4   25 1   
     8    5    6 2   
     9    5    7 1   
    10    7    8 1   
    11    7   10 1   
    12    7   11 1   
    13    8    9 2   
    14   10   26 1   
    15   10   27 1   
    16   10   28 1   
    17   11   12 ar  
    18   11   16 ar  
    19   12   13 ar  
    20   12   29 1   
    21   13   14 ar  
    22   13   30 1   
    23   14   15 ar  
    24   14   17 1   
    25   15   16 ar  
    26   15   31 1   
    27   16   32 1   
    28   17   18 1   
    29   18   19 ar  
    30   18   23 ar  
    31   19   20 ar  
    32   19   33 1   
    33   20   21 ar  
    34   20   34 1   
    35   21   22 ar  
    36   21   35 1   
    37   22   23 ar  
    38   22   36 1   
    39   23   37 1   
@<TRIPOS>SUBSTRUCTURE
     1 HQQ         1 TEMP              0 ****  ****    0 ROOT
