@<TRIPOS>MOLECULE
HQQ
   37    39     1     0     0
SMALL
bcc


@<TRIPOS>ATOM
      1 N1         -0.1080   -0.7550    0.2290 ns        1 HQQ     -0.593500
      2 C2          1.1690   -0.2570   -0.0750 c         1 HQQ      0.820500
      3 O2          1.5430   -0.1340   -1.2580 o         1 HQQ     -0.615500
      4 N3          2.0260    0.0780    0.9880 ns        1 HQQ     -0.593500
      5 C4          1.6630   -0.0100    2.3310 c         1 HQQ      0.710000
      6 O4          2.5420    0.1360    3.1940 o         1 HQQ     -0.587500
      7 C5          0.1930   -0.2600    2.6870 c3        1 HQQ     -0.109700
      8 C6         -0.5940   -0.8920    1.5280 c         1 HQQ      0.710000
      9 O6         -1.6610   -1.4980    1.7050 o         1 HQQ     -0.587500
     10 C7          0.1620   -1.2300    3.8660 c3        1 HQQ     -0.085100
     11 C8         -0.4850    1.0350    3.0560 ca        1 HQQ     -0.130300
     12 C9         -1.8620    1.0230    3.3300 ca        1 HQQ     -0.084000
     13 C10        -2.5270    2.1880    3.6900 ca        1 HQQ     -0.166500
     14 C11        -1.8010    3.3880    3.7870 ca        1 HQQ      0.132100
     15 C12        -0.4270    3.4150    3.5250 ca        1 HQQ     -0.166500
     16 C13         0.2220    2.2370    3.1620 ca        1 HQQ     -0.084000
     17 O11        -2.5330    4.4840    4.2200 os        1 HQQ     -0.246200
     18 C14        -2.0100    5.7450    3.9340 ca        1 HQQ      0.091100
     19 C15        -1.5950    6.1070    2.6470 ca        1 HQQ     -0.146000
     20 C16        -1.2040    7.4240    2.4110 ca        1 HQQ     -0.112500
     21 C17        -1.2300    8.3620    3.4430 ca        1 HQQ     -0.139000
     22 C18        -1.6460    7.9890    4.7220 ca        1 HQQ     -0.112500
     23 C19        -2.0350    6.6760    4.9820 ca        1 HQQ     -0.146000
     24 HN1        -0.6630   -1.0750   -0.5380 hn        1 HQQ      0.358000
     25 HN3         2.9660    0.3180    0.7490 hn        1 HQQ      0.358000
     26 H71         0.7100   -0.7830    4.7310 hc        1 HQQ      0.065700
     27 H72        -0.8970   -1.4320    4.1580 hc        1 HQQ      0.065700
     28 H73         0.6510   -2.1930    3.5860 hc        1 HQQ      0.065700
     29 H9         -2.4270    0.0780    3.2510 ha        1 HQQ      0.153500
     30 H10        -3.6060    2.1830    3.9060 ha        1 HQQ      0.156500
     31 H12         0.1360    4.3560    3.6090 ha        1 HQQ      0.156500
     32 H13         1.3090    2.2740    2.9780 ha        1 HQQ      0.153500
     33 H15        -1.5820    5.3590    1.8410 ha        1 HQQ      0.150000
     34 H16        -0.8790    7.7220    1.4030 ha        1 HQQ      0.138000
     35 H17        -0.9220    9.4000    3.2480 ha        1 HQQ      0.137000
     36 H18        -1.6670    8.7320    5.5330 ha        1 HQQ      0.138000
     37 H19        -2.3710    6.3670    5.9820 ha        1 HQQ      0.150000
@<TRIPOS>BOND
     1    1    2 1   
     2    1    8 1   
     3    1   24 1   
     4    2    3 2   
     5    2    4 1   
     6    4    5 1   
     7    4   25 1   
     8    5    6 2   
     9    5    7 1   
    10    7    8 1   
    11    7   10 1   
    12    7   11 1   
    13    8    9 2   
    14   10   26 1   
    15   10   27 1   
    16   10   28 1   
    17   11   12 ar  
    18   11   16 ar  
    19   12   13 ar  
    20   12   29 1   
    21   13   14 ar  
    22   13   30 1   
    23   14   15 ar  
    24   14   17 1   
    25   15   16 ar  
    26   15   31 1   
    27   16   32 1   
    28   17   18 1   
    29   18   19 ar  
    30   18   23 ar  
    31   19   20 ar  
    32   19   33 1   
    33   20   21 ar  
    34   20   34 1   
    35   21   22 ar  
    36   21   35 1   
    37   22   23 ar  
    38   22   36 1   
    39   23   37 1   
@<TRIPOS>SUBSTRUCTURE
     1 HQQ         1 TEMP              0 ****  ****    0 ROOT
