@<TRIPOS>MOLECULE
HQQ
   37    39     1     0     0
SMALL
bcc


@<TRIPOS>ATOM
      1 N1         -0.9520    1.0890    3.7670 n         1 HQQ     -0.593500
      2 C2         -1.5190   -0.1910    3.8850 c         1 HQQ      0.820500
      3 O2         -2.6640   -0.3410    4.3550 o         1 HQQ     -0.615500
      4 N3         -0.7560   -1.3000    3.4820 n         1 HQQ     -0.593500
      5 C4          0.5170   -1.2010    2.9250 c         1 HQQ      0.710000
      6 O4          1.1790   -2.2380    2.7680 o         1 HQQ     -0.587500
      7 C5          1.0390    0.1790    2.5090 c3        1 HQQ     -0.109700
      8 C6          0.3110    1.3250    3.2280 c         1 HQQ      0.710000
      9 O6          0.7970    2.4620    3.3230 o         1 HQQ     -0.587500
     10 C7          2.5190    0.2460    2.8850 c3        1 HQQ     -0.085100
     11 C8          0.8680    0.3790    1.0250 ca        1 HQQ     -0.130300
     12 C9          1.2080    1.6210    0.4650 ca        1 HQQ     -0.084000
     13 C10         1.0820    1.8480   -0.8990 ca        1 HQQ     -0.167000
     14 C11         0.6150    0.8100   -1.7230 ca        1 HQQ      0.132100
     15 C12         0.2790   -0.4360   -1.1840 ca        1 HQQ     -0.167000
     16 C13         0.4080   -0.6440    0.1880 ca        1 HQQ     -0.084000
     17 O11         0.5880    1.1030   -3.0790 os        1 HQQ     -0.246200
     18 C14        -0.2370    0.3150   -3.8800 ca        1 HQQ      0.091100
     19 C15        -1.5810    0.0790   -3.5630 ca        1 HQQ     -0.146000
     20 C16        -2.3760   -0.6120   -4.4750 ca        1 HQQ     -0.112500
     21 C17        -1.8390   -1.0560   -5.6840 ca        1 HQQ     -0.139000
     22 C18        -0.4990   -0.8130   -5.9890 ca        1 HQQ     -0.112500
     23 C19         0.3170   -0.1300   -5.0890 ca        1 HQQ     -0.146000
     24 HN1        -1.4740    1.8510    4.1470 hn        1 HQQ      0.358000
     25 HN3        -1.1340   -2.2030    3.6830 hn        1 HQQ      0.358000
     26 H71         2.6420    0.1120    3.9860 hc        1 HQQ      0.065700
     27 H72         3.0750   -0.5660    2.3570 hc        1 HQQ      0.065700
     28 H73         2.9360    1.2390    2.5910 hc        1 HQQ      0.065700
     29 H9          1.5730    2.4330    1.1190 ha        1 HQQ      0.153500
     30 H10         1.3480    2.8190   -1.3410 ha        1 HQQ      0.156500
     31 H12        -0.0810   -1.2460   -1.8360 ha        1 HQQ      0.156500
     32 H13         0.1580   -1.6380    0.5930 ha        1 HQQ      0.153500
     33 H15        -1.9920    0.4360   -2.6080 ha        1 HQQ      0.150000
     34 H16        -3.4340   -0.8020   -4.2400 ha        1 HQQ      0.138000
     35 H17        -2.4750   -1.5980   -6.4000 ha        1 HQQ      0.137000
     36 H18        -0.0800   -1.1630   -6.9440 ha        1 HQQ      0.138000
     37 H19         1.3730    0.0730   -5.3160 ha        1 HQQ      0.150000
@<TRIPOS>BOND
     1    1    2 1   
     2    1    8 1   
     3    1   24 1   
     4    2    3 2   
     5    2    4 1   
     6    4    5 1   
     7    4   25 1   
     8    5    6 2   
     9    5    7 1   
    10    7    8 1   
    11    7   10 1   
    12    7   11 1   
    13    8    9 2   
    14   10   26 1   
    15   10   27 1   
    16   10   28 1   
    17   11   12 ar  
    18   11   16 ar  
    19   12   13 ar  
    20   12   29 1   
    21   13   14 ar  
    22   13   30 1   
    23   14   15 ar  
    24   14   17 1   
    25   15   16 ar  
    26   15   31 1   
    27   16   32 1   
    28   17   18 1   
    29   18   19 ar  
    30   18   23 ar  
    31   19   20 ar  
    32   19   33 1   
    33   20   21 ar  
    34   20   34 1   
    35   21   22 ar  
    36   21   35 1   
    37   22   23 ar  
    38   22   36 1   
    39   23   37 1   
@<TRIPOS>SUBSTRUCTURE
     1 HQQ         1 TEMP              0 ****  ****    0 ROOT
