@<TRIPOS>MOLECULE
HQT
   19    20     1     0     0
SMALL
bcc


@<TRIPOS>ATOM
      1 S1          0.1110   -0.2160   -0.0650 s         1 HQT     -0.522400
      2 C1          1.7110   -0.1310   -0.0310 c         1 HQT      0.398000
      3 C9          2.4840   -0.0740    1.2090 ca        1 HQT     -0.118600
      4 C8          1.8100   -0.0930    2.4490 ca        1 HQT     -0.070000
      5 C7          2.5250   -0.0390    3.6320 ca        1 HQT     -0.144000
      6 C6          3.9280    0.0340    3.6110 ca        1 HQT     -0.091000
      7 C5          4.6070    0.0530    2.4060 ca        1 HQT     -0.141000
      8 C4          3.8960   -0.0010    1.1890 ca        1 HQT      0.001200
      9 C3          4.5720    0.0180   -0.0760 cc        1 HQT     -0.179200
     10 C2          3.8530   -0.0350   -1.2340 cd        1 HQT      0.004600
     11 N1          2.4610   -0.1090   -1.2090 n         1 HQT     -0.140500
     12 O1          1.8930   -0.1520   -2.4120 oh        1 HQT     -0.398100
     13 H1          0.7060   -0.1510    2.4490 ha        1 HQT      0.176000
     14 H2          1.9960   -0.0540    4.5970 ha        1 HQT      0.142000
     15 H3          4.4840    0.0760    4.5600 ha        1 HQT      0.138000
     16 H4          5.7050    0.1100    2.3820 ha        1 HQT      0.139000
     17 H5          5.6680    0.0750   -0.1040 ha        1 HQT      0.159000
     18 H6          4.3060   -0.0250   -2.2420 h4        1 HQT      0.180000
     19 H7          0.9120   -0.2080   -2.2740 ho        1 HQT      0.468000
@<TRIPOS>BOND
     1    1    2 2   
     2    2    3 1   
     3    2   11 1   
     4    3    4 ar  
     5    3    8 ar  
     6    4    5 ar  
     7    4   13 1   
     8    5    6 ar  
     9    5   14 1   
    10    6    7 ar  
    11    6   15 1   
    12    7    8 ar  
    13    7   16 1   
    14    8    9 1   
    15    9   10 2   
    16    9   17 1   
    17   10   11 1   
    18   10   18 1   
    19   11   12 1   
    20   12   19 1   
@<TRIPOS>SUBSTRUCTURE
     1 HQT         1 TEMP              0 ****  ****    0 ROOT
