@<TRIPOS>MOLECULE
HQU
   20    16     1     0     0
SMALL
bcc


@<TRIPOS>ATOM
      1 N1         -0.1270   -0.0180   -1.4980 n1        1 HQU     -0.451800
      2 C2          1.2390   -0.0110   -1.5160 cg        1 HQU      0.018800
      3 C3          1.9510   -0.0150   -0.3220 c1        1 HQU      0.094600
      4 C4          1.2840   -0.0260    0.8720 c1        1 HQU     -0.189500
      5 C5         -0.7920   -0.0480    2.1190 c1        1 HQU     -0.074000
      6 C6         -2.1800   -0.0600    2.1350 c1        1 HQU     -0.074000
      7 C7         -2.8920   -0.0570    0.9370 c1        1 HQU     -0.074000
      8 C8         -2.2130   -0.0410   -0.2740 c1        1 HQU     -0.074000
      9 C9         -0.8040   -0.0280   -0.2920 cg        1 HQU      0.309800
     10 C10        -0.1020   -0.0320    0.8900 cg        1 HQU     -0.055000
     11 C           1.7090   -0.0260   -2.9550 c         1 HQU      0.901800
     12 O1          1.9290   -1.1230   -3.5350 o         1 HQU     -0.796300
     13 O2          1.8770    1.0580   -3.5740 o         1 HQU     -0.796300
     14 O3          3.3300    0.0130   -0.6060 oh        1 HQU     -0.436600
     15 H4          1.7850   -0.0280    1.7120 ha        1 HQU      0.058500
     16 H5         -0.4160    0.0590    3.0150 ha        1 HQU      0.061750
     17 H6         -2.6770   -0.1080    2.9760 ha        1 HQU      0.061750
     18 H7         -3.8620    0.0080    1.0290 ha        1 HQU      0.061750
     19 H8         -2.7770   -0.0850   -1.0710 ha        1 HQU      0.061750
     20 HO3         3.7370    0.5680   -0.0430 ho        1 HQU      0.393000
@<TRIPOS>BOND
     1    1    9 3   
     2    2    3 3   
     3    2   11 1   
     4    3   14 1   
     5    4   10 3   
     6    4   15 1   
     7    5    6 3   
     8    5   16 1   
     9    6   17 1   
    10    7    8 3   
    11    7   18 1   
    12    8   19 1   
    13    9   10 1   
    14   11   12 1   
    15   11   13 1   
    16   14   20 1   
@<TRIPOS>SUBSTRUCTURE
     1 HQU         1 TEMP              0 ****  ****    0 ROOT
