@<TRIPOS>MOLECULE
HQU
   20    21     1     0     0
SMALL
bcc


@<TRIPOS>ATOM
      1 N1          1.0620   -0.1050    0.1800 nb        1 HQU     -0.628000
      2 C2          0.1710   -0.0820    1.1530 ca        1 HQU      0.338800
      3 C3         -1.2610   -0.0420    0.8850 ca        1 HQU      0.066800
      4 C4         -1.7120    0.0150   -0.4190 ca        1 HQU     -0.205000
      5 C5         -1.1470    0.0630   -2.8370 ca        1 HQU     -0.127000
      6 C6         -0.2010    0.0410   -3.8330 ca        1 HQU     -0.146000
      7 C7          1.1710   -0.0360   -3.5080 ca        1 HQU     -0.167000
      8 C8          1.5810   -0.0880   -2.1970 ca        1 HQU     -0.150300
      9 C9          0.6250   -0.0640   -1.1350 ca        1 HQU      0.358600
     10 C10        -0.7600    0.0100   -1.4750 ca        1 HQU     -0.113300
     11 C           0.6220   -0.0970    2.6340 c         1 HQU      0.819100
     12 O1         -0.0500   -0.8540    3.3960 o         1 HQU     -0.802300
     13 O2          1.5570    0.6530    2.9920 o         1 HQU     -0.802300
     14 O3         -2.2030   -0.0490    1.8730 oh        1 HQU     -0.534100
     15 H4         -2.7840    0.0580   -0.6460 ha        1 HQU      0.131000
     16 H5         -2.2190    0.1220   -3.0770 ha        1 HQU      0.117000
     17 H6         -0.5000    0.0820   -4.8900 ha        1 HQU      0.110000
     18 H7          1.9110   -0.0530   -4.3200 ha        1 HQU      0.113000
     19 H8          2.6510   -0.1450   -1.9460 ha        1 HQU      0.139000
     20 HO3        -1.7680   -0.2640    2.7250 ho        1 HQU      0.480000
@<TRIPOS>BOND
     1    1    2 ar  
     2    1    9 ar  
     3    2    3 ar  
     4    2   11 1   
     5    3    4 ar  
     6    3   14 1   
     7    4   10 ar  
     8    4   15 1   
     9    5    6 ar  
    10    5   10 ar  
    11    5   16 1   
    12    6    7 ar  
    13    6   17 1   
    14    7    8 ar  
    15    7   18 1   
    16    8    9 ar  
    17    8   19 1   
    18    9   10 ar  
    19   11   12 1   
    20   11   13 1   
    21   14   20 1   
@<TRIPOS>SUBSTRUCTURE
     1 HQU         1 TEMP              0 ****  ****    0 ROOT
