@<TRIPOS>MOLECULE
HQU
   20    21     1     0     0
SMALL
bcc


@<TRIPOS>ATOM
      1 N1          0.0030   -0.0920   -0.0020 nb        1 HQU     -0.628000
      2 C2          1.3210   -0.0700    0.0460 ca        1 HQU      0.338800
      3 C3          2.0460   -0.0320    1.3100 ca        1 HQU      0.066800
      4 C4          1.3450    0.0260    2.4990 ca        1 HQU     -0.205000
      5 C5         -0.8610    0.0740    3.6370 ca        1 HQU     -0.127000
      6 C6         -2.2340    0.0520    3.5620 ca        1 HQU     -0.146000
      7 C7         -2.8760   -0.0230    2.3070 ca        1 HQU     -0.167000
      8 C8         -2.1430   -0.0740    1.1450 ca        1 HQU     -0.150300
      9 C9         -0.7140   -0.0520    1.1840 ca        1 HQU      0.358600
     10 C10        -0.0750    0.0210    2.4590 ca        1 HQU     -0.113300
     11 C           2.1570   -0.0840   -1.2580 c         1 HQU      0.819100
     12 O1          3.1720   -0.8420   -1.2410 o         1 HQU     -0.802300
     13 O2          1.8230    0.6660   -2.2000 o         1 HQU     -0.802300
     14 O3          3.4090   -0.0390    1.3870 oh        1 HQU     -0.534100
     15 H4          1.8680    0.0670    3.4630 ha        1 HQU      0.131000
     16 H5         -0.3500    0.1320    4.6090 ha        1 HQU      0.117000
     17 H6         -2.8450    0.0930    4.4750 ha        1 HQU      0.110000
     18 H7         -3.9740   -0.0390    2.2700 ha        1 HQU      0.113000
     19 H8         -2.6460   -0.1310    0.1670 ha        1 HQU      0.139000
     20 HO3         3.7750   -0.2540    0.5030 ho        1 HQU      0.480000
@<TRIPOS>BOND
     1    1    2 ar  
     2    1    9 ar  
     3    2    3 ar  
     4    2   11 1   
     5    3    4 ar  
     6    3   14 1   
     7    4   10 ar  
     8    4   15 1   
     9    5    6 ar  
    10    5   10 ar  
    11    5   16 1   
    12    6    7 ar  
    13    6   17 1   
    14    7    8 ar  
    15    7   18 1   
    16    8    9 ar  
    17    8   19 1   
    18    9   10 ar  
    19   11   12 1   
    20   11   13 1   
    21   14   20 1   
@<TRIPOS>SUBSTRUCTURE
     1 HQU         1 TEMP              0 ****  ****    0 ROOT
