@<TRIPOS>MOLECULE
HQY
   18    15     1     0     0
SMALL
bcc


@<TRIPOS>ATOM
      1 OAA        -2.6550    0.0450    1.2160 oh        1 HQY     -0.250000
      2 CAD         2.3590    0.0450    1.2160 c1        1 HQY     -0.115000
      3 CAE         1.3920    0.0450    2.2180 c1        1 HQY     -0.115000
      4 CAF         1.9810    0.0450   -0.0990 c1        1 HQY     -0.118500
      5 CAG        -1.1070    0.0450   -2.1160 c1        1 HQY     -0.087000
      6 NAH         0.0670    0.0450    1.8890 n1        1 HQY     -0.148000
      7 CAI         0.2420    0.0450   -1.7840 c1        1 HQY     -0.118500
      8 CAJ        -1.6850    0.0450    0.2220 c2        1 HQY      0.116000
      9 CAK        -2.0710    0.0450   -1.1130 c2        1 HQY     -0.172000
     10 CAL         0.6340    0.0450   -0.4320 c1        1 HQY     -0.047000
     11 CAM        -0.3180    0.0450    0.5590 c1        1 HQY     -0.063000
     12 HOAA       -2.9840   -0.7730    1.3080 ho        1 HQY      0.244000
     13 HAD         3.3060    0.0450    1.4510 ha        1 HQY      0.153000
     14 HAE         1.6630    0.0450    3.1560 ha        1 HQY      0.153000
     15 HAF         2.6580    0.0450   -0.8020 ha        1 HQY      0.138500
     16 HAG        -1.3790    0.0450   -3.0540 ha        1 HQY      0.137000
     17 HAI         0.9180    0.0450   -2.4890 ha        1 HQY      0.138500
     18 HAK        -3.0190    0.0450   -1.3460 ha        1 HQY      0.154000
@<TRIPOS>BOND
     1    1    8 1   
     2    1   12 1   
     3    2    3 1   
     4    2   13 1   
     5    3   14 1   
     6    4   10 1   
     7    4   15 1   
     8    5    9 1   
     9    5   16 1   
    10    6   11 1   
    11    7   10 1   
    12    7   17 1   
    13    8    9 1   
    14    8   11 1   
    15    9   18 1   
@<TRIPOS>SUBSTRUCTURE
     1 HQY         1 TEMP              0 ****  ****    0 ROOT
