@<TRIPOS>MOLECULE
HQY
   18    19     1     0     0
SMALL
bcc


@<TRIPOS>ATOM
      1 OAA         1.9410    1.9530   -0.1660 oh        1 HQY     -0.496100
      2 CAD        -2.7000   -0.1840   -0.0380 ca        1 HQY     -0.242300
      3 CAE        -2.1890    1.1520   -0.1090 ca        1 HQY      0.412200
      4 CAF        -1.8070   -1.2220    0.0120 ca        1 HQY     -0.083000
      5 CAG         1.9000   -1.6860    0.0220 ca        1 HQY     -0.087000
      6 NAH        -0.9050    1.4530   -0.1290 nb        1 HQY     -0.674000
      7 CAI         0.5580   -1.9850    0.0430 ca        1 HQY     -0.154000
      8 CAJ         1.4210    0.6850   -0.0980 ca        1 HQY      0.095800
      9 CAK         2.3420   -0.3520   -0.0480 ca        1 HQY     -0.172000
     10 CAL        -0.4060   -0.9510   -0.0070 ca        1 HQY     -0.112300
     11 CAM         0.0070    0.4150   -0.0790 ca        1 HQY      0.330600
     12 HOAA        1.2160    2.5960   -0.1960 ho        1 HQY      0.445000
     13 HAE        -2.8920    2.0050   -0.1500 h4        1 HQY      0.023100
     14 HAF        -2.1430   -2.2690    0.0680 ha        1 HQY      0.141000
     15 HAG         2.6520   -2.4900    0.0610 ha        1 HQY      0.137000
     16 HAI         0.2130   -3.0280    0.0980 ha        1 HQY      0.136000
     17 HAK         3.4170   -0.1220   -0.0640 ha        1 HQY      0.154000
     18 HAD        -3.7850   -0.3450   -0.0260 ha        1 HQY      0.146000
@<TRIPOS>BOND
     1    1    8 1   
     2    1   12 1   
     3    2    3 ar  
     4    2    4 ar  
     5    2   18 1   
     6    3    6 ar  
     7    3   13 1   
     8    4   10 ar  
     9    4   14 1   
    10    5    7 ar  
    11    5    9 ar  
    12    5   15 1   
    13    6   11 ar  
    14    7   10 ar  
    15    7   16 1   
    16    8    9 ar  
    17    8   11 ar  
    18    9   17 1   
    19   10   11 ar  
@<TRIPOS>SUBSTRUCTURE
     1 HQY         1 TEMP              0 ****  ****    0 ROOT
