@<TRIPOS>MOLECULE
HQY
   18    19     1     0     0
SMALL
bcc


@<TRIPOS>ATOM
      1 OAA        -0.1370   -0.1990   -0.1600 oh        1 HQY     -0.496100
      2 CAD         4.9680   -0.0240    0.0180 ca        1 HQY     -0.242300
      3 CAE         3.9120   -0.1080    0.9820 ca        1 HQY      0.412200
      4 CAF         4.6370    0.0280   -1.3110 ca        1 HQY     -0.083000
      5 CAG         1.5340    0.0170   -3.3920 ca        1 HQY     -0.087000
      6 NAH         2.6290   -0.1400    0.6730 nb        1 HQY     -0.674000
      7 CAI         2.8670    0.0480   -3.0550 ca        1 HQY     -0.154000
      8 CAJ         0.8960   -0.1180   -1.0580 ca        1 HQY      0.095800
      9 CAK         0.5400   -0.0670   -2.3980 ca        1 HQY     -0.172000
     10 CAL         3.2630   -0.0030   -1.6980 ca        1 HQY     -0.112300
     11 CAM         2.2810   -0.0880   -0.6640 ca        1 HQY      0.330600
     12 HOAA        0.2220   -0.2290    0.7400 ho        1 HQY      0.445000
     13 HAE         4.1570   -0.1510    2.0590 h4        1 HQY      0.023100
     14 HAF         5.4070    0.0930   -2.0950 ha        1 HQY      0.141000
     15 HAG         1.2240    0.0560   -4.4470 ha        1 HQY      0.137000
     16 HAI         3.6430    0.1130   -3.8310 ha        1 HQY      0.136000
     17 HAK        -0.5230   -0.0910   -2.6770 ha        1 HQY      0.154000
     18 HAD         6.0100   -0.0040    0.3620 ha        1 HQY      0.146000
@<TRIPOS>BOND
     1    1    8 1   
     2    1   12 1   
     3    2    3 ar  
     4    2    4 ar  
     5    2   18 1   
     6    3    6 ar  
     7    3   13 1   
     8    4   10 ar  
     9    4   14 1   
    10    5    7 ar  
    11    5    9 ar  
    12    5   15 1   
    13    6   11 ar  
    14    7   10 ar  
    15    7   16 1   
    16    8    9 ar  
    17    8   11 ar  
    18    9   17 1   
    19   10   11 ar  
@<TRIPOS>SUBSTRUCTURE
     1 HQY         1 TEMP              0 ****  ****    0 ROOT
