@<TRIPOS>MOLECULE
HR1
   73    77     1     0     0
SMALL
bcc


@<TRIPOS>ATOM
      1 N1          0.0170   -0.2580    0.3590 na        1 HR1      0.005900
      2 C4          5.3790   -0.9170   -3.9240 ca        1 HR1     -0.130000
      3 C5          0.8790   -0.0060    2.4740 cc        1 HR1     -0.139000
      4 C6         -0.9750   -0.4290   -0.6970 c3        1 HR1      0.030000
      5 C7         -1.6910   -0.1690    2.2530 c3        1 HR1     -0.030100
      6 C8         -2.3310   -1.5450    2.2000 c3        1 HR1     -0.082400
      7 C10        -4.4960   -2.8160    2.1140 c3        1 HR1     -0.122400
      8 C13        -1.0010    0.7280   -1.6940 c3        1 HR1     -0.111100
      9 C15         0.5660    1.4620    5.9120 ca        1 HR1     -0.170000
     10 C17         5.2030    1.2340   -2.1510 ca        1 HR1     -0.117000
     11 C20         4.4720    0.0540   -1.8930 ca        1 HR1      0.046600
     12 C21         1.3060   -0.9590    4.7190 ca        1 HR1     -0.096500
     13 C22         5.3740    0.3170    3.0940 ca        1 HR1     -0.162000
     14 C24         1.3330   -0.8450    6.1040 ca        1 HR1     -0.170000
     15 C26         4.5640   -1.0210   -2.7990 ca        1 HR1     -0.117000
     16 C28         6.1790    0.2670    1.9530 ca        1 HR1     -0.106000
     17 O1          1.8230   -0.3900   -2.1110 o         1 HR1     -0.641500
     18 C3          2.2410   -0.2160   -0.9500 c         1 HR1      0.748100
     19 C2          1.4090   -0.1730    0.2490 cd        1 HR1     -0.190900
     20 C14        -0.8390   -1.7550   -1.4440 c3        1 HR1     -0.111100
     21 C1          1.9690   -0.0150    1.5490 cc        1 HR1     -0.024000
     22 C31         3.3890    0.1010    1.7070 ca        1 HR1     -0.043000
     23 C25         3.9970    0.2310    2.9650 ca        1 HR1     -0.089000
     24 C16         4.2050    0.0730    0.5370 ca        1 HR1      0.078600
     25 C19         5.6120    0.1450    0.6950 ca        1 HR1     -0.175000
     26 N2          3.6290   -0.0390   -0.7420 n         1 HR1     -0.279200
     27 C23         6.1080    0.2450   -4.1650 ca        1 HR1     -0.133000
     28 C29         6.0160    1.3170   -3.2780 ca        1 HR1     -0.130000
     29 C27         0.9170    0.1230    3.9160 ca        1 HR1     -0.008000
     30 C30         0.9650    0.3720    6.7070 ca        1 HR1      0.117900
     31 C18         0.5440    1.3290    4.5280 ca        1 HR1     -0.096500
     32 F1          0.9930    0.4940    8.0560 f         1 HR1     -0.146900
     33 C12        -0.3100   -0.1540    1.7100 cd        1 HR1     -0.032600
     34 C9         -3.8490   -1.4380    2.0470 c3        1 HR1      0.152100
     35 O4         -4.0820   -0.7980    0.7960 oh        1 HR1     -0.647800
     36 C11        -6.0080   -2.7360    2.3290 c3        1 HR1      0.171100
     37 O3         -6.5670   -2.2100    1.1320 oh        1 HR1     -0.677800
     38 C35        -6.5850   -4.1000    2.6680 c3        1 HR1     -0.235400
     39 C36        -8.0660   -4.0040    3.0710 c         1 HR1      0.910600
     40 O7         -8.4830   -4.7650    3.9850 o         1 HR1     -0.844300
     41 O6         -8.7990   -3.1710    2.4530 o         1 HR1     -0.844300
     42 H6         -1.9900   -0.4460   -0.1760 h1        1 HR1      0.110700
     43 H71        -1.6450    0.1850    3.3190 hc        1 HR1      0.071200
     44 H72        -2.3300    0.5660    1.6880 hc        1 HR1      0.071200
     45 H81        -2.1010   -2.1090    3.1400 hc        1 HR1      0.050700
     46 H82        -1.9260   -2.1370    1.3390 hc        1 HR1      0.050700
     47 H101       -4.2890   -3.3670    1.1620 hc        1 HR1      0.051200
     48 H102       -4.0490   -3.3920    2.9630 hc        1 HR1      0.051200
     49 H131       -1.1390    1.7040   -1.1710 hc        1 HR1      0.052200
     50 H132       -0.0610    0.7670   -2.2970 hc        1 HR1      0.052200
     51 H133       -1.8640    0.5700   -2.3850 hc        1 HR1      0.052200
     52 H17         5.1350    2.0890   -1.4610 ha        1 HR1      0.147500
     53 H21         1.5890   -1.9120    4.2440 ha        1 HR1      0.145500
     54 H22         5.8310    0.4200    4.0880 ha        1 HR1      0.131000
     55 H24         1.6330   -1.6950    6.7330 ha        1 HR1      0.145500
     56 H26         3.9680   -1.9330   -2.6350 ha        1 HR1      0.147500
     57 H28         7.2740    0.3220    2.0510 ha        1 HR1      0.128000
     58 H141        0.1100   -1.7970   -2.0300 hc        1 HR1      0.052200
     59 H142       -0.8690   -2.6160   -0.7340 hc        1 HR1      0.052200
     60 H143       -1.7010   -1.8460   -2.1480 hc        1 HR1      0.052200
     61 H25         3.3550    0.2600    3.8610 ha        1 HR1      0.149000
     62 H19         6.2720    0.0990   -0.1860 ha        1 HR1      0.142000
     63 H23         6.7500    0.3200   -5.0550 ha        1 HR1      0.129000
     64 H29         6.5820    2.2400   -3.4700 ha        1 HR1      0.131500
     65 H18         0.2290    2.1790    3.9040 ha        1 HR1      0.145500
     66 H9         -4.2670   -0.7790    2.8620 h1        1 HR1      0.034700
     67 HO4        -5.0080   -0.9560    0.5620 ho        1 HR1      0.446000
     68 H11        -6.2340   -2.0180    3.1700 h1        1 HR1      0.029700
     69 HO3        -7.5340   -2.3180    1.2060 ho        1 HR1      0.468000
     70 H351       -6.5130   -4.7710    1.7760 hc        1 HR1      0.037200
     71 H352       -6.0070   -4.5600    3.5060 hc        1 HR1      0.037200
     72 H4          5.4390   -1.7610   -4.6270 ha        1 HR1      0.131500
     73 H15         0.2720    2.4070    6.3910 ha        1 HR1      0.145500
@<TRIPOS>BOND
     1    1    4 1   
     2    1   19 1   
     3    1   33 1   
     4    2   15 ar  
     5    2   27 ar  
     6    2   72 1   
     7    3   21 1   
     8    3   29 1   
     9    3   33 2   
    10    4    8 1   
    11    4   20 1   
    12    4   42 1   
    13    5    6 1   
    14    5   33 1   
    15    5   43 1   
    16    5   44 1   
    17    6   34 1   
    18    6   45 1   
    19    6   46 1   
    20    7   34 1   
    21    7   36 1   
    22    7   47 1   
    23    7   48 1   
    24    8   49 1   
    25    8   50 1   
    26    8   51 1   
    27    9   30 ar  
    28    9   31 ar  
    29    9   73 1   
    30   10   11 ar  
    31   10   28 ar  
    32   10   52 1   
    33   11   15 ar  
    34   11   26 1   
    35   12   14 ar  
    36   12   29 ar  
    37   12   53 1   
    38   13   16 ar  
    39   13   23 ar  
    40   13   54 1   
    41   14   30 ar  
    42   14   55 1   
    43   15   56 1   
    44   16   25 ar  
    45   16   57 1   
    46   17   18 2   
    47   18   19 1   
    48   18   26 1   
    49   19   21 2   
    50   20   58 1   
    51   20   59 1   
    52   20   60 1   
    53   21   22 1   
    54   22   23 ar  
    55   22   24 ar  
    56   23   61 1   
    57   24   25 ar  
    58   24   26 1   
    59   25   62 1   
    60   27   28 ar  
    61   27   63 1   
    62   28   64 1   
    63   29   31 ar  
    64   30   32 1   
    65   31   65 1   
    66   34   35 1   
    67   34   66 1   
    68   35   67 1   
    69   36   37 1   
    70   36   38 1   
    71   36   68 1   
    72   37   69 1   
    73   38   39 1   
    74   38   70 1   
    75   38   71 1   
    76   39   40 1   
    77   39   41 1   
@<TRIPOS>SUBSTRUCTURE
     1 HR1         1 TEMP              0 ****  ****    0 ROOT
