@<TRIPOS>MOLECULE
HR1
   73    77     1     0     0
SMALL
bcc


@<TRIPOS>ATOM
      1 N1         -0.5170   -0.9820    0.5170 na        1 HR1      0.005900
      2 C4         -6.8150   -2.9750   -1.4530 ca        1 HR1     -0.130000
      3 C5         -0.4830    1.3130    0.4230 cc        1 HR1     -0.139000
      4 C6         -0.0270   -2.3470    0.6800 c3        1 HR1      0.030000
      5 C7          1.7330    0.1180    1.0070 c3        1 HR1     -0.030100
      6 C8          2.6110   -0.3810   -0.1270 c3        1 HR1     -0.082400
      7 C10         4.7950   -1.4690   -0.7260 c3        1 HR1     -0.122400
      8 C13        -0.6890   -3.0910    1.8390 c3        1 HR1     -0.111100
      9 C15         0.8260    4.5610    1.7720 ca        1 HR1     -0.170000
     10 C17        -6.4670   -1.0930    0.5810 ca        1 HR1     -0.117000
     11 C20        -5.4310   -1.3130   -0.3520 ca        1 HR1      0.046600
     12 C21         0.2800    3.3800   -0.7070 ca        1 HR1     -0.096500
     13 C22        -4.2740    3.6230   -0.5700 ca        1 HR1     -0.162000
     14 C24         0.7880    4.6740   -0.6640 ca        1 HR1     -0.170000
     15 C26        -5.6160   -2.2700   -1.3700 ca        1 HR1     -0.117000
     16 C28        -5.4330    2.8770   -0.7980 ca        1 HR1     -0.106000
     17 O1         -3.0750   -2.5790   -0.0160 o         1 HR1     -0.641500
     18 C3         -3.0170   -1.3330   -0.0180 c         1 HR1      0.748100
     19 C2         -1.8080   -0.5460    0.2080 cd        1 HR1     -0.190900
     20 C14        -0.1270   -3.1800   -0.5970 c3        1 HR1     -0.111100
     21 C1         -1.8150    0.8780    0.1440 cc        1 HR1     -0.024000
     22 C31        -3.0320    1.5750   -0.1540 ca        1 HR1     -0.043000
     23 C25        -3.0910    2.9730   -0.2560 ca        1 HR1     -0.089000
     24 C16        -4.2180    0.8090   -0.3620 ca        1 HR1      0.078600
     25 C19        -5.4120    1.4940   -0.7000 ca        1 HR1     -0.175000
     26 N2         -4.2000   -0.5930   -0.2520 n         1 HR1     -0.279200
     27 C23        -7.8390   -2.7430   -0.5370 ca        1 HR1     -0.133000
     28 C29        -7.6590   -1.8040    0.4780 ca        1 HR1     -0.130000
     29 C27         0.0350    2.6650    0.4750 ca        1 HR1     -0.008000
     30 C30         1.0610    5.2700    0.5810 ca        1 HR1      0.117900
     31 C18         0.3180    3.2670    1.7100 ca        1 HR1     -0.096500
     32 F1          1.5520    6.5330    0.6320 f         1 HR1     -0.146900
     33 C12         0.2920    0.1450    0.6520 cd        1 HR1     -0.032600
     34 C9          3.8610   -1.0770    0.4130 c3        1 HR1      0.152100
     35 O4          3.4050   -2.2100    1.1450 oh        1 HR1     -0.647800
     36 C11         6.1950   -1.8300   -0.2300 c3        1 HR1      0.171100
     37 O3          6.0760   -3.0550    0.4840 oh        1 HR1     -0.677800
     38 C35         7.1730   -1.9460   -1.3880 c3        1 HR1     -0.235400
     39 C36         8.6180   -2.1220   -0.8920 c         1 HR1      0.910600
     40 O7          9.5400   -1.5600   -1.5420 o         1 HR1     -0.844300
     41 O6          8.8120   -2.8350    0.1400 o         1 HR1     -0.844300
     42 H6          1.0820   -2.2560    0.9300 h1        1 HR1      0.110700
     43 H71         1.8900   -0.5270    1.9160 hc        1 HR1      0.071200
     44 H72         2.0370    1.1640    1.2870 hc        1 HR1      0.071200
     45 H81         2.0500   -1.1060   -0.7720 hc        1 HR1      0.050700
     46 H82         2.9250    0.4780   -0.7730 hc        1 HR1      0.050700
     47 H101        4.3610   -2.3450   -1.2730 hc        1 HR1      0.051200
     48 H102        4.8840   -0.6130   -1.4420 hc        1 HR1      0.051200
     49 H131       -1.7700   -3.2820    1.6350 hc        1 HR1      0.052200
     50 H132       -0.1690   -4.0720    1.9620 hc        1 HR1      0.052200
     51 H133       -0.5940   -2.5160    2.7910 hc        1 HR1      0.052200
     52 H17        -6.3360   -0.3590    1.3900 ha        1 HR1      0.147500
     53 H21         0.0700    2.9080   -1.6790 ha        1 HR1      0.145500
     54 H22        -4.3000    4.7200   -0.6430 ha        1 HR1      0.131000
     55 H24         0.9850    5.2310   -1.5900 ha        1 HR1      0.145500
     56 H26        -4.8030   -2.4830   -2.0810 ha        1 HR1      0.147500
     57 H28        -6.3710    3.3870   -1.0600 ha        1 HR1      0.128000
     58 H141        0.3960   -2.6740   -1.4430 hc        1 HR1      0.052200
     59 H142        0.3710   -4.1620   -0.4090 hc        1 HR1      0.052200
     60 H143       -1.1900   -3.3640   -0.8810 hc        1 HR1      0.052200
     61 H25        -2.1700    3.5540   -0.0840 ha        1 HR1      0.149000
     62 H19        -6.3380    0.9310   -0.8940 ha        1 HR1      0.142000
     63 H23        -8.7820   -3.3030   -0.6090 ha        1 HR1      0.129000
     64 H29        -8.4600   -1.6250    1.2100 ha        1 HR1      0.131500
     65 H18         0.1370    2.7080    2.6410 ha        1 HR1      0.145500
     66 H9          4.3990   -0.3890    1.1270 h1        1 HR1      0.034700
     67 HO4         4.1660   -2.7960    1.2670 ho        1 HR1      0.446000
     68 H11         6.5600   -1.0380    0.4860 h1        1 HR1      0.029700
     69 HO3         6.9850   -3.3680    0.6520 ho        1 HR1      0.468000
     70 H351        6.9120   -2.8360   -2.0130 hc        1 HR1      0.037200
     71 H352        7.1140   -1.0330   -2.0280 hc        1 HR1      0.037200
     72 H4         -6.9470   -3.7230   -2.2490 ha        1 HR1      0.131500
     73 H15         1.0480    5.0320    2.7400 ha        1 HR1      0.145500
@<TRIPOS>BOND
     1    1    4 1   
     2    1   19 1   
     3    1   33 1   
     4    2   15 ar  
     5    2   27 ar  
     6    2   72 1   
     7    3   21 1   
     8    3   29 1   
     9    3   33 2   
    10    4    8 1   
    11    4   20 1   
    12    4   42 1   
    13    5    6 1   
    14    5   33 1   
    15    5   43 1   
    16    5   44 1   
    17    6   34 1   
    18    6   45 1   
    19    6   46 1   
    20    7   34 1   
    21    7   36 1   
    22    7   47 1   
    23    7   48 1   
    24    8   49 1   
    25    8   50 1   
    26    8   51 1   
    27    9   30 ar  
    28    9   31 ar  
    29    9   73 1   
    30   10   11 ar  
    31   10   28 ar  
    32   10   52 1   
    33   11   15 ar  
    34   11   26 1   
    35   12   14 ar  
    36   12   29 ar  
    37   12   53 1   
    38   13   16 ar  
    39   13   23 ar  
    40   13   54 1   
    41   14   30 ar  
    42   14   55 1   
    43   15   56 1   
    44   16   25 ar  
    45   16   57 1   
    46   17   18 2   
    47   18   19 1   
    48   18   26 1   
    49   19   21 2   
    50   20   58 1   
    51   20   59 1   
    52   20   60 1   
    53   21   22 1   
    54   22   23 ar  
    55   22   24 ar  
    56   23   61 1   
    57   24   25 ar  
    58   24   26 1   
    59   25   62 1   
    60   27   28 ar  
    61   27   63 1   
    62   28   64 1   
    63   29   31 ar  
    64   30   32 1   
    65   31   65 1   
    66   34   35 1   
    67   34   66 1   
    68   35   67 1   
    69   36   37 1   
    70   36   38 1   
    71   36   68 1   
    72   37   69 1   
    73   38   39 1   
    74   38   70 1   
    75   38   71 1   
    76   39   40 1   
    77   39   41 1   
@<TRIPOS>SUBSTRUCTURE
     1 HR1         1 TEMP              0 ****  ****    0 ROOT
