@<TRIPOS>MOLECULE
HR1
   73    77     1     0     0
SMALL
bcc


@<TRIPOS>ATOM
      1 N1          0.0160   -0.2560    0.3590 na        1 HR1      0.005900
      2 C4          5.3700   -0.9340   -3.9290 ca        1 HR1     -0.130000
      3 C5          0.8820   -0.0070    2.4730 cc        1 HR1     -0.139000
      4 C6         -0.9780   -0.4230   -0.6950 c3        1 HR1      0.030000
      5 C7         -1.6890   -0.1630    2.2560 c3        1 HR1     -0.030100
      6 C8         -2.3330   -1.5370    2.2040 c3        1 HR1     -0.082400
      7 C10        -4.5010   -2.8020    2.1180 c3        1 HR1     -0.122400
      8 C13        -1.0020    0.7350   -1.6920 c3        1 HR1     -0.111100
      9 C15         0.5770    1.4600    5.9130 ca        1 HR1     -0.170000
     10 C17         5.2020    1.2200   -2.1600 ca        1 HR1     -0.117000
     11 C20         4.4690    0.0430   -1.8990 ca        1 HR1      0.046600
     12 C21         1.3110   -0.9620    4.7160 ca        1 HR1     -0.096500
     13 C22         5.3790    0.3060    3.0860 ca        1 HR1     -0.162000
     14 C24         1.3410   -0.8490    6.1020 ca        1 HR1     -0.170000
     15 C26         4.5560   -1.0350   -2.8040 ca        1 HR1     -0.117000
     16 C28         6.1820    0.2530    1.9440 ca        1 HR1     -0.106000
     17 O1          1.8180   -0.3920   -2.1140 o         1 HR1     -0.641500
     18 C3          2.2380   -0.2190   -0.9530 c         1 HR1      0.748100
     19 C2          1.4070   -0.1740    0.2470 cd        1 HR1     -0.190900
     20 C14        -0.8470   -1.7490   -1.4430 c3        1 HR1     -0.111100
     21 C1          1.9700   -0.0190    1.5470 cc        1 HR1     -0.024000
     22 C31         3.3910    0.0950    1.7020 ca        1 HR1     -0.043000
     23 C25         4.0010    0.2230    2.9590 ca        1 HR1     -0.089000
     24 C16         4.2050    0.0640    0.5310 ca        1 HR1      0.078600
     25 C19         5.6130    0.1320    0.6870 ca        1 HR1     -0.175000
     26 N2          3.6270   -0.0470   -0.7470 n         1 HR1     -0.279200
     27 C23         6.1030    0.2260   -4.1740 ca        1 HR1     -0.132000
     28 C29         6.0140    1.2990   -3.2880 ca        1 HR1     -0.130000
     29 C27         0.9220    0.1220    3.9150 ca        1 HR1     -0.008000
     30 C30         0.9750    0.3680    6.7060 ca        1 HR1      0.117900
     31 C18         0.5520    1.3270    4.5290 ca        1 HR1     -0.096500
     32 F1          1.0060    0.4890    8.0560 f         1 HR1     -0.146900
     33 C12        -0.3080   -0.1510    1.7110 cd        1 HR1     -0.032600
     34 C9         -3.8510   -1.4260    2.0520 c3        1 HR1      0.152100
     35 O4         -4.0830   -0.7830    0.8030 oh        1 HR1     -0.647800
     36 C11        -6.0120   -2.7200    2.3370 c3        1 HR1      0.171100
     37 O3         -6.5730   -2.1880    1.1430 oh        1 HR1     -0.677800
     38 C35        -6.5920   -4.0840    2.6720 c3        1 HR1     -0.235400
     39 C36        -8.0720   -3.9860    3.0780 c         1 HR1      0.910600
     40 O7         -8.4890   -4.7490    3.9900 o         1 HR1     -0.844300
     41 O6         -8.8040   -3.1480    2.4660 o         1 HR1     -0.844300
     42 H6         -1.9920   -0.4380   -0.1730 h1        1 HR1      0.110700
     43 H71        -1.6400    0.1910    3.3230 hc        1 HR1      0.071200
     44 H72        -2.3270    0.5740    1.6930 hc        1 HR1      0.071200
     45 H81        -1.9300   -2.1290    1.3410 hc        1 HR1      0.050700
     46 H82        -2.1020   -2.1020    3.1420 hc        1 HR1      0.050700
     47 H101       -4.0530   -3.3820    2.9650 hc        1 HR1      0.051200
     48 H102       -4.2970   -3.3520    1.1640 hc        1 HR1      0.051200
     49 H131       -1.8670    0.5790   -2.3820 hc        1 HR1      0.052200
     50 H132       -1.1370    1.7110   -1.1680 hc        1 HR1      0.052200
     51 H133       -0.0640    0.7710   -2.2960 hc        1 HR1      0.052200
     52 H17         5.1380    2.0760   -1.4720 ha        1 HR1      0.147500
     53 H21         1.5920   -1.9150    4.2410 ha        1 HR1      0.145500
     54 H22         5.8370    0.4080    4.0800 ha        1 HR1      0.131000
     55 H24         1.6400   -1.7000    6.7300 ha        1 HR1      0.145500
     56 H26         3.9580   -1.9440   -2.6370 ha        1 HR1      0.147500
     57 H28         7.2760    0.3050    2.0410 ha        1 HR1      0.128000
     58 H141       -0.8780   -2.6110   -0.7340 hc        1 HR1      0.052200
     59 H142       -1.7110   -1.8370   -2.1460 hc        1 HR1      0.052200
     60 H143        0.1010   -1.7930   -2.0300 hc        1 HR1      0.052200
     61 H25         3.3610    0.2540    3.8560 ha        1 HR1      0.149000
     62 H19         6.2710    0.0840   -0.1950 ha        1 HR1      0.142000
     63 H23         6.7430    0.2970   -5.0650 ha        1 HR1      0.129000
     64 H29         6.5820    2.2200   -3.4820 ha        1 HR1      0.131500
     65 H18         0.2380    2.1790    3.9060 ha        1 HR1      0.145500
     66 H9         -4.2660   -0.7680    2.8690 h1        1 HR1      0.034700
     67 HO4        -5.0110   -0.9380    0.5710 ho        1 HR1      0.446000
     68 H11        -6.2340   -2.0050    3.1810 h1        1 HR1      0.029700
     69 HO3        -7.5400   -2.2930    1.2190 ho        1 HR1      0.468000
     70 H351       -6.5240   -4.7520    1.7770 hc        1 HR1      0.037200
     71 H352       -6.0130   -4.5490    3.5070 hc        1 HR1      0.037200
     72 H4          5.4270   -1.7800   -4.6310 ha        1 HR1      0.131500
     73 H15         0.2860    2.4040    6.3930 ha        1 HR1      0.145500
@<TRIPOS>BOND
     1    1    4 1   
     2    1   19 1   
     3    1   33 1   
     4    2   15 ar  
     5    2   27 ar  
     6    2   72 1   
     7    3   21 1   
     8    3   29 1   
     9    3   33 2   
    10    4    8 1   
    11    4   20 1   
    12    4   42 1   
    13    5    6 1   
    14    5   33 1   
    15    5   43 1   
    16    5   44 1   
    17    6   34 1   
    18    6   45 1   
    19    6   46 1   
    20    7   34 1   
    21    7   36 1   
    22    7   47 1   
    23    7   48 1   
    24    8   49 1   
    25    8   50 1   
    26    8   51 1   
    27    9   30 ar  
    28    9   31 ar  
    29    9   73 1   
    30   10   11 ar  
    31   10   28 ar  
    32   10   52 1   
    33   11   15 ar  
    34   11   26 1   
    35   12   14 ar  
    36   12   29 ar  
    37   12   53 1   
    38   13   16 ar  
    39   13   23 ar  
    40   13   54 1   
    41   14   30 ar  
    42   14   55 1   
    43   15   56 1   
    44   16   25 ar  
    45   16   57 1   
    46   17   18 2   
    47   18   19 1   
    48   18   26 1   
    49   19   21 2   
    50   20   58 1   
    51   20   59 1   
    52   20   60 1   
    53   21   22 1   
    54   22   23 ar  
    55   22   24 ar  
    56   23   61 1   
    57   24   25 ar  
    58   24   26 1   
    59   25   62 1   
    60   27   28 ar  
    61   27   63 1   
    62   28   64 1   
    63   29   31 ar  
    64   30   32 1   
    65   31   65 1   
    66   34   35 1   
    67   34   66 1   
    68   35   67 1   
    69   36   37 1   
    70   36   38 1   
    71   36   68 1   
    72   37   69 1   
    73   38   39 1   
    74   38   70 1   
    75   38   71 1   
    76   39   40 1   
    77   39   41 1   
@<TRIPOS>SUBSTRUCTURE
     1 HR1         1 TEMP              0 ****  ****    0 ROOT
