@<TRIPOS>MOLECULE
HR1
   73    77     1     0     0
SMALL
bcc


@<TRIPOS>ATOM
      1 N1          0.0180   -0.2550    0.3610 na        1 HR1      0.005900
      2 C4          5.3670   -0.9290   -3.9350 ca        1 HR1     -0.130000
      3 C5          0.8860   -0.0130    2.4740 cc        1 HR1     -0.139000
      4 C6         -0.9780   -0.4170   -0.6940 c3        1 HR1      0.030000
      5 C7         -1.6860   -0.1630    2.2590 c3        1 HR1     -0.030100
      6 C8         -2.3330   -1.5350    2.2030 c3        1 HR1     -0.082400
      7 C10        -4.5040   -2.7960    2.1170 c3        1 HR1     -0.122400
      8 C13        -1.0000    0.7440   -1.6870 c3        1 HR1     -0.111100
      9 C15         0.5870    1.4460    5.9180 ca        1 HR1     -0.170000
     10 C17         5.2060    1.2180   -2.1560 ca        1 HR1     -0.117000
     11 C20         4.4700    0.0420   -1.8990 ca        1 HR1      0.046600
     12 C21         1.3120   -0.9750    4.7150 ca        1 HR1     -0.096500
     13 C22         5.3830    0.2870    3.0860 ca        1 HR1     -0.162000
     14 C24         1.3430   -0.8650    6.1010 ca        1 HR1     -0.170000
     15 C26         4.5540   -1.0320   -2.8090 ca        1 HR1     -0.117000
     16 C28         6.1860    0.2350    1.9430 ca        1 HR1     -0.106000
     17 O1          1.8180   -0.3880   -2.1140 o         1 HR1     -0.641500
     18 C3          2.2390   -0.2200   -0.9530 c         1 HR1      0.748100
     19 C2          1.4090   -0.1760    0.2480 cd        1 HR1     -0.190900
     20 C14        -0.8500   -1.7420   -1.4450 c3        1 HR1     -0.111100
     21 C1          1.9740   -0.0250    1.5480 cc        1 HR1     -0.024000
     22 C31         3.3940    0.0840    1.7020 ca        1 HR1     -0.043000
     23 C25         4.0050    0.2070    2.9590 ca        1 HR1     -0.089000
     24 C16         4.2080    0.0560    0.5310 ca        1 HR1      0.078600
     25 C19         5.6150    0.1200    0.6860 ca        1 HR1     -0.175000
     26 N2          3.6290   -0.0500   -0.7470 n         1 HR1     -0.279200
     27 C23         6.1020    0.2300   -4.1750 ca        1 HR1     -0.132000
     28 C29         6.0170    1.3000   -3.2850 ca        1 HR1     -0.130000
     29 C27         0.9270    0.1120    3.9170 ca        1 HR1     -0.008000
     30 C30         0.9820    0.3520    6.7080 ca        1 HR1      0.117900
     31 C18         0.5610    1.3170    4.5330 ca        1 HR1     -0.096500
     32 F1          1.0140    0.4690    8.0580 f         1 HR1     -0.146900
     33 C12        -0.3060   -0.1520    1.7130 cd        1 HR1     -0.032600
     34 C9         -3.8500   -1.4210    2.0530 c3        1 HR1      0.152100
     35 O4         -4.0820   -0.7750    0.8050 oh        1 HR1     -0.647800
     36 C11        -6.0150   -2.7090    2.3360 c3        1 HR1      0.171100
     37 O3         -6.5750   -2.1750    1.1430 oh        1 HR1     -0.677800
     38 C35        -6.5980   -4.0730    2.6700 c3        1 HR1     -0.235400
     39 C36        -8.0780   -3.9710    3.0770 c         1 HR1      0.910600
     40 O7         -8.4960   -4.7340    3.9890 o         1 HR1     -0.844300
     41 O6         -8.8070   -3.1310    2.4650 o         1 HR1     -0.844300
     42 H6         -1.9910   -0.4310   -0.1710 h1        1 HR1      0.110700
     43 H71        -2.3230    0.5770    1.6980 hc        1 HR1      0.071200
     44 H72        -1.6350    0.1880    3.3260 hc        1 HR1      0.071200
     45 H81        -1.9320   -2.1260    1.3380 hc        1 HR1      0.050700
     46 H82        -2.1030   -2.1040    3.1400 hc        1 HR1      0.050700
     47 H101       -4.0580   -3.3770    2.9630 hc        1 HR1      0.051200
     48 H102       -4.3020   -3.3440    1.1620 hc        1 HR1      0.051200
     49 H131       -1.8650    0.5920   -2.3770 hc        1 HR1      0.052200
     50 H132       -0.0610    0.7790   -2.2910 hc        1 HR1      0.052200
     51 H133       -1.1310    1.7180   -1.1610 hc        1 HR1      0.052200
     52 H17         5.1440    2.0720   -1.4640 ha        1 HR1      0.147500
     53 H21         1.5900   -1.9280    4.2380 ha        1 HR1      0.145500
     54 H22         5.8430    0.3840    4.0800 ha        1 HR1      0.131000
     55 H24         1.6400   -1.7190    6.7270 ha        1 HR1      0.145500
     56 H26         3.9540   -1.9410   -2.6450 ha        1 HR1      0.147500
     57 H28         7.2800    0.2850    2.0390 ha        1 HR1      0.128000
     58 H141        0.0980   -1.7860   -2.0330 hc        1 HR1      0.052200
     59 H142       -1.7140   -1.8260   -2.1480 hc        1 HR1      0.052200
     60 H143       -0.8820   -2.6050   -0.7380 hc        1 HR1      0.052200
     61 H25         3.3660    0.2370    3.8570 ha        1 HR1      0.149000
     62 H19         6.2730    0.0730   -0.1960 ha        1 HR1      0.142000
     63 H23         6.7420    0.3040   -5.0660 ha        1 HR1      0.129000
     64 H29         6.5870    2.2210   -3.4750 ha        1 HR1      0.131500
     65 H18         0.2490    2.1710    3.9120 ha        1 HR1      0.145500
     66 H9         -4.2630   -0.7630    2.8720 h1        1 HR1      0.034700
     67 HO4        -5.0100   -0.9270    0.5730 ho        1 HR1      0.446000
     68 H11        -6.2350   -1.9940    3.1810 h1        1 HR1      0.029700
     69 HO3        -7.5420   -2.2790    1.2180 ho        1 HR1      0.468000
     70 H351       -6.5310   -4.7400    1.7750 hc        1 HR1      0.037200
     71 H352       -6.0200   -4.5390    3.5050 hc        1 HR1      0.037200
     72 H4          5.4210   -1.7710   -4.6400 ha        1 HR1      0.131500
     73 H15         0.2990    2.3910    6.4010 ha        1 HR1      0.145500
@<TRIPOS>BOND
     1    1    4 1   
     2    1   19 1   
     3    1   33 1   
     4    2   15 ar  
     5    2   27 ar  
     6    2   72 1   
     7    3   21 1   
     8    3   29 1   
     9    3   33 2   
    10    4    8 1   
    11    4   20 1   
    12    4   42 1   
    13    5    6 1   
    14    5   33 1   
    15    5   43 1   
    16    5   44 1   
    17    6   34 1   
    18    6   45 1   
    19    6   46 1   
    20    7   34 1   
    21    7   36 1   
    22    7   47 1   
    23    7   48 1   
    24    8   49 1   
    25    8   50 1   
    26    8   51 1   
    27    9   30 ar  
    28    9   31 ar  
    29    9   73 1   
    30   10   11 ar  
    31   10   28 ar  
    32   10   52 1   
    33   11   15 ar  
    34   11   26 1   
    35   12   14 ar  
    36   12   29 ar  
    37   12   53 1   
    38   13   16 ar  
    39   13   23 ar  
    40   13   54 1   
    41   14   30 ar  
    42   14   55 1   
    43   15   56 1   
    44   16   25 ar  
    45   16   57 1   
    46   17   18 2   
    47   18   19 1   
    48   18   26 1   
    49   19   21 2   
    50   20   58 1   
    51   20   59 1   
    52   20   60 1   
    53   21   22 1   
    54   22   23 ar  
    55   22   24 ar  
    56   23   61 1   
    57   24   25 ar  
    58   24   26 1   
    59   25   62 1   
    60   27   28 ar  
    61   27   63 1   
    62   28   64 1   
    63   29   31 ar  
    64   30   32 1   
    65   31   65 1   
    66   34   35 1   
    67   34   66 1   
    68   35   67 1   
    69   36   37 1   
    70   36   38 1   
    71   36   68 1   
    72   37   69 1   
    73   38   39 1   
    74   38   70 1   
    75   38   71 1   
    76   39   40 1   
    77   39   41 1   
@<TRIPOS>SUBSTRUCTURE
     1 HR1         1 TEMP              0 ****  ****    0 ROOT
