@<TRIPOS>MOLECULE
HR2
   72    72     1     0     0
SMALL
bcc


@<TRIPOS>ATOM
      1 N1          0.2370    1.3520    1.0000 na        1 HR2      0.002000
      2 C4          0.7070    0.4150    3.0810 c2        1 HR2      0.100000
      3 C5          1.9150    0.3150    2.2970 c2        1 HR2     -0.312000
      4 C6          0.5460    0.0280    4.4980 c3        1 HR2     -0.147000
      5 C7          5.5890   -1.6450    3.2090 c2        1 HR2     -0.101000
      6 C8          3.1460   -1.5340    3.4650 c3        1 HR2     -0.172000
      7 C10        -0.6500    1.4330    0.0450 c1        1 HR2     -0.219000
      8 C13        -1.5330    1.6870    2.7330 c2        1 HR2      0.445000
      9 C15         4.4150   -2.2080    3.7080 c1        1 HR2     -0.218000
     10 C17        -3.3690    0.0570    2.5850 c2        1 HR2      0.042000
     11 C20         2.5310    2.3360   -0.9830 c3        1 HR2     -0.125000
     12 C21         3.2080    1.8200   -2.2580 c3        1 HR2      0.069000
     13 C22         3.1210    2.8310   -3.3510 c2        1 HR2     -0.239000
     14 C24         3.0330    3.6820   -5.6960 c3        1 HR2     -0.166000
     15 C28        -3.3130    0.0870    1.0740 c3        1 HR2     -0.148000
     16 F1          6.7850   -2.2840    3.3640 f         1 HR2     -0.139000
     17 C9          3.1360   -0.2570    2.6850 c2        1 HR2      0.121000
     18 C14         4.3800    0.2860    2.3450 c2        1 HR2     -0.299000
     19 C18         5.5780   -0.3800    2.5990 c2        1 HR2     -0.020000
     20 C3          1.6590    1.0270    1.0290 c2        1 HR2      0.087000
     21 C19         2.5890    1.3370    0.0980 c2        1 HR2     -0.329000
     22 O33         2.6260    0.5990   -2.7100 oh        1 HR2     -0.370000
     23 C23         3.1390    2.5970   -4.6730 c2        1 HR2      0.035000
     24 O34         3.2220    1.3670   -5.2890 oh        1 HR2     -0.303000
     25 O27         4.9650    2.8580   -7.0300 oh        1 HR2     -0.297000
     26 O26         4.8260    5.0000   -6.6880 o         1 HR2     -0.321000
     27 C12        -0.4820    1.3810   -1.4100 c3        1 HR2     -0.217000
     28 C11         0.1420   -0.6660   -4.4970 c3        1 HR2     -0.272000
     29 C2          0.0270   -1.3810    4.6710 c3        1 HR2     -0.202000
     30 C16        -2.4980    0.7790    4.7260 c1        1 HR2     -0.147000
     31 N15        -2.4930    0.7960    3.4120 n         1 HR2     -0.139000
     32 O14        -1.8790    2.8530    2.5390 o         1 HR2     -0.272000
     33 C1         -0.2480    1.1110    2.3490 c2        1 HR2     -0.234000
     34 C29        -4.7140    0.1720    0.5340 c2        1 HR2     -0.133000
     35 C30        -5.8030   -0.2650    1.2060 c2        1 HR2     -0.172000
     36 C31        -5.5610   -1.0140    2.4480 c2        1 HR2     -0.070000
     37 C32        -4.4150   -0.6720    3.0220 c1        1 HR2     -0.258000
     38 H61         1.5350    0.1390    5.0220 hc        1 HR2      0.110500
     39 H62        -0.1680    0.7420    5.0030 hc        1 HR2      0.110500
     40 H8          2.6780   -1.3770    4.4800 hc        1 HR2      0.144000
     41 H10         0.2420   -1.7730   -4.4980 hc        1 HR2      0.068000
     42 H15         2.4840   -2.2750    2.9240 hc        1 HR2      0.144000
     43 H201        5.8770    0.7220    0.0830 ha        1 HR2      0.000500
     44 H202        3.1020    3.2480   -0.6440 hc        1 HR2      0.090000
     45 H21         1.4930    2.6800   -1.2140 hc        1 HR2      0.090000
     46 H221        4.3000    1.6170   -2.0340 h1        1 HR2      0.083000
     47 H222        3.0590    3.8720   -2.9920 ha        1 HR2      0.144000
     48 H241        2.7410    4.6460   -5.1990 hc        1 HR2      0.133000
     49 H242        2.2310    3.4090   -6.4370 hc        1 HR2      0.133000
     50 H28        -2.8150   -0.8290    0.6560 hc        1 HR2      0.159000
     51 H14         4.4270    1.2930    1.9040 ha        1 HR2      0.130000
     52 H18         6.5290    0.1090    2.3290 ha        1 HR2      0.114000
     53 H191        5.9790    0.9340   -0.5530 ha        1 HR2      0.000500
     54 H192        3.5810    0.8610    0.1920 ha        1 HR2      0.139000
     55 HO33        2.4910    0.0440   -1.9300 ho        1 HR2      0.235000
     56 H23         3.2700    0.6680   -4.6190 ho        1 HR2      0.260000
     57 HO34        4.5380    2.0200   -6.7890 ho        1 HR2      0.249000
     58 H121       -0.5430    2.4210   -1.8210 hc        1 HR2      0.084667
     59 H122       -1.3570    0.8040   -1.8110 hc        1 HR2      0.084667
     60 H123        0.4540    0.8940   -1.7880 hc        1 HR2      0.084667
     61 H111        1.1410   -0.2000   -4.3380 hc        1 HR2      0.068000
     62 H112       -0.5370   -0.3560   -3.6720 hc        1 HR2      0.068000
     63 H113       -0.2770   -0.3300   -5.4700 hc        1 HR2      0.068000
     64 H21A       -1.0590   -1.4330    4.4120 hc        1 HR2      0.074000
     65 H22         0.5780   -2.1010    4.0210 hc        1 HR2      0.074000
     66 H161        0.1480   -1.6980    5.7350 hc        1 HR2      0.074000
     67 H162       -3.2330    0.1000    5.2090 ha        1 HR2      0.055000
     68 H29        -2.6970    0.9730    0.7200 hc        1 HR2      0.159000
     69 H30        -4.7920    0.6040   -0.4730 ha        1 HR2      0.130000
     70 H31        -6.8250   -0.1710    0.8250 ha        1 HR2      0.127000
     71 H32        -6.2260   -1.8310    2.7400 ha        1 HR2      0.141000
     72 C25         4.3050    3.9060   -6.4630 c2        1 HR2      0.307000
@<TRIPOS>BOND
     1    1    7 1   
     2    1   20 1   
     3    1   33 1   
     4    2    3 1   
     5    2    4 1   
     6    2   33 1   
     7    3   17 1   
     8    3   20 1   
     9    4   29 1   
    10    4   38 1   
    11    4   39 1   
    12    5    9 1   
    13    5   16 1   
    14    5   19 1   
    15    6    9 1   
    16    6   17 1   
    17    6   40 1   
    18    6   42 1   
    19    7   27 1   
    20    8   31 1   
    21    8   32 1   
    22    8   33 1   
    23   10   15 1   
    24   10   31 1   
    25   10   37 1   
    26   11   12 1   
    27   11   21 1   
    28   11   44 1   
    29   11   45 1   
    30   12   13 1   
    31   12   22 1   
    32   12   46 1   
    33   13   23 1   
    34   13   47 1   
    35   14   23 1   
    36   14   48 1   
    37   14   49 1   
    38   14   72 1   
    39   15   34 1   
    40   15   50 1   
    41   15   68 1   
    42   17   18 1   
    43   18   19 1   
    44   18   51 1   
    45   19   52 1   
    46   20   21 1   
    47   21   54 1   
    48   22   55 1   
    49   23   24 1   
    50   24   56 1   
    51   25   57 1   
    52   25   72 1   
    53   26   72 1   
    54   27   58 1   
    55   27   59 1   
    56   27   60 1   
    57   28   41 1   
    58   28   61 1   
    59   28   62 1   
    60   28   63 1   
    61   29   64 1   
    62   29   65 1   
    63   29   66 1   
    64   30   31 1   
    65   30   67 1   
    66   34   35 1   
    67   34   69 1   
    68   35   36 1   
    69   35   70 1   
    70   36   37 1   
    71   36   71 1   
    72   43   53 1   
@<TRIPOS>SUBSTRUCTURE
     1 HR2         1 TEMP              0 ****  ****    0 ROOT
