@<TRIPOS>MOLECULE
HR2
   72    75     1     0     0
SMALL
bcc


@<TRIPOS>ATOM
      1 N1         -1.1180    0.8160   -0.9150 na        1 HR2     -0.004100
      2 C4         -2.0900   -1.1650   -0.2970 cc        1 HR2     -0.082300
      3 C5         -0.6940   -1.3940   -0.5100 cc        1 HR2     -0.145000
      4 C6         -3.1190   -2.1500    0.0660 c3        1 HR2     -0.013100
      5 C7          1.2180   -5.1770   -0.1870 ca        1 HR2      0.114900
      6 C8         -0.3890   -3.7240   -1.2550 ca        1 HR2     -0.099500
      7 C10        -1.0270    2.1970   -1.3690 c3        1 HR2      0.039000
      8 C13        -3.6480    0.8590   -0.5020 c         1 HR2      0.751100
      9 C15         0.2230   -4.9680   -1.1590 ca        1 HR2     -0.168500
     10 C17        -5.8410    0.8710    0.5920 ca        1 HR2      0.071600
     11 C20         2.1270    0.4840    0.0150 c3        1 HR2     -0.079400
     12 C21         3.4970    1.0250   -0.3960 c3        1 HR2      0.152100
     13 C22         4.3380    1.3370    0.8360 c3        1 HR2     -0.122400
     14 C24         6.6640    1.5550    1.7630 c3        1 HR2     -0.235400
     15 C28        -6.4470    1.3510    1.7750 ca        1 HR2     -0.143000
     16 F1          1.8190   -6.3880   -0.0860 f         1 HR2     -0.147900
     17 C9         -0.0270   -2.6740   -0.3970 ca        1 HR2     -0.004000
     18 C14         0.9620   -2.8970    0.5710 ca        1 HR2     -0.099500
     19 C18         1.5880   -4.1340    0.6810 ca        1 HR2     -0.168500
     20 C3         -0.1150   -0.1510   -0.8850 cd        1 HR2     -0.033600
     21 C19         1.3170    0.0740   -1.2020 c3        1 HR2     -0.027100
     22 O33         3.2600    2.1830   -1.1880 oh        1 HR2     -0.643800
     23 C23         5.8180    1.5220    0.5000 c3        1 HR2      0.171100
     24 O34         5.9260    2.7330   -0.2370 oh        1 HR2     -0.676800
     25 O27         8.5610    2.2150    0.4300 o         1 HR2     -0.844300
     26 O26         8.9370    0.9040    2.1970 o         1 HR2     -0.844300
     27 C12         0.0240    3.0300   -0.6370 c3        1 HR2     -0.115100
     28 C11        -0.8120    2.3200   -2.8790 c3        1 HR2     -0.115100
     29 C2         -3.8590   -1.8160    1.3480 c3        1 HR2     -0.093400
     30 C16        -3.9550   -0.3190    1.6440 c3        1 HR2      0.100000
     31 N15        -4.4710    0.5090    0.5770 n         1 HR2     -0.387000
     32 O14        -4.0290    1.6710   -1.3670 o         1 HR2     -0.637500
     33 C1         -2.3260    0.2020   -0.5530 cd        1 HR2     -0.206900
     34 C29        -7.7980    1.6820    1.7870 ca        1 HR2     -0.118500
     35 C30        -8.5710    1.5620    0.6340 ca        1 HR2     -0.149000
     36 C31        -7.9780    1.1120   -0.5440 ca        1 HR2     -0.118500
     37 C32        -6.6310    0.7670   -0.5750 ca        1 HR2     -0.143000
     38 H61        -3.8610   -2.2160   -0.7780 hc        1 HR2      0.052700
     39 H62        -2.6460   -3.1650    0.1660 hc        1 HR2      0.052700
     40 H8         -1.1670   -3.5560   -2.0160 ha        1 HR2      0.143000
     41 H10        -2.0390    2.6630   -1.1420 h1        1 HR2      0.084700
     42 H15        -0.0570   -5.7880   -1.8350 ha        1 HR2      0.145500
     43 H201        2.2800   -0.3980    0.6890 hc        1 HR2      0.046700
     44 H202        1.5820    1.2710    0.5970 hc        1 HR2      0.046700
     45 H21         4.0270    0.2630   -1.0370 h1        1 HR2      0.034700
     46 H221        3.9520    2.2720    1.3180 hc        1 HR2      0.050200
     47 H222        4.2460    0.4960    1.5690 hc        1 HR2      0.050200
     48 H241        6.4380    2.4840    2.3420 hc        1 HR2      0.036700
     49 H242        6.4260    0.6700    2.4020 hc        1 HR2      0.036700
     50 H28        -5.8560    1.4800    2.6950 ha        1 HR2      0.142500
     51 H14         1.2450   -2.0840    1.2580 ha        1 HR2      0.143000
     52 H18         2.3700   -4.3030    1.4350 ha        1 HR2      0.145500
     53 H191        1.4340    0.8590   -1.9980 hc        1 HR2      0.071200
     54 H192        1.7310   -0.8870   -1.6150 hc        1 HR2      0.071200
     55 HO33        4.0930    2.6750   -1.2300 ho        1 HR2      0.444000
     56 H23         6.1660    0.6740   -0.1590 h1        1 HR2      0.029700
     57 HO34        6.8780    2.9360   -0.3030 ho        1 HR2      0.467000
     58 H121        1.0620    2.7500   -0.9470 hc        1 HR2      0.054033
     59 H122       -0.1440    4.1030   -0.8960 hc        1 HR2      0.054033
     60 H123       -0.0660    2.9150    0.4690 hc        1 HR2      0.054033
     61 H111       -1.6230    1.7920   -3.4370 hc        1 HR2      0.054033
     62 H112       -0.8390    3.4030   -3.1480 hc        1 HR2      0.054033
     63 H113        0.1740    1.9020   -3.1910 hc        1 HR2      0.054033
     64 H21A       -4.8860   -2.2630    1.3010 hc        1 HR2      0.046200
     65 H22        -3.3280   -2.2830    2.2200 hc        1 HR2      0.046200
     66 H161       -4.6100   -0.1920    2.5520 h1        1 HR2      0.058200
     67 H162       -2.9230    0.0570    1.9090 h1        1 HR2      0.058200
     68 H29        -8.2550    2.0510    2.7180 ha        1 HR2      0.128500
     69 H30        -9.6370    1.8280    0.6520 ha        1 HR2      0.127000
     70 H31        -8.5780    1.0280   -1.4630 ha        1 HR2      0.128500
     71 H32        -6.1720    0.4390   -1.5210 ha        1 HR2      0.142500
     72 C25         8.1680    1.5520    1.4380 c         1 HR2      0.910600
@<TRIPOS>BOND
     1    1    7 1   
     2    1   20 1   
     3    1   33 1   
     4    2    3 1   
     5    2    4 1   
     6    2   33 2   
     7    3   17 1   
     8    3   20 2   
     9    4   29 1   
    10    4   38 1   
    11    4   39 1   
    12    5    9 ar  
    13    5   16 1   
    14    5   19 ar  
    15    6    9 ar  
    16    6   17 ar  
    17    6   40 1   
    18    7   27 1   
    19    7   28 1   
    20    7   41 1   
    21    8   31 1   
    22    8   32 2   
    23    8   33 1   
    24    9   42 1   
    25   10   15 ar  
    26   10   31 1   
    27   10   37 ar  
    28   11   12 1   
    29   11   21 1   
    30   11   43 1   
    31   11   44 1   
    32   12   13 1   
    33   12   22 1   
    34   12   45 1   
    35   13   23 1   
    36   13   46 1   
    37   13   47 1   
    38   14   23 1   
    39   14   48 1   
    40   14   49 1   
    41   14   72 1   
    42   15   34 ar  
    43   15   50 1   
    44   17   18 ar  
    45   18   19 ar  
    46   18   51 1   
    47   19   52 1   
    48   20   21 1   
    49   21   53 1   
    50   21   54 1   
    51   22   55 1   
    52   23   24 1   
    53   23   56 1   
    54   24   57 1   
    55   25   72 1   
    56   26   72 1   
    57   27   58 1   
    58   27   59 1   
    59   27   60 1   
    60   28   61 1   
    61   28   62 1   
    62   28   63 1   
    63   29   30 1   
    64   29   64 1   
    65   29   65 1   
    66   30   31 1   
    67   30   66 1   
    68   30   67 1   
    69   34   35 ar  
    70   34   68 1   
    71   35   36 ar  
    72   35   69 1   
    73   36   37 ar  
    74   36   70 1   
    75   37   71 1   
@<TRIPOS>SUBSTRUCTURE
     1 HR2         1 TEMP              0 ****  ****    0 ROOT
