@<TRIPOS>MOLECULE
HR2
   72    71     1     0     0
SMALL
bcc


@<TRIPOS>ATOM
      1 N1          0.2880    0.6510    0.1370 na        1 HR2     -0.121000
      2 C4          0.8360   -0.6990    1.9640 c2        1 HR2      0.038000
      3 C5          2.0730   -0.0490    1.5460 c2        1 HR2     -0.266000
      4 C6          0.7460   -1.5870    3.1350 c3        1 HR2     -0.128000
      5 C7          6.0450   -0.6050    2.9260 c2        1 HR2     -0.120000
      6 C8          3.7120   -1.3650    2.9260 c3        1 HR2     -0.146000
      7 C10        -0.1150    0.3810   -1.2180 c2        1 HR2      0.010000
      8 C13        -1.6340   -0.5750    1.1680 c2        1 HR2      0.395000
      9 C15         5.1210   -1.5720    3.2570 c1        1 HR2     -0.269000
     10 C17        -3.6800   -0.3600    2.4920 c2        1 HR2      0.136000
     11 C20         2.1540    2.3450   -1.5500 c3        1 HR2     -0.134000
     12 C21         3.3720    2.9330   -2.2590 c3        1 HR2      0.039000
     13 C22         2.9620    3.8870   -3.3880 c3        1 HR2     -0.070000
     14 C24         2.4510    6.3160   -2.5250 c1        1 HR2     -0.233000
     15 C28        -4.4980    0.2520    1.3700 c3        1 HR2     -0.112000
     16 F1          7.3780   -0.7800    3.1710 f         1 HR2     -0.148000
     17 C9          3.3230   -0.1500    2.1380 c2        1 HR2      0.102000
     18 C14         4.3150    0.8550    2.0250 c2        1 HR2     -0.305000
     19 C18         5.6280    0.6410    2.3900 c2        1 HR2     -0.021000
     20 C3          1.7160    0.7680    0.3670 c2        1 HR2      0.098000
     21 C19         2.5490    1.5190   -0.3920 c2        1 HR2     -0.320000
     22 O33         4.1460    1.9120   -2.8900 oh        1 HR2     -0.382000
     23 C23         2.6850    5.2070   -2.9080 c1        1 HR2     -0.147000
     24 O34         4.0720    1.7630   -5.4960 oh        1 HR2     -0.440000
     25 O27         3.5840    0.1400   -7.7440 o         1 HR2     -0.228000
     26 O26         5.7850    0.4680   -6.8950 o         1 HR2     -0.228000
     27 C12        -1.1690    1.3020   -1.7530 c3        1 HR2     -0.172000
     28 C11         0.3960   -0.5950   -1.9920 c2        1 HR2     -0.254000
     29 C2         -0.6490   -2.0180    3.5220 c3        1 HR2     -0.178000
     30 C16        -1.5960   -0.8260    3.6420 c3        1 HR2     -0.031000
     31 N15        -2.3110   -0.5240    2.4180 n         1 HR2     -0.248000
     32 O14        -2.3050   -0.8040    0.1430 o         1 HR2     -0.357000
     33 C1         -0.1920   -0.2910    1.1320 c2        1 HR2     -0.198000
     34 C29        -5.5060    1.1990    1.9550 c2        1 HR2     -0.172000
     35 C30        -5.9710    1.1010    3.2180 c2        1 HR2     -0.148000
     36 C31        -5.5850   -0.0880    3.9890 c2        1 HR2     -0.094000
     37 C32        -4.4550   -0.6480    3.5790 c1        1 HR2     -0.320000
     38 H61         1.2110   -1.0550    4.0140 hc        1 HR2      0.105500
     39 H62         1.3630   -2.5090    2.9380 hc        1 HR2      0.105500
     40 H8          3.1770   -1.3540    3.9210 hc        1 HR2      0.120000
     41 H10         1.1670   -1.2930   -1.6430 ha        1 HR2      0.116500
     42 H15         3.3650   -2.2790    2.3650 hc        1 HR2      0.120000
     43 H201        5.8130    2.0130   -0.8410 ha        1 HR2      0.001250
     44 H202        1.4930    3.1900   -1.2160 hc        1 HR2      0.090000
     45 H21         1.5690    1.7360   -2.2940 hc        1 HR2      0.090000
     46 H221        4.0360    3.4650   -1.5200 h1        1 HR2      0.091000
     47 H222        2.0580    3.4730   -3.9130 hc        1 HR2      0.111000
     48 H241        3.7960    3.9230   -4.1470 hc        1 HR2      0.111000
     49 H242        2.2430    7.2950   -2.1790 ha        1 HR2      0.216000
     50 H28        -5.0210   -0.5390    0.7690 hc        1 HR2      0.130500
     51 H14         4.0180    1.8560    1.6790 ha        1 HR2      0.124000
     52 H18         6.3600    1.4580    2.2870 ha        1 HR2      0.106000
     53 H191        5.8390    1.7910   -0.2010 ha        1 HR2      0.001250
     54 H192        3.6210    1.5390   -0.1440 ha        1 HR2      0.139000
     55 HO33        4.2050    1.1740   -2.2680 ho        1 HR2      0.232000
     56 H23         3.3500    1.6490   -4.8680 ho        1 HR2      0.221500
     57 HO34        4.8580    1.8220   -4.9410 ho        1 HR2      0.221500
     58 H121       -1.3540    1.0910   -2.8340 hc        1 HR2      0.081667
     59 H122       -0.8520    2.3680   -1.6430 hc        1 HR2      0.081667
     60 H123       -2.1260    1.1510   -1.1910 hc        1 HR2      0.081667
     61 H111        2.5140   -0.1250   -3.4460 ha        1 HR2      0.001250
     62 H112        3.0600   -0.1970   -3.8430 ha        1 HR2      0.001250
     63 H113        0.0610   -0.7400   -3.0250 ha        1 HR2      0.116500
     64 H21A       -1.0390   -2.7700    2.7870 hc        1 HR2      0.091500
     65 H22        -0.6030   -2.5290    4.5200 hc        1 HR2      0.091500
     66 H161       -2.3530   -1.0460    4.4530 h1        1 HR2      0.109000
     67 H162       -1.0130    0.0900    3.9470 h1        1 HR2      0.109000
     68 H29        -3.8240    0.8100    0.6630 hc        1 HR2      0.130500
     69 H30        -5.8570    1.9800    1.2660 ha        1 HR2      0.123000
     70 H31        -6.6880    1.8110    3.6480 ha        1 HR2      0.122000
     71 H32        -6.2700   -0.4930    4.7380 ha        1 HR2      0.135000
     72 C25         4.6730    0.3230   -7.2980 c1        1 HR2      0.445000
@<TRIPOS>BOND
     1    1    7 1   
     2    1   20 1   
     3    1   33 1   
     4    2    3 1   
     5    2    4 1   
     6    2   33 1   
     7    3   17 1   
     8    3   20 1   
     9    4   29 1   
    10    4   38 1   
    11    4   39 1   
    12    5    9 1   
    13    5   16 1   
    14    5   19 1   
    15    6    9 1   
    16    6   17 1   
    17    6   40 1   
    18    6   42 1   
    19    7   27 1   
    20    7   28 1   
    21    8   31 1   
    22    8   32 1   
    23    8   33 1   
    24   10   15 1   
    25   10   31 1   
    26   10   37 1   
    27   11   12 1   
    28   11   21 1   
    29   11   44 1   
    30   11   45 1   
    31   12   13 1   
    32   12   22 1   
    33   12   46 1   
    34   13   23 1   
    35   13   47 1   
    36   13   48 1   
    37   14   23 1   
    38   14   49 1   
    39   15   34 1   
    40   15   50 1   
    41   15   68 1   
    42   17   18 1   
    43   18   19 1   
    44   18   51 1   
    45   19   52 1   
    46   20   21 1   
    47   21   54 1   
    48   22   55 1   
    49   24   56 1   
    50   24   57 1   
    51   25   72 1   
    52   26   72 1   
    53   27   58 1   
    54   27   59 1   
    55   27   60 1   
    56   28   41 1   
    57   28   63 1   
    58   29   30 1   
    59   29   64 1   
    60   29   65 1   
    61   30   31 1   
    62   30   66 1   
    63   30   67 1   
    64   34   35 1   
    65   34   69 1   
    66   35   36 1   
    67   35   70 1   
    68   36   37 1   
    69   36   71 1   
    70   43   53 1   
    71   61   62 1   
@<TRIPOS>SUBSTRUCTURE
     1 HR2         1 TEMP              0 ****  ****    0 ROOT
