@<TRIPOS>MOLECULE
HR4
   48    52     1     0     0
SMALL
bcc


@<TRIPOS>ATOM
      1 F1          0.2690   -0.1800    2.2630 f         1 HR4     -0.138900
      2 C13         1.5170   -0.1970    1.7380 ca        1 HR4      0.135900
      3 C14         2.4090    0.8550    2.0180 ca        1 HR4     -0.168500
      4 C15         3.6880    0.8280    1.4730 ca        1 HR4     -0.087000
      5 C12         1.9180   -1.2670    0.9170 ca        1 HR4     -0.168500
      6 C11         3.2010   -1.2770    0.3780 ca        1 HR4     -0.087000
      7 C10         4.0930   -0.2310    0.6480 ca        1 HR4     -0.115300
      8 C9          5.4480   -0.2240    0.0550 c3        1 HR4      0.041000
      9 S1          6.2930   -1.6160    0.7790 ss        1 HR4     -0.146300
     10 C8          7.9400   -1.3610    0.4360 cc        1 HR4      0.392700
     11 N7          8.4700   -0.2270   -0.0610 nd        1 HR4     -0.553100
     12 C5          9.8530   -0.4410   -0.1100 ca        1 HR4     -0.221200
     13 C6         10.9500    0.3840   -0.5320 ca        1 HR4      0.762200
     14 N6         10.7260    1.6500   -0.9990 nv        1 HR4     -0.960500
     15 N1         12.2270   -0.1270   -0.4520 nb        1 HR4     -0.787000
     16 C2         12.3700   -1.3870    0.0310 ca        1 HR4      0.689900
     17 N3         11.4340   -2.2690    0.4640 nb        1 HR4     -0.728000
     18 C4         10.1680   -1.7710    0.3850 ca        1 HR4      0.477800
     19 N9          8.9310   -2.3430    0.7760 na        1 HR4     -0.253000
     20 C1'         8.7790   -3.7630    0.9260 c3        1 HR4      0.243800
     21 C2'         7.5370   -4.2180    1.7840 c3        1 HR4      0.135100
     22 O2'         8.0280   -5.1760    2.6940 oh        1 HR4     -0.581800
     23 O4'         8.6490   -4.3870   -0.3980 os        1 HR4     -0.399600
     24 C4'         7.6380   -5.3810   -0.3070 c3        1 HR4      0.054100
     25 C3'         6.6190   -4.8200    0.7110 c3        1 HR4      0.037100
     26 O3'         5.7600   -5.8520    1.1270 os        1 HR4     -0.492200
     27 C5'         6.8990   -5.6560   -1.6100 c3        1 HR4      0.172400
     28 O5'         5.8590   -6.5740   -1.3210 os        1 HR4     -0.532200
     29 P           4.8420   -6.3720   -0.1030 p5        1 HR4      1.392500
     30 S2          3.7040   -4.6360   -0.6560 sh        1 HR4     -0.616200
     31 O2P         4.0220   -7.5230    0.2010 o         1 HR4     -0.686300
     32 H1          2.0880    1.6850    2.6620 ha        1 HR4      0.151500
     33 H2          4.3860    1.6500    1.6930 ha        1 HR4      0.158000
     34 H3          1.2170   -2.0870    0.7080 ha        1 HR4      0.151500
     35 H4          3.5130   -2.1310   -0.2550 ha        1 HR4      0.158000
     36 H5          5.4030   -0.3550   -1.0540 h1        1 HR4      0.091200
     37 H6          5.9840    0.7330    0.2690 h1        1 HR4      0.091200
     38 H7         11.4780    2.2220   -1.2920 hn        1 HR4      0.450300
     39 H8          9.7980    1.9840   -1.0570 hn        1 HR4      0.450300
     40 H9         13.4200   -1.7530    0.0740 h5        1 HR4      0.056100
     41 H10         9.7310   -4.1790    1.3760 h2        1 HR4      0.141700
     42 H11         7.0440   -3.3740    2.3380 h1        1 HR4      0.096700
     43 H12         7.2600   -5.6600    3.0300 ho        1 HR4      0.434000
     44 H13         8.1240   -6.3230    0.0810 h1        1 HR4      0.092700
     45 H14         5.9950   -3.9810    0.2640 h1        1 HR4      0.113700
     46 H15         6.4720   -4.7220   -2.0650 h1        1 HR4      0.092700
     47 H16         7.5580   -6.1730   -2.3600 h1        1 HR4      0.092700
     48 H17         2.4680   -5.1460   -0.7520 hs        1 HR4      0.364800
@<TRIPOS>BOND
     1    1    2 1   
     2    2    3 ar  
     3    2    5 ar  
     4    3    4 ar  
     5    3   32 1   
     6    4    7 ar  
     7    4   33 1   
     8    5    6 ar  
     9    5   34 1   
    10    6    7 ar  
    11    6   35 1   
    12    7    8 1   
    13    8    9 1   
    14    8   36 1   
    15    8   37 1   
    16    9   10 1   
    17   10   11 2   
    18   10   19 1   
    19   11   12 1   
    20   12   13 ar  
    21   12   18 ar  
    22   13   14 1   
    23   13   15 ar  
    24   14   38 1   
    25   14   39 1   
    26   15   16 ar  
    27   16   17 ar  
    28   16   40 1   
    29   17   18 ar  
    30   18   19 1   
    31   19   20 1   
    32   20   21 1   
    33   20   23 1   
    34   20   41 1   
    35   21   22 1   
    36   21   25 1   
    37   21   42 1   
    38   22   43 1   
    39   23   24 1   
    40   24   25 1   
    41   24   27 1   
    42   24   44 1   
    43   25   26 1   
    44   25   45 1   
    45   26   29 1   
    46   27   28 1   
    47   27   46 1   
    48   27   47 1   
    49   28   29 1   
    50   29   30 1   
    51   29   31 2   
    52   30   48 1   
@<TRIPOS>SUBSTRUCTURE
     1 HR4         1 TEMP              0 ****  ****    0 ROOT
