@<TRIPOS>MOLECULE
HR4
   48    52     1     0     0
SMALL
bcc


@<TRIPOS>ATOM
      1 F1          0.2330   -0.1700    2.1510 f         1 HR4     -0.138900
      2 C13         1.4860   -0.1940    1.6390 ca        1 HR4      0.135900
      3 C14         2.3760    0.8620    1.9130 ca        1 HR4     -0.168500
      4 C15         3.6590    0.8280    1.3810 ca        1 HR4     -0.087000
      5 C12         1.8960   -1.2750    0.8370 ca        1 HR4     -0.168500
      6 C11         3.1840   -1.2920    0.3110 ca        1 HR4     -0.087000
      7 C10         4.0730   -0.2420    0.5750 ca        1 HR4     -0.115300
      8 C9          5.4340   -0.2430   -0.0040 c3        1 HR4      0.041000
      9 S1          6.2720   -1.6240    0.7480 ss        1 HR4     -0.146300
     10 C8          7.9220   -1.3730    0.4180 cc        1 HR4      0.392700
     11 N7          8.4570   -0.2450   -0.0880 nd        1 HR4     -0.553100
     12 C5          9.8410   -0.4600   -0.1200 ca        1 HR4     -0.221200
     13 C6         10.9420    0.3590   -0.5420 ca        1 HR4      0.762200
     14 N6         10.7230    1.6190   -1.0290 nh        1 HR4     -0.960500
     15 N1         12.2180   -0.1490   -0.4420 nb        1 HR4     -0.787000
     16 C2         12.3570   -1.4030    0.0590 ca        1 HR4      0.689900
     17 N3         11.4160   -2.2790    0.4950 nb        1 HR4     -0.728000
     18 C4         10.1510   -1.7820    0.3950 ca        1 HR4      0.477800
     19 N9          8.9110   -2.3500    0.7810 na        1 HR4     -0.253000
     20 C1'         8.7570   -3.7680    0.9500 c3        1 HR4      0.243800
     21 C2'         7.5060   -4.2110    1.8020 c3        1 HR4      0.135100
     22 O2'         7.9890   -5.1560    2.7290 oh        1 HR4     -0.581800
     23 O4'         8.6410   -4.4100   -0.3670 os        1 HR4     -0.399600
     24 C4'         7.6290   -5.4030   -0.2730 c3        1 HR4      0.054100
     25 C3'         6.6000   -4.8280    0.7270 c3        1 HR4      0.037100
     26 O3'         5.7370   -5.8550    1.1480 os        1 HR4     -0.492200
     27 C5'         6.9040   -5.6960   -1.5790 c3        1 HR4      0.172400
     28 O5'         5.8600   -6.6100   -1.2890 os        1 HR4     -0.532200
     29 P           4.8320   -6.3930   -0.0830 p5        1 HR4      1.392500
     30 S2          3.6980   -4.6650   -0.6710 sh        1 HR4     -0.616200
     31 O2P         4.0100   -7.5400    0.2280 o         1 HR4     -0.686300
     32 H1          2.0480    1.7010    2.5420 ha        1 HR4      0.151500
     33 H2          4.3560    1.6530    1.5970 ha        1 HR4      0.158000
     34 H3          1.1970   -2.0990    0.6320 ha        1 HR4      0.151500
     35 H4          3.5030   -2.1550   -0.3070 ha        1 HR4      0.158000
     36 H5          5.4000   -0.3890   -1.1120 h1        1 HR4      0.091200
     37 H6          5.9670    0.7170    0.2020 h1        1 HR4      0.091200
     38 H7          9.7950    1.9520   -1.1000 hn        1 HR4      0.450300
     39 H8         11.4770    2.1880   -1.3220 hn        1 HR4      0.450300
     40 H9         13.4060   -1.7670    0.1180 h5        1 HR4      0.056100
     41 H10         9.7050   -4.1780    1.4150 h2        1 HR4      0.141700
     42 H11         7.0080   -3.3600    2.3390 h1        1 HR4      0.096700
     43 H12         7.2180   -5.6370    3.0640 ho        1 HR4      0.434000
     44 H13         8.1120   -6.3400    0.1330 h1        1 HR4      0.092700
     45 H14         5.9800   -3.9970    0.2620 h1        1 HR4      0.113700
     46 H15         7.5700   -6.2230   -2.3150 h1        1 HR4      0.092700
     47 H16         6.4810   -4.7690   -2.0510 h1        1 HR4      0.092700
     48 H17         2.4640   -5.1770   -0.7730 hs        1 HR4      0.364800
@<TRIPOS>BOND
     1    1    2 1   
     2    2    3 ar  
     3    2    5 ar  
     4    3    4 ar  
     5    3   32 1   
     6    4    7 ar  
     7    4   33 1   
     8    5    6 ar  
     9    5   34 1   
    10    6    7 ar  
    11    6   35 1   
    12    7    8 1   
    13    8    9 1   
    14    8   36 1   
    15    8   37 1   
    16    9   10 1   
    17   10   11 2   
    18   10   19 1   
    19   11   12 1   
    20   12   13 ar  
    21   12   18 ar  
    22   13   14 1   
    23   13   15 ar  
    24   14   38 1   
    25   14   39 1   
    26   15   16 ar  
    27   16   17 ar  
    28   16   40 1   
    29   17   18 ar  
    30   18   19 1   
    31   19   20 1   
    32   20   21 1   
    33   20   23 1   
    34   20   41 1   
    35   21   22 1   
    36   21   25 1   
    37   21   42 1   
    38   22   43 1   
    39   23   24 1   
    40   24   25 1   
    41   24   27 1   
    42   24   44 1   
    43   25   26 1   
    44   25   45 1   
    45   26   29 1   
    46   27   28 1   
    47   27   46 1   
    48   27   47 1   
    49   28   29 1   
    50   29   30 1   
    51   29   31 2   
    52   30   48 1   
@<TRIPOS>SUBSTRUCTURE
     1 HR4         1 TEMP              0 ****  ****    0 ROOT
