@<TRIPOS>MOLECULE
HR4
   48    52     1     0     0
SMALL
bcc


@<TRIPOS>ATOM
      1 F1          0.2830   -0.1720    2.2990 f         1 HR4     -0.138900
      2 C13         1.5290   -0.1900    1.7700 ca        1 HR4      0.135900
      3 C14         2.4260    0.8570    2.0540 ca        1 HR4     -0.168500
      4 C15         3.7030    0.8300    1.5050 ca        1 HR4     -0.087000
      5 C12         1.9240   -1.2550    0.9400 ca        1 HR4     -0.168500
      6 C11         3.2050   -1.2660    0.3970 ca        1 HR4     -0.087000
      7 C10         4.1010   -0.2240    0.6710 ca        1 HR4     -0.115300
      8 C9          5.4540   -0.2180    0.0740 c3        1 HR4      0.041000
      9 S1          6.2970   -1.6170    0.7850 ss        1 HR4     -0.146300
     10 C8          7.9440   -1.3650    0.4380 cc        1 HR4      0.392700
     11 N7          8.4760   -0.2290   -0.0520 nd        1 HR4     -0.553100
     12 C5          9.8580   -0.4470   -0.1080 ca        1 HR4     -0.221200
     13 C6         10.9560    0.3770   -0.5280 ca        1 HR4      0.762200
     14 N6         10.7350    1.6470   -0.9850 nh        1 HR4     -0.960500
     15 N1         12.2320   -0.1380   -0.4560 nb        1 HR4     -0.787000
     16 C2         12.3730   -1.4020    0.0170 ca        1 HR4      0.689900
     17 N3         11.4350   -2.2840    0.4470 nb        1 HR4     -0.728000
     18 C4         10.1710   -1.7810    0.3760 ca        1 HR4      0.477800
     19 N9          8.9330   -2.3530    0.7670 na        1 HR4     -0.253000
     20 C1'         8.7770   -3.7730    0.9080 c3        1 HR4      0.243800
     21 C2'         7.5360   -4.2300    1.7670 c3        1 HR4      0.135100
     22 O2'         8.0270   -5.1960    2.6680 oh        1 HR4     -0.581800
     23 O4'         8.6400   -4.3870   -0.4200 os        1 HR4     -0.399600
     24 C4'         7.6260   -5.3780   -0.3340 c3        1 HR4      0.054100
     25 C3'         6.6130   -4.8210    0.6920 c3        1 HR4      0.037100
     26 O3'         5.7520   -5.8540    1.1030 os        1 HR4     -0.492200
     27 C5'         6.8830   -5.6410   -1.6360 c3        1 HR4      0.172400
     28 O5'         5.8400   -6.5580   -1.3500 os        1 HR4     -0.532200
     29 P           4.8290   -6.3620   -0.1270 p5        1 HR4      1.392500
     30 S2          3.6930   -4.6190   -0.6620 sh        1 HR4     -0.616200
     31 O2P         4.0060   -7.5130    0.1720 o         1 HR4     -0.686300
     32 H1          2.1100    1.6840    2.7060 ha        1 HR4      0.151500
     33 H2          4.4050    1.6480    1.7280 ha        1 HR4      0.158000
     34 H3          1.2190   -2.0710    0.7270 ha        1 HR4      0.151500
     35 H4          3.5120   -2.1150   -0.2440 ha        1 HR4      0.158000
     36 H5          5.9940    0.7360    0.2920 h1        1 HR4      0.091200
     37 H6          5.4050   -0.3410   -1.0370 h1        1 HR4      0.091200
     38 H7         11.4880    2.2200   -1.2760 hn        1 HR4      0.450300
     39 H8          9.8080    1.9850   -1.0360 hn        1 HR4      0.450300
     40 H9         13.4210   -1.7720    0.0540 h5        1 HR4      0.056100
     41 H10         9.7300   -4.1960    1.3510 h2        1 HR4      0.141700
     42 H11         7.0480   -3.3890    2.3290 h1        1 HR4      0.096700
     43 H12         7.2590   -5.6810    3.0030 ho        1 HR4      0.434000
     44 H13         8.1110   -6.3250    0.0460 h1        1 HR4      0.092700
     45 H14         5.9900   -3.9780    0.2540 h1        1 HR4      0.113700
     46 H15         6.4560   -4.7030   -2.0820 h1        1 HR4      0.092700
     47 H16         7.5360   -6.1550   -2.3920 h1        1 HR4      0.092700
     48 H17         2.4560   -5.1250   -0.7580 hs        1 HR4      0.364800
@<TRIPOS>BOND
     1    1    2 1   
     2    2    3 ar  
     3    2    5 ar  
     4    3    4 ar  
     5    3   32 1   
     6    4    7 ar  
     7    4   33 1   
     8    5    6 ar  
     9    5   34 1   
    10    6    7 ar  
    11    6   35 1   
    12    7    8 1   
    13    8    9 1   
    14    8   36 1   
    15    8   37 1   
    16    9   10 1   
    17   10   11 2   
    18   10   19 1   
    19   11   12 1   
    20   12   13 ar  
    21   12   18 ar  
    22   13   14 1   
    23   13   15 ar  
    24   14   38 1   
    25   14   39 1   
    26   15   16 ar  
    27   16   17 ar  
    28   16   40 1   
    29   17   18 ar  
    30   18   19 1   
    31   19   20 1   
    32   20   21 1   
    33   20   23 1   
    34   20   41 1   
    35   21   22 1   
    36   21   25 1   
    37   21   42 1   
    38   22   43 1   
    39   23   24 1   
    40   24   25 1   
    41   24   27 1   
    42   24   44 1   
    43   25   26 1   
    44   25   45 1   
    45   26   29 1   
    46   27   28 1   
    47   27   46 1   
    48   27   47 1   
    49   28   29 1   
    50   29   30 1   
    51   29   31 2   
    52   30   48 1   
@<TRIPOS>SUBSTRUCTURE
     1 HR4         1 TEMP              0 ****  ****    0 ROOT
