@<TRIPOS>MOLECULE
HR6
   48    52     1     0     0
SMALL
bcc


@<TRIPOS>ATOM
      1 S1P         1.3350   -0.3190    2.7680 sh        1 HR6     -0.610200
      2 P           2.9420    0.1640    1.4280 p5        1 HR6      1.389500
      3 O2P         3.0060    1.5680    1.0910 o         1 HR6     -0.687300
      4 O5'         4.2430   -0.4110    2.1590 os        1 HR6     -0.532200
      5 C5'         4.4580   -1.8000    2.3510 c3        1 HR6      0.171400
      6 O3'         2.7000   -0.8220    0.1660 os        1 HR6     -0.492200
      7 C3'         2.7810   -2.1700    0.5570 c3        1 HR6      0.037100
      8 C2'         2.5560   -3.2180   -0.5420 c3        1 HR6      0.135100
      9 O2'         3.1050   -2.8440   -1.7850 oh        1 HR6     -0.582800
     10 C4'         4.2260   -2.4840    1.0110 c3        1 HR6      0.054100
     11 O4'         4.2960   -3.9020    1.0490 os        1 HR6     -0.400600
     12 C1'         3.4380   -4.4190   -0.0260 c3        1 HR6      0.243800
     13 N9          2.7030   -5.5560    0.4510 na        1 HR6     -0.253000
     14 C4          3.3130   -6.8300    0.5770 ca        1 HR6      0.476800
     15 N3          4.4250   -7.3380   -0.0260 nb        1 HR6     -0.728000
     16 C2          4.6610   -8.6290    0.3180 ca        1 HR6      0.688900
     17 N1          3.9700   -9.4540    1.1450 nb        1 HR6     -0.788000
     18 C6          2.8430   -8.9480    1.7540 ca        1 HR6      0.761200
     19 N6          2.0840   -9.7240    2.5880 nh        1 HR6     -0.960500
     20 C5          2.4710   -7.5870    1.4880 ca        1 HR6     -0.220200
     21 N7          1.4100   -6.7900    1.9340 nc        1 HR6     -0.555100
     22 C8          1.5730   -5.5920    1.3380 cd        1 HR6      0.393700
     23 S2          0.5150   -4.2680    1.4710 ss        1 HR6     -0.144300
     24 C9         -0.6450   -4.7260    2.7440 c3        1 HR6      0.040000
     25 C10        -1.7670   -3.7710    2.6180 ca        1 HR6     -0.101300
     26 C15        -1.5710   -2.4040    2.8560 ca        1 HR6     -0.111000
     27 C14        -2.6440   -1.5190    2.7570 ca        1 HR6     -0.132000
     28 C11        -3.0440   -4.2360    2.2740 ca        1 HR6     -0.111000
     29 C12        -4.1120   -3.3460    2.1800 ca        1 HR6     -0.132000
     30 C13        -3.9140   -1.9870    2.4220 ca        1 HR6     -0.119000
     31 H1          0.8830    0.9000    3.0920 hs        1 HR6      0.362800
     32 H2          5.5260   -1.8950    2.6870 h1        1 HR6      0.092700
     33 H3          3.7740   -2.1860    3.1530 h1        1 HR6      0.092700
     34 H4          2.0280   -2.3560    1.3890 h1        1 HR6      0.114700
     35 H5          1.4700   -3.4800   -0.6610 h1        1 HR6      0.097700
     36 H6          2.7700   -1.9570   -1.9820 ho        1 HR6      0.434000
     37 H7          4.9780   -2.1280    0.2470 h1        1 HR6      0.091700
     38 H8          4.1380   -4.7630   -0.8470 h2        1 HR6      0.141700
     39 H9          5.5620   -9.0850   -0.1480 h5        1 HR6      0.055100
     40 H10         1.2990   -9.3220    3.0340 hn        1 HR6      0.449800
     41 H11         2.3450  -10.6570    2.7880 hn        1 HR6      0.449800
     42 H12        -0.9900   -5.7810    2.6180 h1        1 HR6      0.090200
     43 H13        -0.1510   -4.6390    3.7430 h1        1 HR6      0.090200
     44 H14        -0.5660   -2.0170    3.1100 ha        1 HR6      0.151000
     45 H15        -2.4840   -0.4470    2.9450 ha        1 HR6      0.134500
     46 H16        -3.2040   -5.3070    2.0810 ha        1 HR6      0.151000
     47 H17        -5.1120   -3.7190    1.9130 ha        1 HR6      0.134500
     48 H18        -4.7590   -1.2860    2.3470 ha        1 HR6      0.133000
@<TRIPOS>BOND
     1    1    2 1   
     2    1   31 1   
     3    2    3 2   
     4    2    4 1   
     5    2    6 1   
     6    4    5 1   
     7    5   10 1   
     8    5   32 1   
     9    5   33 1   
    10    6    7 1   
    11    7    8 1   
    12    7   10 1   
    13    7   34 1   
    14    8    9 1   
    15    8   12 1   
    16    8   35 1   
    17    9   36 1   
    18   10   11 1   
    19   10   37 1   
    20   11   12 1   
    21   12   13 1   
    22   12   38 1   
    23   13   14 1   
    24   13   22 1   
    25   14   15 ar  
    26   14   20 ar  
    27   15   16 ar  
    28   16   17 ar  
    29   16   39 1   
    30   17   18 ar  
    31   18   19 1   
    32   18   20 ar  
    33   19   40 1   
    34   19   41 1   
    35   20   21 1   
    36   21   22 2   
    37   22   23 1   
    38   23   24 1   
    39   24   25 1   
    40   24   42 1   
    41   24   43 1   
    42   25   26 ar  
    43   25   28 ar  
    44   26   27 ar  
    45   26   44 1   
    46   27   30 ar  
    47   27   45 1   
    48   28   29 ar  
    49   28   46 1   
    50   29   30 ar  
    51   29   47 1   
    52   30   48 1   
@<TRIPOS>SUBSTRUCTURE
     1 HR6         1 TEMP              0 ****  ****    0 ROOT
