@<TRIPOS>MOLECULE
HR6
   48    52     1     0     0
SMALL
bcc


@<TRIPOS>ATOM
      1 S1P         1.3680   -0.3150    2.7570 sh        1 HR6     -0.610200
      2 P           2.9690    0.1530    1.4050 p5        1 HR6      1.389500
      3 O2P         3.0410    1.5560    1.0630 o         1 HR6     -0.687300
      4 O5'         4.2710   -0.4290    2.1300 os        1 HR6     -0.532200
      5 C5'         4.4790   -1.8180    2.3240 c3        1 HR6      0.171400
      6 O3'         2.7120   -0.8350    0.1470 os        1 HR6     -0.492200
      7 C3'         2.7880   -2.1820    0.5430 c3        1 HR6      0.037100
      8 C2'         2.5470   -3.2310   -0.5520 c3        1 HR6      0.135100
      9 O2'         3.0910   -2.8650   -1.7990 oh        1 HR6     -0.582800
     10 C4'         4.2330   -2.5040    0.9870 c3        1 HR6      0.054100
     11 O4'         4.2940   -3.9230    1.0290 os        1 HR6     -0.400600
     12 C1'         3.4240   -4.4370   -0.0380 c3        1 HR6      0.243800
     13 N9          2.6850   -5.5680    0.4470 na        1 HR6     -0.253000
     14 C4          3.2880   -6.8450    0.5730 ca        1 HR6      0.476800
     15 N3          4.3920   -7.3630   -0.0350 nb        1 HR6     -0.728000
     16 C2          4.6210   -8.6550    0.3100 ca        1 HR6      0.688900
     17 N1          3.9310   -9.4720    1.1450 nb        1 HR6     -0.788000
     18 C6          2.8110   -8.9560    1.7600 ca        1 HR6      0.761200
     19 N6          2.0530   -9.7240    2.6010 nv        1 HR6     -0.960500
     20 C5          2.4470   -7.5940    1.4920 ca        1 HR6     -0.220200
     21 N7          1.3940   -6.7880    1.9430 nc        1 HR6     -0.555100
     22 C8          1.5610   -5.5940    1.3420 cd        1 HR6      0.393700
     23 S2          0.5130   -4.2610    1.4780 ss        1 HR6     -0.145300
     24 C9         -0.6410   -4.7070    2.7600 c3        1 HR6      0.040000
     25 C10        -1.7580   -3.7450    2.6380 ca        1 HR6     -0.101300
     26 C15        -1.5510   -2.3790    2.8710 ca        1 HR6     -0.111000
     27 C14        -2.6190   -1.4870    2.7760 ca        1 HR6     -0.132000
     28 C11        -3.0400   -4.2030    2.3050 ca        1 HR6     -0.111000
     29 C12        -4.1030   -3.3070    2.2140 ca        1 HR6     -0.132000
     30 C13        -3.8940   -1.9480    2.4500 ca        1 HR6     -0.119000
     31 H1          0.9260    0.9080    3.0810 hs        1 HR6      0.362800
     32 H2          5.5490   -1.9190    2.6530 h1        1 HR6      0.092700
     33 H3          3.7970   -2.1970    3.1320 h1        1 HR6      0.092700
     34 H4          2.0390   -2.3600    1.3800 h1        1 HR6      0.114700
     35 H5          1.4590   -3.4870   -0.6630 h1        1 HR6      0.097700
     36 H6          2.7600   -1.9760   -1.9970 ho        1 HR6      0.434000
     37 H7          4.9820   -2.1560    0.2180 h1        1 HR6      0.091700
     38 H8          4.1170   -4.7890   -0.8630 h2        1 HR6      0.141700
     39 H9          5.5160   -9.1180   -0.1600 h5        1 HR6      0.055100
     40 H10         2.3080  -10.6590    2.8020 hn        1 HR6      0.449800
     41 H11         1.2730   -9.3170    3.0520 hn        1 HR6      0.449800
     42 H12        -0.1400   -4.6210    3.7560 h1        1 HR6      0.090200
     43 H13        -0.9940   -5.7610    2.6410 h1        1 HR6      0.090200
     44 H14        -0.5420   -1.9990    3.1180 ha        1 HR6      0.151000
     45 H15        -2.4500   -0.4160    2.9590 ha        1 HR6      0.134500
     46 H16        -3.2080   -5.2740    2.1160 ha        1 HR6      0.151000
     47 H17        -5.1070   -3.6730    1.9550 ha        1 HR6      0.134500
     48 H18        -4.7340   -1.2420    2.3780 ha        1 HR6      0.133000
@<TRIPOS>BOND
     1    1    2 1   
     2    1   31 1   
     3    2    3 2   
     4    2    4 1   
     5    2    6 1   
     6    4    5 1   
     7    5   10 1   
     8    5   32 1   
     9    5   33 1   
    10    6    7 1   
    11    7    8 1   
    12    7   10 1   
    13    7   34 1   
    14    8    9 1   
    15    8   12 1   
    16    8   35 1   
    17    9   36 1   
    18   10   11 1   
    19   10   37 1   
    20   11   12 1   
    21   12   13 1   
    22   12   38 1   
    23   13   14 1   
    24   13   22 1   
    25   14   15 ar  
    26   14   20 ar  
    27   15   16 ar  
    28   16   17 ar  
    29   16   39 1   
    30   17   18 ar  
    31   18   19 1   
    32   18   20 ar  
    33   19   40 1   
    34   19   41 1   
    35   20   21 1   
    36   21   22 2   
    37   22   23 1   
    38   23   24 1   
    39   24   25 1   
    40   24   42 1   
    41   24   43 1   
    42   25   26 ar  
    43   25   28 ar  
    44   26   27 ar  
    45   26   44 1   
    46   27   30 ar  
    47   27   45 1   
    48   28   29 ar  
    49   28   46 1   
    50   29   30 ar  
    51   29   47 1   
    52   30   48 1   
@<TRIPOS>SUBSTRUCTURE
     1 HR6         1 TEMP              0 ****  ****    0 ROOT
