@<TRIPOS>MOLECULE
HR6
   48    52     1     0     0
SMALL
bcc


@<TRIPOS>ATOM
      1 S1P         1.3470   -0.3270    2.8200 sh        1 HR6     -0.610200
      2 P           2.9460    0.1700    1.4760 p5        1 HR6      1.389500
      3 O2P         3.0110    1.5780    1.1570 o         1 HR6     -0.687300
      4 O5'         4.2510   -0.4180    2.1910 os        1 HR6     -0.532200
      5 C5'         4.4650   -1.8090    2.3620 c3        1 HR6      0.171400
      6 O3'         2.6930   -0.7980    0.2020 os        1 HR6     -0.492200
      7 C3'         2.7750   -2.1510    0.5750 c3        1 HR6      0.037100
      8 C2'         2.5390   -3.1840   -0.5370 c3        1 HR6      0.135100
      9 O2'         3.0810   -2.7940   -1.7780 oh        1 HR6     -0.582800
     10 C4'         4.2210   -2.4750    1.0140 c3        1 HR6      0.054100
     11 O4'         4.2890   -3.8930    1.0320 os        1 HR6     -0.400600
     12 C1'         3.4210   -4.3940   -0.0430 c3        1 HR6      0.243800
     13 N9          2.6870   -5.5360    0.4230 na        1 HR6     -0.253000
     14 C4          3.2960   -6.8120    0.5280 ca        1 HR6      0.476800
     15 N3          4.4030   -7.3140   -0.0890 nb        1 HR6     -0.728000
     16 C2          4.6380   -8.6110    0.2350 ca        1 HR6      0.688900
     17 N1          3.9520   -9.4450    1.0560 nb        1 HR6     -0.788000
     18 C6          2.8290   -8.9440    1.6800 ca        1 HR6      0.761200
     19 N6          2.0750   -9.7300    2.5080 nh        1 HR6     -0.960500
     20 C5          2.4590   -7.5800    1.4340 ca        1 HR6     -0.220200
     21 N7          1.4020   -6.7860    1.8980 nc        1 HR6     -0.555100
     22 C8          1.5640   -5.5820    1.3170 cd        1 HR6      0.393700
     23 S2          0.5090   -4.2570    1.4750 ss        1 HR6     -0.144300
     24 C9         -0.6430   -4.7290    2.7490 c3        1 HR6      0.040000
     25 C10        -1.7640   -3.7700    2.6440 ca        1 HR6     -0.101300
     26 C15        -1.5630   -2.4070    2.9010 ca        1 HR6     -0.111000
     27 C14        -2.6340   -1.5180    2.8210 ca        1 HR6     -0.132000
     28 C11        -3.0440   -4.2270    2.3030 ca        1 HR6     -0.111000
     29 C12        -4.1100   -3.3340    2.2280 ca        1 HR6     -0.132000
     30 C13        -3.9080   -1.9780    2.4880 ca        1 HR6     -0.119000
     31 H1          0.9000    0.8880    3.1640 hs        1 HR6      0.362800
     32 H2          5.5350   -1.9120    2.6890 h1        1 HR6      0.092700
     33 H3          3.7850   -2.2050    3.1630 h1        1 HR6      0.092700
     34 H4          2.0270   -2.3470    1.4090 h1        1 HR6      0.114700
     35 H5          1.4520   -3.4420   -0.6520 h1        1 HR6      0.097700
     36 H6          2.7470   -1.9040   -1.9610 ho        1 HR6      0.434000
     37 H7          4.9690   -2.1110    0.2500 h1        1 HR6      0.091700
     38 H8          4.1150   -4.7290   -0.8740 h2        1 HR6      0.141700
     39 H9          5.5350   -9.0620   -0.2430 h5        1 HR6      0.055100
     40 H10         1.2940   -9.3330    2.9660 hn        1 HR6      0.449800
     41 H11         2.3350  -10.6660    2.6950 hn        1 HR6      0.449800
     42 H12        -0.9910   -5.7820    2.6120 h1        1 HR6      0.090200
     43 H13        -0.1420   -4.6580    3.7470 h1        1 HR6      0.090200
     44 H14        -0.5540   -2.0270    3.1530 ha        1 HR6      0.151000
     45 H15        -2.4700   -0.4490    3.0230 ha        1 HR6      0.134500
     46 H16        -3.2070   -5.2950    2.0960 ha        1 HR6      0.151000
     47 H17        -5.1130   -3.7000    1.9630 ha        1 HR6      0.134500
     48 H18        -4.7510   -1.2750    2.4290 ha        1 HR6      0.133000
@<TRIPOS>BOND
     1    1    2 1   
     2    1   31 1   
     3    2    3 2   
     4    2    4 1   
     5    2    6 1   
     6    4    5 1   
     7    5   10 1   
     8    5   32 1   
     9    5   33 1   
    10    6    7 1   
    11    7    8 1   
    12    7   10 1   
    13    7   34 1   
    14    8    9 1   
    15    8   12 1   
    16    8   35 1   
    17    9   36 1   
    18   10   11 1   
    19   10   37 1   
    20   11   12 1   
    21   12   13 1   
    22   12   38 1   
    23   13   14 1   
    24   13   22 1   
    25   14   15 ar  
    26   14   20 ar  
    27   15   16 ar  
    28   16   17 ar  
    29   16   39 1   
    30   17   18 ar  
    31   18   19 1   
    32   18   20 ar  
    33   19   40 1   
    34   19   41 1   
    35   20   21 1   
    36   21   22 2   
    37   22   23 1   
    38   23   24 1   
    39   24   25 1   
    40   24   42 1   
    41   24   43 1   
    42   25   26 ar  
    43   25   28 ar  
    44   26   27 ar  
    45   26   44 1   
    46   27   30 ar  
    47   27   45 1   
    48   28   29 ar  
    49   28   46 1   
    50   29   30 ar  
    51   29   47 1   
    52   30   48 1   
@<TRIPOS>SUBSTRUCTURE
     1 HR6         1 TEMP              0 ****  ****    0 ROOT
