@<TRIPOS>MOLECULE
HR7
   28    25     1     0     0
SMALL
bcc


@<TRIPOS>ATOM
      1 N          -2.3080   -1.1780   -1.8970 n3        1 HR7     -0.337000
      2 CB         -0.9280   -0.9390   -1.9070 c3        1 HR7     -0.022000
      3 CG         -0.4030   -0.9320   -0.4730 c3        1 HR7     -0.156000
      4 CD         -0.0340    0.4820   -0.0760 c3        1 HR7     -0.142000
      5 CE          0.4710    0.4930    1.3870 c3        1 HR7     -0.080000
      6 NZ          0.8010    1.8490    1.7710 n2        1 HR7     -0.269000
      7 CH          1.2870    2.0990    2.9800 c1        1 HR7      0.107000
      8 NH2         1.6160    3.4590    3.3600 n3        1 HR7     -0.313000
      9 NH1         1.4890    1.0200    3.9140 n2        1 HR7     -0.353000
     10 C          -0.7520   -2.0380   -4.1160 c1        1 HR7      0.326000
     11 O          -1.7410   -2.7520   -4.4210 o         1 HR7     -0.586000
     12 CA         -0.2320   -2.0320   -2.6940 c2        1 HR7     -0.259000
     13 OXT        -0.2500   -1.2660   -4.9700 o         1 HR7     -0.586000
     14 HN1        -2.7460   -0.4620   -2.2670 hn        1 HR7      0.148000
     15 HN2        -2.5870   -1.2940   -1.0440 hn        1 HR7      0.148000
     16 HB         -0.7490   -0.0700   -2.3260 h1        1 HR7      0.089000
     17 HG2         0.3870   -1.5030   -0.4120 hc        1 HR7      0.065000
     18 HG3        -1.0970   -1.2700    0.1310 hc        1 HR7      0.065000
     19 HA         -0.4120   -2.8960   -2.2790 ha        1 HR7      0.064500
     20 HA2         0.7330   -1.8670   -2.6990 ha        1 HR7      0.064500
     21 HD2         0.6670    0.8120   -0.6640 hc        1 HR7      0.096000
     22 HD3        -0.8210    1.0580   -0.1520 hc        1 HR7      0.096000
     23 HE2         1.2690   -0.0700    1.4620 h1        1 HR7      0.063000
     24 HE3        -0.2290    0.1470    1.9770 h1        1 HR7      0.063000
     25 HH11        0.9110    0.9100    4.6210 hn        1 HR7      0.180000
     26 HH12        2.2130    0.4690    3.8260 hn        1 HR7      0.180000
     27 HH21        1.5630    4.1280    2.7470 hn        1 HR7      0.174500
     28 HH22        1.8840    3.6440    4.2210 hn        1 HR7      0.174500
@<TRIPOS>BOND
     1    1    2 1   
     2    1   14 1   
     3    1   15 1   
     4    2    3 1   
     5    2   12 1   
     6    2   16 1   
     7    3    4 1   
     8    3   17 1   
     9    3   18 1   
    10    4    5 1   
    11    4   21 1   
    12    4   22 1   
    13    5    6 1   
    14    5   23 1   
    15    5   24 1   
    16    6    7 1   
    17    7    8 1   
    18    8   27 1   
    19    8   28 1   
    20    9   25 1   
    21    9   26 1   
    22   10   11 1   
    23   10   13 1   
    24   12   19 1   
    25   12   20 1   
@<TRIPOS>SUBSTRUCTURE
     1 HR7         1 TEMP              0 ****  ****    0 ROOT
