@<TRIPOS>MOLECULE
HR7
   28    27     1     0     0
SMALL
bcc


@<TRIPOS>ATOM
      1 N           1.2450    0.7790   -1.2430 n3        1 HR7     -0.909800
      2 CB          1.4440    0.0310   -0.0070 c3        1 HR7      0.172500
      3 CG          0.2620   -0.9080    0.2910 c3        1 HR7     -0.074400
      4 CD         -1.0000   -0.1420    0.6210 c3        1 HR7     -0.090400
      5 CE         -2.1960   -1.0940    0.7090 c3        1 HR7      0.119800
      6 NZ         -3.4820   -0.4900    0.8920 n2        1 HR7     -0.711900
      7 CH         -4.0730    0.1990   -0.0610 c2        1 HR7      0.724100
      8 NH2        -5.3040    0.8860    0.2470 nh        1 HR7     -0.899800
      9 NH1        -3.6470    0.3130   -1.4220 nh        1 HR7     -0.899800
     10 O           4.0740    0.6620   -1.3450 o         1 HR7     -0.850800
     11 CA          2.7370   -0.7900    0.0440 c3        1 HR7     -0.230400
     12 OXT         4.8690    0.1270    0.6700 o         1 HR7     -0.850800
     13 HN1         2.0160    1.4230   -1.3410 hn        1 HR7      0.353300
     14 HN2         1.3080    0.1420   -2.0170 hn        1 HR7      0.353300
     15 HB          1.4910    0.7960    0.8250 h1        1 HR7      0.048700
     16 HG2         0.0850   -1.5830   -0.5870 hc        1 HR7      0.029700
     17 HG3         0.5390   -1.5600    1.1610 hc        1 HR7      0.029700
     18 HA          2.8340   -1.2610    1.0540 hc        1 HR7      0.026700
     19 HA2         2.6990   -1.6060   -0.7210 hc        1 HR7      0.026700
     20 HD2        -0.8710    0.3880    1.6010 hc        1 HR7      0.047700
     21 HD3        -1.1750    0.6490   -0.1520 hc        1 HR7      0.047700
     22 HE2        -2.1820   -1.7730   -0.1950 h1        1 HR7      0.039200
     23 HE3        -2.0540   -1.7520    1.6150 h1        1 HR7      0.039200
     24 HH11       -2.6680    0.1450   -1.5410 hn        1 HR7      0.388300
     25 HH12       -3.9300    1.1570   -1.8710 hn        1 HR7      0.388300
     26 HH21       -5.5940    0.7240    1.1910 hn        1 HR7      0.388300
     27 HH22       -6.0320    0.6340   -0.3910 hn        1 HR7      0.388300
     28 C           3.9830    0.0680   -0.2280 c         1 HR7      0.906600
@<TRIPOS>BOND
     1    1    2 1   
     2    1   13 1   
     3    1   14 1   
     4    2    3 1   
     5    2   11 1   
     6    2   15 1   
     7    3    4 1   
     8    3   16 1   
     9    3   17 1   
    10    4    5 1   
    11    4   20 1   
    12    4   21 1   
    13    5    6 1   
    14    5   22 1   
    15    5   23 1   
    16    6    7 2   
    17    7    8 1   
    18    7    9 1   
    19    8   26 1   
    20    8   27 1   
    21    9   24 1   
    22    9   25 1   
    23   10   28 1   
    24   11   18 1   
    25   11   19 1   
    26   11   28 1   
    27   12   28 1   
@<TRIPOS>SUBSTRUCTURE
     1 HR7         1 TEMP              0 ****  ****    0 ROOT
