@<TRIPOS>MOLECULE
HRB
   51    52     1     0     0
SMALL
bcc


@<TRIPOS>ATOM
      1 CP5         5.6750    5.0650   -1.9660 c3        1 HRB     -0.092100
      2 CP4         5.3300    3.6120   -2.1690 c3        1 HRB     -0.079400
      3 CP3         4.3400    3.1260   -1.1310 c3        1 HRB     -0.079400
      4 CP2         4.0010    1.6660   -1.3380 c3        1 HRB     -0.078400
      5 CP1         3.0010    1.1850   -0.3090 c3        1 HRB     -0.089400
      6 C5          2.7000   -0.2960   -0.4810 c3        1 HRB      0.115100
      7 O1          3.8760   -1.0640   -0.1880 os        1 HRB     -0.445600
      8 C2          3.6760   -1.9120    0.9350 c3        1 HRB      0.328900
      9 O2          4.4860   -1.3740    1.9500 oh        1 HRB     -0.615800
     10 C3          2.1880   -1.9280    1.2820 c3        1 HRB     -0.156400
     11 C4          1.5650   -0.7570    0.4900 c3        1 HRB      0.038000
     12 NE2         0.3320   -1.0620   -0.1640 na        1 HRB     -0.224900
     13 CD2        -0.9020   -0.4470    0.0880 cc        1 HRB     -0.240600
     14 CE1         0.0960   -2.0480   -1.1400 cc        1 HRB      0.361400
     15 ND1        -1.1980   -2.0760   -1.5070 nd        1 HRB     -0.672000
     16 CG         -1.8420   -1.0790   -0.7480 cd        1 HRB      0.324600
     17 CB         -3.2810   -0.7590   -0.8690 c3        1 HRB     -0.097700
     18 CA         -3.8040    0.2070    0.2020 c3        1 HRB     -0.063300
     19 C          -5.2130    0.7140   -0.3000 c         1 HRB      0.908600
     20 OXT        -6.2450    0.2930    0.2930 o         1 HRB     -0.826800
     21 O          -5.2000    1.5120   -1.2720 o         1 HRB     -0.826800
     22 N          -3.8950   -0.3970    1.5190 n         1 HRB     -0.500900
     23 CA1        -3.2490    0.1090    2.6200 c         1 HRB      0.645100
     24 CA2        -3.7540   -0.3360    3.9790 c3        1 HRB     -0.177100
     25 OA1        -2.2350    0.8470    2.5530 o         1 HRB     -0.677100
     26 HP51        6.4030    5.4040   -2.7410 hc        1 HRB      0.030367
     27 HP52        4.7600    5.7010   -2.0390 hc        1 HRB      0.030367
     28 HP53        6.1310    5.2250   -0.9590 hc        1 HRB      0.030367
     29 HP41        4.8960    3.4680   -3.1940 hc        1 HRB      0.038200
     30 HP42        6.2630    2.9910   -2.1150 hc        1 HRB      0.038200
     31 HP31        4.7710    3.2710   -0.1050 hc        1 HRB      0.040200
     32 HP32        3.4040    3.7420   -1.1870 hc        1 HRB      0.040200
     33 HP21        3.5790    1.5190   -2.3680 hc        1 HRB      0.048200
     34 HP22        4.9310    1.0420   -1.2680 hc        1 HRB      0.048200
     35 HP11        3.4040    1.3680    0.7220 hc        1 HRB      0.050700
     36 HP12        2.0420    1.7580   -0.4110 hc        1 HRB      0.050700
     37 H5          2.4550   -0.5210   -1.5560 h1        1 HRB      0.080700
     38 H2          4.1100   -2.9200    0.6970 h2        1 HRB      0.097700
     39 HO2         4.2900   -0.4310    2.0210 ho        1 HRB      0.410000
     40 H31         1.7390   -2.9110    0.9960 hc        1 HRB      0.078200
     41 H32         2.0350   -1.7830    2.3790 hc        1 HRB      0.078200
     42 H4          1.3490    0.0870    1.2130 h1        1 HRB      0.086700
     43 HD2        -1.0340    0.3470    0.8290 h4        1 HRB      0.218000
     44 HE1         0.8890   -2.6880   -1.5340 h5        1 HRB      0.043100
     45 HB1        -3.4610   -0.2590   -1.8630 hc        1 HRB      0.070700
     46 HB2        -3.8840   -1.7070   -0.8570 hc        1 HRB      0.070700
     47 HA         -3.1220    1.1030    0.2530 h1        1 HRB      0.068700
     48 HN         -4.8010   -0.7960    1.6830 hn        1 HRB      0.316500
     49 HA21       -3.0790    0.0720    4.7680 hc        1 HRB      0.052033
     50 HA22       -4.7870    0.0530    4.1450 hc        1 HRB      0.052033
     51 HA23       -3.7690   -1.4490    4.0500 hc        1 HRB      0.052033
@<TRIPOS>BOND
     1    1    2 1   
     2    1   26 1   
     3    1   27 1   
     4    1   28 1   
     5    2    3 1   
     6    2   29 1   
     7    2   30 1   
     8    3    4 1   
     9    3   31 1   
    10    3   32 1   
    11    4    5 1   
    12    4   33 1   
    13    4   34 1   
    14    5    6 1   
    15    5   35 1   
    16    5   36 1   
    17    6    7 1   
    18    6   11 1   
    19    6   37 1   
    20    7    8 1   
    21    8    9 1   
    22    8   10 1   
    23    8   38 1   
    24    9   39 1   
    25   10   11 1   
    26   10   40 1   
    27   10   41 1   
    28   11   12 1   
    29   11   42 1   
    30   12   13 1   
    31   12   14 1   
    32   13   16 2   
    33   13   43 1   
    34   14   15 2   
    35   14   44 1   
    36   15   16 1   
    37   16   17 1   
    38   17   18 1   
    39   17   45 1   
    40   17   46 1   
    41   18   19 1   
    42   18   22 1   
    43   18   47 1   
    44   19   20 1   
    45   19   21 1   
    46   22   23 1   
    47   22   48 1   
    48   23   24 1   
    49   23   25 2   
    50   24   49 1   
    51   24   50 1   
    52   24   51 1   
@<TRIPOS>SUBSTRUCTURE
     1 HRB         1 TEMP              0 ****  ****    0 ROOT
