@<TRIPOS>MOLECULE
HRB
   52    53     1     0     0
SMALL
bcc


@<TRIPOS>ATOM
      1 CP5         0.6800    3.6260   -0.1840 c3        1 HRB     -0.093100
      2 CP4         1.3830    2.2960   -0.0930 c3        1 HRB     -0.079400
      3 CP3         2.1960    2.1850    1.1790 c3        1 HRB     -0.079400
      4 CP2         2.9020    0.8490    1.2630 c3        1 HRB     -0.077400
      5 CP1         3.7060    0.7360    2.5410 c3        1 HRB     -0.101400
      6 C5          4.4800   -0.5740    2.5860 c3        1 HRB      0.132100
      7 O1          5.5240   -0.5730    1.6030 os        1 HRB     -0.449600
      8 C2          6.7660   -0.2130    2.1990 c3        1 HRB      0.326900
      9 O2          6.9240    1.1620    1.9420 oh        1 HRB     -0.621800
     10 C3          6.6620   -0.4240    3.7110 c3        1 HRB     -0.120400
     11 C4          5.1740   -0.7600    3.9750 c3        1 HRB      0.025000
     12 NE2         4.9570   -2.0610    4.5480 na        1 HRB     -0.199900
     13 CD2         4.6010   -2.3270    5.8740 cc        1 HRB     -0.223600
     14 CE1         5.1040   -3.3020    3.9130 cc        1 HRB      0.410400
     15 ND1         4.8520   -4.3210    4.7590 nd        1 HRB     -0.742000
     16 CG          4.5350   -3.7300    5.9930 cd        1 HRB      0.286600
     17 CB          4.1700   -4.4790    7.2120 c3        1 HRB     -0.108700
     18 CA          5.1000   -5.6400    7.5210 c3        1 HRB     -0.051500
     19 C           4.6910   -6.2740    8.9370 c         1 HRB      0.932600
     20 OXT         4.5670   -7.5290    8.9410 o         1 HRB     -0.763800
     21 O           4.5560   -5.4590    9.8650 o         1 HRB     -0.763800
     22 N           5.0620   -6.7170    6.4810 n4        1 HRB     -0.650800
     23 CA1         6.2060   -6.7660    5.5310 c         1 HRB      0.565100
     24 CA2         5.9340   -7.4870    4.2460 c3        1 HRB     -0.189100
     25 OA1         7.2730   -6.2510    5.8420 o         1 HRB     -0.448100
     26 HP51       -0.0150    3.7650    0.6790 hc        1 HRB      0.034033
     27 HP52        1.4190    4.4640   -0.1760 hc        1 HRB      0.034033
     28 HP53        0.0870    3.6880   -1.1290 hc        1 HRB      0.034033
     29 HP41        2.0580    2.1650   -0.9800 hc        1 HRB      0.039200
     30 HP42        0.6270    1.4680   -0.1280 hc        1 HRB      0.039200
     31 HP31        2.9510    3.0140    1.2160 hc        1 HRB      0.041200
     32 HP32        1.5220    2.3110    2.0670 hc        1 HRB      0.041200
     33 HP21        3.5890    0.7240    0.3840 hc        1 HRB      0.046200
     34 HP22        2.1480    0.0200    1.2160 hc        1 HRB      0.046200
     35 HP11        3.0190    0.7880    3.4250 hc        1 HRB      0.057700
     36 HP12        4.4330    1.5890    2.6090 hc        1 HRB      0.057700
     37 H5          3.8170   -1.4360    2.3050 h1        1 HRB      0.084700
     38 H2          7.5610   -0.8220    1.6920 h2        1 HRB      0.075700
     39 HO2         6.7200    1.3100    1.0100 ho        1 HRB      0.426000
     40 H31         6.9410    0.5160    4.2510 hc        1 HRB      0.086700
     41 H32         7.3550   -1.2360    4.0370 hc        1 HRB      0.086700
     42 H4          4.7510   -0.0080    4.7040 h1        1 HRB      0.089700
     43 HD2         4.4270   -1.5430    6.6090 h4        1 HRB      0.189000
     44 HE1         5.3820   -3.3920    2.8570 h5        1 HRB      0.067100
     45 HB1         4.2150   -3.7980    8.1100 hc        1 HRB      0.090200
     46 HB2         3.1070   -4.8400    7.1280 hc        1 HRB      0.090200
     47 HA          6.1610   -5.2780    7.6180 hx        1 HRB      0.112700
     48 HN          5.0350   -7.6160    7.0330 hn        1 HRB      0.468300
     49 HA21        6.8990   -7.6150    3.6930 hc        1 HRB      0.092367
     50 HA22        5.2350   -6.8800    3.6170 hc        1 HRB      0.092367
     51 HA23        5.4850   -8.4930    4.4320 hc        1 HRB      0.092367
     52 H21         4.1930   -6.6420    5.9480 hn        1 HRB      0.468300
@<TRIPOS>BOND
     1    1    2 1   
     2    1   26 1   
     3    1   27 1   
     4    1   28 1   
     5    2    3 1   
     6    2   29 1   
     7    2   30 1   
     8    3    4 1   
     9    3   31 1   
    10    3   32 1   
    11    4    5 1   
    12    4   33 1   
    13    4   34 1   
    14    5    6 1   
    15    5   35 1   
    16    5   36 1   
    17    6    7 1   
    18    6   11 1   
    19    6   37 1   
    20    7    8 1   
    21    8    9 1   
    22    8   10 1   
    23    8   38 1   
    24    9   39 1   
    25   10   11 1   
    26   10   40 1   
    27   10   41 1   
    28   11   12 1   
    29   11   42 1   
    30   12   13 1   
    31   12   14 1   
    32   13   16 2   
    33   13   43 1   
    34   14   15 2   
    35   14   44 1   
    36   15   16 1   
    37   16   17 1   
    38   17   18 1   
    39   17   45 1   
    40   17   46 1   
    41   18   19 1   
    42   18   22 1   
    43   18   47 1   
    44   19   20 1   
    45   19   21 1   
    46   22   23 1   
    47   22   48 1   
    48   22   52 1   
    49   23   24 1   
    50   23   25 2   
    51   24   49 1   
    52   24   50 1   
    53   24   51 1   
@<TRIPOS>SUBSTRUCTURE
     1 HRB         1 TEMP              0 ****  ****    0 ROOT
