@<TRIPOS>MOLECULE
HRB
   52    53     1     0     0
SMALL
bcc


@<TRIPOS>ATOM
      1 CP5         0.9160    3.8040   -0.1410 c3        1 HRB     -0.093100
      2 CP4         1.5690    2.4490   -0.0620 c3        1 HRB     -0.079400
      3 CP3         2.3690    2.2920    1.2140 c3        1 HRB     -0.079400
      4 CP2         3.0260    0.9310    1.2860 c3        1 HRB     -0.077400
      5 CP1         3.8160    0.7730    2.5670 c3        1 HRB     -0.101400
      6 C5          4.5410   -0.5650    2.6020 c3        1 HRB      0.132100
      7 O1          5.5910   -0.5920    1.6250 os        1 HRB     -0.449600
      8 C2          6.8410   -0.2860    2.2340 c3        1 HRB      0.326900
      9 O2          7.0530    1.0850    1.9960 oh        1 HRB     -0.621800
     10 C3          6.7190   -0.5120    3.7430 c3        1 HRB     -0.120400
     11 C4          5.2170   -0.7930    3.9930 c3        1 HRB      0.025000
     12 NE2         4.9470   -2.0910    4.5500 na        1 HRB     -0.199900
     13 CD2         4.5710   -2.3590    5.8700 cc        1 HRB     -0.223600
     14 CE1         5.0500   -3.3300    3.9010 cc        1 HRB      0.410400
     15 ND1         4.7530   -4.3480    4.7340 nd        1 HRB     -0.742000
     16 CG          4.4500   -3.7590    5.9720 cd        1 HRB      0.286600
     17 CB          4.0480   -4.5080    7.1800 c3        1 HRB     -0.108700
     18 CA          4.9290   -5.7080    7.4810 c3        1 HRB     -0.051500
     19 C           4.4870   -6.3410    8.8870 c         1 HRB      0.932600
     20 OXT         4.3130   -7.5910    8.8740 o         1 HRB     -0.763800
     21 O           4.3770   -5.5330    9.8240 o         1 HRB     -0.763800
     22 N           4.8560   -6.7700    6.4280 n4        1 HRB     -0.650800
     23 CA1         6.0030   -6.8540    5.4840 c         1 HRB      0.565100
     24 CA2         5.7120   -7.5480    4.1890 c3        1 HRB     -0.189100
     25 OA1         7.0880   -6.3860    5.8080 o         1 HRB     -0.448100
     26 HP51        0.2200    3.9580    0.7190 hc        1 HRB      0.034033
     27 HP52        0.3320    3.8980   -1.0880 hc        1 HRB      0.034033
     28 HP53        1.6840    4.6140   -0.1180 hc        1 HRB      0.034033
     29 HP41        2.2450    2.3030   -0.9460 hc        1 HRB      0.039200
     30 HP42        0.7840    1.6480   -0.1120 hc        1 HRB      0.039200
     31 HP31        3.1530    3.0920    1.2660 hc        1 HRB      0.041200
     32 HP32        1.6940    2.4330    2.0990 hc        1 HRB      0.041200
     33 HP21        3.7130    0.7910    0.4100 hc        1 HRB      0.046200
     34 HP22        2.2420    0.1300    1.2240 hc        1 HRB      0.046200
     35 HP11        4.5740    1.5970    2.6510 hc        1 HRB      0.057700
     36 HP12        3.1250    0.8400    3.4480 hc        1 HRB      0.057700
     37 H5          3.8480   -1.3990    2.3060 h1        1 HRB      0.084700
     38 H2          7.6160   -0.9180    1.7250 h2        1 HRB      0.075700
     39 HO2         6.8610    1.2520    1.0640 ho        1 HRB      0.426000
     40 H31         7.3780   -1.3540    4.0620 hc        1 HRB      0.086700
     41 H32         7.0300    0.4100    4.2960 hc        1 HRB      0.086700
     42 H4          4.8190   -0.0340    4.7280 h1        1 HRB      0.089700
     43 HD2         4.4230   -1.5770    6.6130 h4        1 HRB      0.189000
     44 HE1         5.3320   -3.4190    2.8460 h5        1 HRB      0.067100
     45 HB1         4.1140   -3.8390    8.0860 hc        1 HRB      0.090200
     46 HB2         2.9730   -4.8250    7.0850 hc        1 HRB      0.090200
     47 HA          6.0030   -5.3900    7.5890 hx        1 HRB      0.112700
     48 HN          4.7890   -7.6740    6.9690 hn        1 HRB      0.468300
     49 HA21        5.0420   -6.9060    3.5630 hc        1 HRB      0.092367
     50 HA22        6.6740   -7.7080    3.6420 hc        1 HRB      0.092367
     51 HA23        5.2220   -8.5380    4.3610 hc        1 HRB      0.092367
     52 H21         3.9940   -6.6540    5.8910 hn        1 HRB      0.468300
@<TRIPOS>BOND
     1    1    2 1   
     2    1   26 1   
     3    1   27 1   
     4    1   28 1   
     5    2    3 1   
     6    2   29 1   
     7    2   30 1   
     8    3    4 1   
     9    3   31 1   
    10    3   32 1   
    11    4    5 1   
    12    4   33 1   
    13    4   34 1   
    14    5    6 1   
    15    5   35 1   
    16    5   36 1   
    17    6    7 1   
    18    6   11 1   
    19    6   37 1   
    20    7    8 1   
    21    8    9 1   
    22    8   10 1   
    23    8   38 1   
    24    9   39 1   
    25   10   11 1   
    26   10   40 1   
    27   10   41 1   
    28   11   12 1   
    29   11   42 1   
    30   12   13 1   
    31   12   14 1   
    32   13   16 2   
    33   13   43 1   
    34   14   15 2   
    35   14   44 1   
    36   15   16 1   
    37   16   17 1   
    38   17   18 1   
    39   17   45 1   
    40   17   46 1   
    41   18   19 1   
    42   18   22 1   
    43   18   47 1   
    44   19   20 1   
    45   19   21 1   
    46   22   23 1   
    47   22   48 1   
    48   22   52 1   
    49   23   24 1   
    50   23   25 2   
    51   24   49 1   
    52   24   50 1   
    53   24   51 1   
@<TRIPOS>SUBSTRUCTURE
     1 HRB         1 TEMP              0 ****  ****    0 ROOT
