@<TRIPOS>MOLECULE
HRB
   51    49     1     0     0
SMALL
bcc


@<TRIPOS>ATOM
      1 CP5        -0.5120    7.2700   -1.2910 c3        1 HRB     -0.210000
      2 CP4        -0.4010    5.8590   -1.8170 c3        1 HRB     -0.158000
      3 CP3        -0.5460    4.8730   -0.6660 c3        1 HRB     -0.158000
      4 CP2         0.0520    3.5040   -1.0800 c3        1 HRB     -0.157000
      5 CP1         0.4730    2.7170    0.1900 c3        1 HRB     -0.168000
      6 C5          0.9990    1.3060   -0.2230 c3        1 HRB      0.004000
      7 O1          2.3660    1.4340   -0.9630 os        1 HRB     -0.302000
      8 C2          3.4130    0.9350    0.0280 c3        1 HRB      0.146000
      9 O2          4.4960    1.8710    0.1210 oh        1 HRB     -0.343000
     10 C3          2.7870    0.8520    1.1700 c3        1 HRB     -0.235000
     11 C4          1.2450    0.6030    0.8160 c3        1 HRB      0.018000
     12 NE2         1.0120   -0.8630    0.5180 n3        1 HRB     -0.180000
     13 CD2         0.4380   -1.7520    1.3390 c1        1 HRB     -0.151000
     14 CE1         1.3880   -1.5200   -0.6170 c1        1 HRB     -0.127000
     15 ND1         1.0340   -2.8380   -0.4820 n2        1 HRB     -0.146000
     16 CG          0.4530   -2.9900    0.7090 c1        1 HRB     -0.098000
     17 CB         -0.0290   -4.3030    1.3080 c2        1 HRB     -0.082000
     18 CA         -0.9370   -5.0100    0.3200 c3        1 HRB     -0.090000
     19 C          -0.4820   -6.4680    0.1580 c2        1 HRB      0.328000
     20 OXT        -0.4800   -7.2520    1.1670 o         1 HRB     -0.561500
     21 O          -0.2100   -6.9150   -0.9820 o         1 HRB     -0.561500
     22 N          -2.2660   -4.9820    0.7990 n         1 HRB     -0.310000
     23 CA1        -3.3610   -4.7190   -0.1120 c2        1 HRB      0.289000
     24 CA2        -4.7230   -4.3480    0.4330 c3        1 HRB     -0.245000
     25 OA1        -3.2030   -4.8610   -1.3150 o         1 HRB     -0.438000
     26 HP51        0.1330    7.4010   -0.5750 hc        1 HRB      0.069667
     27 HP52       -1.4130    7.4190   -0.9480 hc        1 HRB      0.069667
     28 HP53       -0.3300    7.9050   -2.0170 hc        1 HRB      0.069667
     29 HP41        0.4580    5.7390   -2.2360 hc        1 HRB      0.077500
     30 HP42       -1.1060    5.7000   -2.4710 hc        1 HRB      0.077500
     31 HP31       -0.0710    5.2130    0.1130 hc        1 HRB      0.079500
     32 HP32       -1.4930    4.7630   -0.4480 hc        1 HRB      0.079500
     33 HP21        0.8450    3.6500   -1.6560 hc        1 HRB      0.087500
     34 HP22       -0.6220    2.9890   -1.5750 hc        1 HRB      0.087500
     35 HP11        1.1850    3.2090    0.6610 hc        1 HRB      0.090000
     36 HP12       -0.3070    2.6150    0.7880 hc        1 HRB      0.090000
     37 H5          0.3520    0.8570   -0.7880 h1        1 HRB      0.120000
     38 H2          3.7450    0.0540   -0.2430 h2        1 HRB      0.137000
     39 HO2         5.1870    1.5700   -0.3420 ho        1 HRB      0.209000
     40 H31         2.8870    1.6870    1.6700 hc        1 HRB      0.117500
     41 H32         3.1370    0.1040    1.6910 hc        1 HRB      0.117500
     42 H4          0.6710    0.8950    1.5680 h1        1 HRB      0.126000
     43 HD2         0.0820   -1.5670    2.2050 DU        1 HRB      0.199000
     44 HE1         1.8290   -1.1230   -1.3870 DU        1 HRB      0.199000
     45 HB1         0.7380   -4.8700    1.5060 ha        1 HRB      0.110000
     46 HB2        -0.5270   -4.1210    2.1420 ha        1 HRB      0.110000
     47 HA         -0.8930   -4.5630   -0.5310 h1        1 HRB      0.108000
     48 HN         -2.4380   -5.1320    1.7020 hn        1 HRB      0.230000
     49 HA21       -5.3940   -4.4060   -0.2910 hc        1 HRB      0.091333
     50 HA22       -4.6970   -3.4310    0.7810 hc        1 HRB      0.091333
     51 HA23       -4.9650   -4.9620    1.1500 hc        1 HRB      0.091333
@<TRIPOS>BOND
     1    1    2 1   
     2    1   26 1   
     3    1   27 1   
     4    1   28 1   
     5    2    3 1   
     6    2   29 1   
     7    2   30 1   
     8    3    4 1   
     9    3   31 1   
    10    3   32 1   
    11    4    5 1   
    12    4   33 1   
    13    4   34 1   
    14    5    6 1   
    15    5   35 1   
    16    5   36 1   
    17    6    7 1   
    18    6   11 1   
    19    6   37 1   
    20    7    8 1   
    21    8    9 1   
    22    8   10 1   
    23    8   38 1   
    24    9   39 1   
    25   10   11 1   
    26   10   40 1   
    27   10   41 1   
    28   11   12 1   
    29   11   42 1   
    30   12   13 1   
    31   12   14 1   
    32   13   16 1   
    33   14   15 1   
    34   15   16 1   
    35   17   18 1   
    36   17   45 1   
    37   17   46 1   
    38   18   19 1   
    39   18   22 1   
    40   18   47 1   
    41   19   20 1   
    42   19   21 1   
    43   22   23 1   
    44   22   48 1   
    45   23   24 1   
    46   23   25 1   
    47   24   49 1   
    48   24   50 1   
    49   24   51 1   
@<TRIPOS>SUBSTRUCTURE
     1 HRB         1 TEMP              0 ****  ****    0 ROOT
