@<TRIPOS>MOLECULE
HRB
   52    53     1     0     0
SMALL
bcc


@<TRIPOS>ATOM
      1 CP5         1.0890    4.2300   -0.0810 c3        1 HRB     -0.093100
      2 CP4         1.7610    2.8810   -0.1090 c3        1 HRB     -0.079400
      3 CP3         2.4710    2.5890    1.1960 c3        1 HRB     -0.079400
      4 CP2         3.1470    1.2350    1.1600 c3        1 HRB     -0.077400
      5 CP1         3.8470    0.9400    2.4690 c3        1 HRB     -0.100400
      6 C5          4.5930   -0.3850    2.4030 c3        1 HRB      0.131100
      7 O1          5.7080   -0.2870    1.5070 os        1 HRB     -0.447600
      8 C2          6.9120   -0.0670    2.2330 c3        1 HRB      0.326900
      9 O2          7.1320    1.3230    2.1910 oh        1 HRB     -0.622800
     10 C3          6.6910   -0.4880    3.6880 c3        1 HRB     -0.119400
     11 C4          5.1730   -0.7660    3.8050 c3        1 HRB      0.026000
     12 NE2         4.8490   -2.1070    4.2100 na        1 HRB     -0.203900
     13 CD2         4.3310   -2.4890    5.4510 cc        1 HRB     -0.222600
     14 CE1         5.0110   -3.2830    3.4600 cc        1 HRB      0.414400
     15 ND1         4.6180   -4.3660    4.1570 nd        1 HRB     -0.720000
     16 CG          4.1890   -3.8910    5.4060 cd        1 HRB      0.272600
     17 CB          3.6490   -4.7470    6.4810 c3        1 HRB     -0.106700
     18 CA          4.5610   -5.9070    6.8540 c3        1 HRB     -0.041500
     19 C           3.9840   -6.5740    8.1900 c         1 HRB      0.925600
     20 OXT         3.5480   -7.7500    8.0590 o         1 HRB     -0.768300
     21 O           4.0440   -5.8580    9.2040 o         1 HRB     -0.768300
     22 N           4.6550   -6.9440    5.7720 ny        1 HRB     -0.660800
     23 CA1         5.9770   -7.6400    5.7610 c         1 HRB      0.562100
     24 CA2         6.4360   -8.2430    7.0450 c3        1 HRB     -0.193100
     25 OA1         6.5660   -7.6690    4.6830 o         1 HRB     -0.476100
     26 HP51        1.8390    5.0410    0.0890 hc        1 HRB      0.034033
     27 HP52        0.3320    4.2770    0.7380 hc        1 HRB      0.034033
     28 HP53        0.5720    4.4260   -1.0510 hc        1 HRB      0.034033
     29 HP41        0.9960    2.0840   -0.3060 hc        1 HRB      0.039700
     30 HP42        2.5000    2.8450   -0.9530 hc        1 HRB      0.039700
     31 HP31        1.7330    2.6200    2.0400 hc        1 HRB      0.040700
     32 HP32        3.2350    3.3860    1.3940 hc        1 HRB      0.040700
     33 HP21        3.8970    1.2040    0.3260 hc        1 HRB      0.047200
     34 HP22        2.3850    0.4380    0.9510 hc        1 HRB      0.047200
     35 HP11        3.0950    0.8980    3.2990 hc        1 HRB      0.056700
     36 HP12        4.5810    1.7580    2.7000 hc        1 HRB      0.056700
     37 H5          3.9390   -1.1880    1.9660 h1        1 HRB      0.085700
     38 H2          7.7240   -0.6290    1.6990 h2        1 HRB      0.076700
     39 HO2         6.9940    1.6130    1.2800 ho        1 HRB      0.426000
     40 H31         6.9820    0.3430    4.3780 hc        1 HRB      0.084700
     41 H32         7.3160   -1.3820    3.9280 hc        1 HRB      0.084700
     42 H4          4.7350   -0.0760    4.5850 h1        1 HRB      0.088700
     43 HD2         4.1070   -1.7770    6.2440 h4        1 HRB      0.188000
     44 HE1         5.4030   -3.2820    2.4360 h5        1 HRB      0.072100
     45 HB1         3.5230   -4.1380    7.4220 hc        1 HRB      0.090700
     46 HB2         2.6310   -5.1270    6.1910 hc        1 HRB      0.090700
     47 HA          5.5960   -5.5240    7.0660 hx        1 HRB      0.087700
     48 HN          3.9300   -7.6540    6.0180 hn        1 HRB      0.471800
     49 HA21        7.1700   -9.0560    6.8230 hc        1 HRB      0.111033
     50 HA22        6.9350   -7.4510    7.6620 hc        1 HRB      0.111033
     51 HA23        5.5740   -8.6510    7.6430 hc        1 HRB      0.111033
     52 H21         4.4570   -6.5450    4.8490 hn        1 HRB      0.471800
@<TRIPOS>BOND
     1    1    2 1   
     2    1   26 1   
     3    1   27 1   
     4    1   28 1   
     5    2    3 1   
     6    2   29 1   
     7    2   30 1   
     8    3    4 1   
     9    3   31 1   
    10    3   32 1   
    11    4    5 1   
    12    4   33 1   
    13    4   34 1   
    14    5    6 1   
    15    5   35 1   
    16    5   36 1   
    17    6    7 1   
    18    6   11 1   
    19    6   37 1   
    20    7    8 1   
    21    8    9 1   
    22    8   10 1   
    23    8   38 1   
    24    9   39 1   
    25   10   11 1   
    26   10   40 1   
    27   10   41 1   
    28   11   12 1   
    29   11   42 1   
    30   12   13 1   
    31   12   14 1   
    32   13   16 2   
    33   13   43 1   
    34   14   15 2   
    35   14   44 1   
    36   15   16 1   
    37   16   17 1   
    38   17   18 1   
    39   17   45 1   
    40   17   46 1   
    41   18   19 1   
    42   18   22 1   
    43   18   47 1   
    44   19   20 1   
    45   19   21 1   
    46   22   23 1   
    47   22   48 1   
    48   22   52 1   
    49   23   24 1   
    50   23   25 2   
    51   24   49 1   
    52   24   50 1   
    53   24   51 1   
@<TRIPOS>SUBSTRUCTURE
     1 HRB         1 TEMP              0 ****  ****    0 ROOT
