@<TRIPOS>MOLECULE
HRC
   34    35     1     0     0
SMALL
bcc


@<TRIPOS>ATOM
      1 O1          0.0270   -0.2620    0.2480 o         1 HRC     -0.655300
      2 S           1.4160   -0.1450    0.0430 sy        1 HRC      1.515200
      3 O2          2.2190   -0.0620    1.2060 o         1 HRC     -0.655300
      4 C9          1.9260   -1.4650   -0.8750 ca        1 HRC     -0.383500
      5 C14         1.0230   -2.1700   -1.6800 ca        1 HRC     -0.014500
      6 C13         1.4330   -3.2880   -2.4040 ca        1 HRC     -0.158500
      7 C12         2.7580   -3.7160   -2.3280 ca        1 HRC     -0.065000
      8 C11         3.6690   -3.0280   -1.5240 ca        1 HRC     -0.158500
      9 C10         3.2510   -1.9130   -0.8040 ca        1 HRC     -0.014500
     10 N           1.7850    1.1490   -0.8650 nu        1 HRC     -0.787500
     11 C1          1.2410    1.5170   -2.1130 ca        1 HRC      0.080600
     12 C6         -0.0430    2.1100   -2.2030 ca        1 HRC     -0.025800
     13 C7         -0.8570    2.3910   -0.9960 c3        1 HRC     -0.068300
     14 C2          2.0100    1.3440   -3.2950 ca        1 HRC     -0.025800
     15 C8          3.3940    0.8140   -3.2300 c3        1 HRC     -0.068300
     16 C3          1.4810    1.6910   -4.5360 ca        1 HRC     -0.193000
     17 C4          0.1890    2.2300   -4.6120 ca        1 HRC      0.138100
     18 O3         -0.2760    2.5350   -5.8700 oh        1 HRC     -0.495100
     19 C5         -0.5650    2.4460   -3.4550 ca        1 HRC     -0.193000
     20 H1         -0.0310   -1.8410   -1.7250 ha        1 HRC      0.154000
     21 H2          0.7110   -3.8310   -3.0310 ha        1 HRC      0.141500
     22 H3          3.0860   -4.5990   -2.8990 ha        1 HRC      0.137000
     23 H4          4.7120   -3.3700   -1.4540 ha        1 HRC      0.141500
     24 H5          3.9650   -1.3810   -0.1500 ha        1 HRC      0.154000
     25 H6          2.5350    1.7450   -0.5900 hn        1 HRC      0.453800
     26 H7         -0.2560    2.9520   -0.2380 hc        1 HRC      0.055200
     27 H8         -1.7550    3.0060   -1.2510 hc        1 HRC      0.055200
     28 H9         -1.2090    1.4340   -0.5280 hc        1 HRC      0.055200
     29 H10         3.8370    0.7090   -4.2510 hc        1 HRC      0.055200
     30 H11         4.0440    1.5070   -2.6360 hc        1 HRC      0.055200
     31 H12         3.4090   -0.1910   -2.7360 hc        1 HRC      0.055200
     32 H13         2.0630    1.5520   -5.4580 ha        1 HRC      0.146000
     33 H14        -1.1660    2.9050   -5.7780 ho        1 HRC      0.421000
     34 H15        -1.5690    2.8900   -3.5260 ha        1 HRC      0.146000
@<TRIPOS>BOND
     1    1    2 2   
     2    2    3 2   
     3    2    4 1   
     4    2   10 1   
     5    4    5 ar  
     6    4    9 ar  
     7    5    6 ar  
     8    5   20 1   
     9    6    7 ar  
    10    6   21 1   
    11    7    8 ar  
    12    7   22 1   
    13    8    9 ar  
    14    8   23 1   
    15    9   24 1   
    16   10   11 1   
    17   10   25 1   
    18   11   12 ar  
    19   11   14 ar  
    20   12   13 1   
    21   12   19 ar  
    22   13   26 1   
    23   13   27 1   
    24   13   28 1   
    25   14   15 1   
    26   14   16 ar  
    27   15   29 1   
    28   15   30 1   
    29   15   31 1   
    30   16   17 ar  
    31   16   32 1   
    32   17   18 1   
    33   17   19 ar  
    34   18   33 1   
    35   19   34 1   
@<TRIPOS>SUBSTRUCTURE
     1 HRC         1 TEMP              0 ****  ****    0 ROOT
