@<TRIPOS>MOLECULE
HRC
   34    35     1     0     0
SMALL
bcc


@<TRIPOS>ATOM
      1 O1          0.8870    2.0170    1.2750 o         1 HRC     -0.655300
      2 S           1.2700    1.5070    0.0190 sy        1 HRC      1.515200
      3 O2          2.1490    2.3100   -0.7460 o         1 HRC     -0.655300
      4 C9          1.9860   -0.0020    0.2600 ca        1 HRC     -0.383500
      5 C14         1.7150   -0.7480    1.4130 ca        1 HRC     -0.014500
      6 C13         2.3390   -1.9740    1.6340 ca        1 HRC     -0.158500
      7 C12         3.2490   -2.4690    0.6990 ca        1 HRC     -0.065000
      8 C11         3.5350   -1.7330   -0.4520 ca        1 HRC     -0.158500
      9 C10         2.9070   -0.5090   -0.6660 ca        1 HRC     -0.014500
     10 N          -0.0140    1.2010   -0.9260 nh        1 HRC     -0.787500
     11 C1         -1.1670    0.4540   -0.6090 ca        1 HRC      0.080600
     12 C6         -2.1890    1.0010    0.2060 ca        1 HRC     -0.025800
     13 C7         -2.1050    2.3820    0.7400 c3        1 HRC     -0.068300
     14 C2         -1.3370   -0.8450   -1.1580 ca        1 HRC     -0.025800
     15 C8         -0.3330   -1.4130   -2.0900 c3        1 HRC     -0.068300
     16 C3         -2.4650   -1.6000   -0.8420 ca        1 HRC     -0.193000
     17 C4         -3.4420   -1.0630    0.0070 ca        1 HRC      0.138100
     18 O3         -4.5210   -1.8690    0.2870 oh        1 HRC     -0.495100
     19 C5         -3.3110    0.2300    0.5210 ca        1 HRC     -0.193000
     20 H1          1.0080   -0.3470    2.1620 ha        1 HRC      0.154000
     21 H2          2.1160   -2.5470    2.5460 ha        1 HRC      0.141500
     22 H3          3.7450   -3.4360    0.8710 ha        1 HRC      0.137000
     23 H4          4.2600   -2.1150   -1.1860 ha        1 HRC      0.141500
     24 H5          3.1500    0.0850   -1.5650 ha        1 HRC      0.154000
     25 H6         -0.0010    1.4890   -1.8810 hn        1 HRC      0.453800
     26 H7         -1.8750    3.1070   -0.0810 hc        1 HRC      0.055200
     27 H8         -3.0700    2.6890    1.2150 hc        1 HRC      0.055200
     28 H9         -1.2950    2.4560    1.5120 hc        1 HRC      0.055200
     29 H10         0.6790   -1.4410   -1.6120 hc        1 HRC      0.055200
     30 H11        -0.6060   -2.4540   -2.3940 hc        1 HRC      0.055200
     31 H12        -0.2680   -0.7840   -3.0140 hc        1 HRC      0.055200
     32 H13        -2.6020   -2.6110   -1.2530 ha        1 HRC      0.146000
     33 H14        -5.1190   -1.3770    0.8700 ho        1 HRC      0.421000
     34 H15        -4.0960    0.6480    1.1690 ha        1 HRC      0.146000
@<TRIPOS>BOND
     1    1    2 2   
     2    2    3 2   
     3    2    4 1   
     4    2   10 1   
     5    4    5 ar  
     6    4    9 ar  
     7    5    6 ar  
     8    5   20 1   
     9    6    7 ar  
    10    6   21 1   
    11    7    8 ar  
    12    7   22 1   
    13    8    9 ar  
    14    8   23 1   
    15    9   24 1   
    16   10   11 1   
    17   10   25 1   
    18   11   12 ar  
    19   11   14 ar  
    20   12   13 1   
    21   12   19 ar  
    22   13   26 1   
    23   13   27 1   
    24   13   28 1   
    25   14   15 1   
    26   14   16 ar  
    27   15   29 1   
    28   15   30 1   
    29   15   31 1   
    30   16   17 ar  
    31   16   32 1   
    32   17   18 1   
    33   17   19 ar  
    34   18   33 1   
    35   19   34 1   
@<TRIPOS>SUBSTRUCTURE
     1 HRC         1 TEMP              0 ****  ****    0 ROOT
