@<TRIPOS>MOLECULE
HRC
   35    36     1     0     0
SMALL
bcc


@<TRIPOS>ATOM
      1 O1          0.7340    0.0310    1.0510 o         1 HRC     -0.576300
      2 S           1.8970   -0.1340    0.3220 sy        1 HRC      1.472200
      3 O2          3.1390   -0.0090    0.9200 o         1 HRC     -0.576300
      4 C9          1.8260   -1.2480   -0.8230 ca        1 HRC     -0.516500
      5 C14         0.5870   -1.7500   -1.2790 ca        1 HRC      0.018000
      6 C13         0.5260   -2.7860   -2.2010 ca        1 HRC     -0.149500
      7 C12         1.7050   -3.3510   -2.6950 ca        1 HRC      0.002000
      8 C11         2.9450   -2.8730   -2.2580 ca        1 HRC     -0.149500
      9 C10         3.0030   -1.8370   -1.3370 ca        1 HRC      0.018000
     10 N           1.8970    1.5530   -0.6310 n4        1 HRC     -0.553300
     11 C1          1.4230    1.5570   -2.0010 ca        1 HRC     -0.098400
     12 C6          0.0350    1.6990   -2.2590 ca        1 HRC     -0.005800
     13 C7         -0.9460    1.8830   -1.1600 c3        1 HRC     -0.089800
     14 C2          2.3470    1.4760   -3.0690 ca        1 HRC     -0.005800
     15 C8          3.8100    1.4120   -2.8310 c3        1 HRC     -0.089800
     16 C3          1.8750    1.4690   -4.3800 ca        1 HRC     -0.182000
     17 C4          0.4990    1.5670   -4.6330 ca        1 HRC      0.189100
     18 O3         -0.0320    1.5560   -5.8900 oh        1 HRC     -0.465100
     19 C5         -0.4190    1.6880   -3.5730 ca        1 HRC     -0.182000
     20 H1         -0.3500   -1.3170   -0.8790 ha        1 HRC      0.165000
     21 H2         -0.4530   -3.1670   -2.5370 ha        1 HRC      0.173000
     22 H3          1.6580   -4.1790   -3.4240 ha        1 HRC      0.170000
     23 H4          3.8760   -3.3260   -2.6380 ha        1 HRC      0.173000
     24 H5          3.9870   -1.4790   -0.9770 ha        1 HRC      0.165000
     25 H6          2.8480    1.9310   -0.6090 hn        1 HRC      0.449800
     26 H7         -0.8870    1.0530   -0.4100 hc        1 HRC      0.067700
     27 H8         -0.7640    2.8560   -0.6340 hc        1 HRC      0.067700
     28 H9         -1.9920    1.9080   -1.5580 hc        1 HRC      0.067700
     29 H10         4.0770    0.5320   -2.1920 hc        1 HRC      0.067700
     30 H11         4.3710    1.3120   -3.7950 hc        1 HRC      0.067700
     31 H12         4.1710    2.3470   -2.3300 hc        1 HRC      0.067700
     32 H13         2.5860    1.4000   -5.2190 ha        1 HRC      0.172500
     33 H14         0.6900    1.5240   -6.5390 ho        1 HRC      0.443000
     34 H15        -1.4930    1.7890   -3.8020 ha        1 HRC      0.172500
     35 HN3         1.3080    2.1970   -0.0950 hn        1 HRC      0.449800
@<TRIPOS>BOND
     1    1    2 2   
     2    2    3 2   
     3    2    4 1   
     4    2   10 1   
     5    4    5 ar  
     6    4    9 ar  
     7    5    6 ar  
     8    5   20 1   
     9    6    7 ar  
    10    6   21 1   
    11    7    8 ar  
    12    7   22 1   
    13    8    9 ar  
    14    8   23 1   
    15    9   24 1   
    16   10   11 1   
    17   10   25 1   
    18   10   35 1   
    19   11   12 ar  
    20   11   14 ar  
    21   12   13 1   
    22   12   19 ar  
    23   13   26 1   
    24   13   27 1   
    25   13   28 1   
    26   14   15 1   
    27   14   16 ar  
    28   15   29 1   
    29   15   30 1   
    30   15   31 1   
    31   16   17 ar  
    32   16   32 1   
    33   17   18 1   
    34   17   19 ar  
    35   18   33 1   
    36   19   34 1   
@<TRIPOS>SUBSTRUCTURE
     1 HRC         1 TEMP              0 ****  ****    0 ROOT
