@<TRIPOS>MOLECULE
HRC
   34    27     1     0     0
SMALL
bcc


@<TRIPOS>ATOM
      1 O1         -1.7060   -1.1410    0.4760 o         1 HRC     -0.939500
      2 S          -0.2700   -1.1420    0.5240 ss        1 HRC      2.870000
      3 O2         -0.0390   -1.1990    1.9410 o         1 HRC     -0.939500
      4 C9          0.4010   -2.5670   -0.2950 c1        1 HRC     -0.828000
      5 C14         1.6310   -3.0730    0.0930 c2        1 HRC     -0.017000
      6 C13         2.1270   -4.2220   -0.5040 c1        1 HRC     -0.158000
      7 C12         1.3930   -4.8650   -1.4890 c1        1 HRC     -0.111500
      8 C11         0.1620   -4.3580   -1.8770 c1        1 HRC     -0.111500
      9 C10        -0.3340   -3.2090   -1.2800 c1        1 HRC     -0.017000
     10 N           0.3500    0.2320   -0.1270 n2        1 HRC     -0.848000
     11 C1         -0.1850    1.4930    0.2390 c1        1 HRC     -0.018000
     12 C6         -1.1290    2.1060   -0.5690 c1        1 HRC     -0.006000
     13 C7         -1.6070    1.4190   -1.8270 c2        1 HRC     -0.196000
     14 C2          0.2600    2.1270    1.3880 c1        1 HRC     -0.012000
     15 C8          1.3230    1.4790    2.2450 c3        1 HRC     -0.195000
     16 C3         -0.2390    3.3750    1.7280 c1        1 HRC     -0.167000
     17 C4         -1.1830    3.9880    0.9200 c1        1 HRC      0.098000
     18 O3         -1.7110    5.2400    1.2820 o         1 HRC     -0.249000
     19 C5         -1.6280    3.3540   -0.2290 c2        1 HRC     -0.223000
     20 H1          2.1480   -2.6210    0.7860 ha        1 HRC      0.155000
     21 H2          2.9940   -4.5790   -0.2310 ha        1 HRC      0.143000
     22 H3          1.7420   -5.6740   -1.9090 ha        1 HRC      0.140000
     23 H4         -0.3550   -4.8100   -2.5700 ha        1 HRC      0.140000
     24 H5         -1.2010   -2.8530   -1.5530 ha        1 HRC      0.155000
     25 H6          1.0250    0.1830   -0.7370 hn        1 HRC      0.247000
     26 H7         -1.9610    2.0880   -2.4500 ha        1 HRC      0.096000
     27 H8         -0.8570    0.9480   -2.2470 ha        1 HRC      0.096000
     28 H9         -2.3110    0.7770   -1.6010 ha        1 HRC      0.096000
     29 H10         0.8960    0.9330    2.9370 hc        1 HRC      0.095667
     30 H11         1.8700    2.1740    2.6670 hc        1 HRC      0.095667
     31 H12         1.8920    0.9100    1.6850 hc        1 HRC      0.095667
     32 H13         0.0740    3.8210    2.5380 ha        1 HRC      0.154000
     33 H14        -1.2800    5.8810    0.8440 ho        1 HRC      0.220000
     34 H15        -2.2930    3.7850   -0.7980 ha        1 HRC      0.137000
@<TRIPOS>BOND
     1    1    2 1   
     2    2    3 1   
     3    4    5 1   
     4    4    9 1   
     5    5    6 1   
     6    5   20 1   
     7    6   21 1   
     8    7    8 1   
     9    7   22 1   
    10    8   23 1   
    11    9   24 1   
    12   10   11 1   
    13   10   25 1   
    14   11   14 1   
    15   12   19 1   
    16   13   26 1   
    17   13   27 1   
    18   13   28 1   
    19   14   15 1   
    20   15   29 1   
    21   15   30 1   
    22   15   31 1   
    23   16   17 1   
    24   16   32 1   
    25   17   19 1   
    26   18   33 1   
    27   19   34 1   
@<TRIPOS>SUBSTRUCTURE
     1 HRC         1 TEMP              0 ****  ****    0 ROOT
