@<TRIPOS>MOLECULE
HRC
   34    35     1     0     0
SMALL
bcc


@<TRIPOS>ATOM
      1 O1          0.0190   -0.2460    0.2420 o         1 HRC     -0.655300
      2 S           1.4090   -0.1320    0.0430 sy        1 HRC      1.515200
      3 O2          2.2070   -0.0430    1.2080 o         1 HRC     -0.655300
      4 C9          1.9210   -1.4590   -0.8640 ca        1 HRC     -0.383500
      5 C14         1.0210   -2.1690   -1.6680 ca        1 HRC     -0.014500
      6 C13         1.4330   -3.2910   -2.3830 ca        1 HRC     -0.158500
      7 C12         2.7570   -3.7210   -2.2990 ca        1 HRC     -0.066000
      8 C11         3.6650   -3.0290   -1.4960 ca        1 HRC     -0.158500
      9 C10         3.2460   -1.9080   -0.7840 ca        1 HRC     -0.014500
     10 N           1.7840    1.1550   -0.8730 nh        1 HRC     -0.787500
     11 C1          1.2420    1.5180   -2.1230 ca        1 HRC      0.080600
     12 C6         -0.0390    2.1160   -2.2170 ca        1 HRC     -0.025800
     13 C7         -0.8530    2.4080   -1.0120 c3        1 HRC     -0.068300
     14 C2          2.0110    1.3350   -3.3030 ca        1 HRC     -0.025800
     15 C8          3.3930    0.7990   -3.2340 c3        1 HRC     -0.068300
     16 C3          1.4840    1.6770   -4.5460 ca        1 HRC     -0.193000
     17 C4          0.1940    2.2210   -4.6260 ca        1 HRC      0.138100
     18 O3         -0.2680    2.5210   -5.8860 oh        1 HRC     -0.495100
     19 C5         -0.5590    2.4470   -3.4710 ca        1 HRC     -0.193000
     20 H1         -0.0320   -1.8380   -1.7210 ha        1 HRC      0.154000
     21 H2          0.7130   -3.8380   -3.0100 ha        1 HRC      0.141500
     22 H3          3.0860   -4.6080   -2.8620 ha        1 HRC      0.137000
     23 H4          4.7070   -3.3720   -1.4190 ha        1 HRC      0.141500
     24 H5          3.9570   -1.3730   -0.1310 ha        1 HRC      0.154000
     25 H6          2.5360    1.7500   -0.5990 hn        1 HRC      0.453800
     26 H7         -1.7480    3.0250   -1.2710 hc        1 HRC      0.055200
     27 H8         -1.2080    1.4550   -0.5380 hc        1 HRC      0.055200
     28 H9         -0.2490    2.9700   -0.2570 hc        1 HRC      0.055200
     29 H10         3.4030   -0.2030   -2.7340 hc        1 HRC      0.055200
     30 H11         3.8350    0.6860   -4.2550 hc        1 HRC      0.055200
     31 H12         4.0450    1.4920   -2.6450 hc        1 HRC      0.055200
     32 H13         2.0660    1.5300   -5.4680 ha        1 HRC      0.146000
     33 H14        -1.1570    2.8950   -5.7970 ho        1 HRC      0.421000
     34 H15        -1.5610    2.8950   -3.5450 ha        1 HRC      0.146000
@<TRIPOS>BOND
     1    1    2 2   
     2    2    3 2   
     3    2    4 1   
     4    2   10 1   
     5    4    5 ar  
     6    4    9 ar  
     7    5    6 ar  
     8    5   20 1   
     9    6    7 ar  
    10    6   21 1   
    11    7    8 ar  
    12    7   22 1   
    13    8    9 ar  
    14    8   23 1   
    15    9   24 1   
    16   10   11 1   
    17   10   25 1   
    18   11   12 ar  
    19   11   14 ar  
    20   12   13 1   
    21   12   19 ar  
    22   13   26 1   
    23   13   27 1   
    24   13   28 1   
    25   14   15 1   
    26   14   16 ar  
    27   15   29 1   
    28   15   30 1   
    29   15   31 1   
    30   16   17 ar  
    31   16   32 1   
    32   17   18 1   
    33   17   19 ar  
    34   18   33 1   
    35   19   34 1   
@<TRIPOS>SUBSTRUCTURE
     1 HRC         1 TEMP              0 ****  ****    0 ROOT
