@<TRIPOS>MOLECULE
HRD
   31    33     1     0     0
SMALL
bcc


@<TRIPOS>ATOM
      1 N1          0.0590   -0.4660   -0.1740 nc        1 HRD     -0.616100
      2 N3          1.8090    0.1500    1.2420 na        1 HRD     -0.291300
      3 C4          1.4010   -0.1490   -0.0970 cd        1 HRD      0.667700
      4 C5          3.6810   -0.1010   -0.9900 c3        1 HRD      0.174100
      5 C6          0.6580    0.0690    2.0290 ca        1 HRD     -0.072200
      6 C7          0.4440    0.2710    3.3890 ca        1 HRD     -0.044000
      7 C8         -0.8530    0.0790    3.8690 ca        1 HRD     -0.172600
      8 C10        -3.4100   -0.3060    4.8060 cc        1 HRD      0.502800
      9 C1         -1.9270   -0.3120    3.0060 ca        1 HRD      0.122400
     10 C2         -1.7140   -0.5190    1.6310 ca        1 HRD     -0.044000
     11 C3         -0.4240   -0.3290    1.1300 ca        1 HRD      0.141400
     12 N2          2.2610   -0.0530   -1.1830 nu        1 HRD     -0.791200
     13 C9         -1.1110    0.2870    5.3020 c         1 HRD      0.729100
     14 O1         -0.2880    0.6250    6.1600 o         1 HRD     -0.560500
     15 N4         -2.4470    0.0790    5.7450 ns        1 HRD     -0.511400
     16 N5         -4.8160   -0.5180    5.3050 ny        1 HRD     -0.717000
     17 C11        -5.4790    0.7730    5.6060 c3        1 HRD      0.081100
     18 N6         -3.2220   -0.4970    3.5160 nd        1 HRD     -0.543100
     19 H5          4.0130   -1.0250   -0.4420 h1        1 HRD      0.056367
     20 H5A         4.1720   -0.0830   -2.0000 h1        1 HRD      0.056367
     21 H7          1.2510    0.5690    4.0770 ha        1 HRD      0.177000
     22 H2         -2.5340   -0.8220    0.9590 ha        1 HRD      0.180000
     23 H11        -4.9280    1.3060    6.4270 hx        1 HRD      0.114367
     24 H11A       -5.4810    1.4140    4.6820 hx        1 HRD      0.114367
     25 H9          4.0190    0.8030   -0.4160 h1        1 HRD      0.056367
     26 H10         1.9100   -0.4600   -2.0270 hn        1 HRD      0.459800
     27 H111       -4.7860   -1.1110    6.1430 hn        1 HRD      0.473800
     28 H12        -6.5370    0.5690    5.9300 hx        1 HRD      0.114367
     29 H13        -2.6560    0.2040    6.7110 hn        1 HRD      0.344500
     30 H121        2.6830    0.5110    1.5230 hn        1 HRD      0.322700
     31 H52        -5.3490   -1.0160    4.5730 hn        1 HRD      0.473800
@<TRIPOS>BOND
     1    1    3 2   
     2    1   11 1   
     3    2    3 1   
     4    2    5 1   
     5    2   30 1   
     6    3   12 1   
     7    4   12 1   
     8    4   19 1   
     9    4   20 1   
    10    4   25 1   
    11    5    6 ar  
    12    5   11 ar  
    13    6    7 ar  
    14    6   21 1   
    15    7    9 ar  
    16    7   13 1   
    17    8   15 1   
    18    8   16 1   
    19    8   18 2   
    20    9   10 ar  
    21    9   18 1   
    22   10   11 ar  
    23   10   22 1   
    24   12   26 1   
    25   13   14 2   
    26   13   15 1   
    27   15   29 1   
    28   16   17 1   
    29   16   27 1   
    30   16   31 1   
    31   17   23 1   
    32   17   24 1   
    33   17   28 1   
@<TRIPOS>SUBSTRUCTURE
     1 HRD         1 TEMP              0 ****  ****    0 ROOT
