@<TRIPOS>MOLECULE
HRD
   31    33     1     0     0
SMALL
bcc


@<TRIPOS>ATOM
      1 N1          0.0830   -0.4910   -0.1610 nc        1 HRD     -0.616100
      2 N3          1.8120    0.1900    1.2510 na        1 HRD     -0.291300
      3 C4          1.4170   -0.1410   -0.0840 cd        1 HRD      0.667700
      4 C5          3.6990   -0.0540   -0.9690 c3        1 HRD      0.174100
      5 C6          0.6600    0.0950    2.0350 ca        1 HRD     -0.072200
      6 C7          0.4340    0.3140    3.3900 ca        1 HRD     -0.044000
      7 C8         -0.8590    0.1000    3.8680 ca        1 HRD     -0.172600
      8 C10        -3.4110   -0.3310    4.8010 cc        1 HRD      0.502800
      9 C1         -1.9210   -0.3320    3.0080 ca        1 HRD      0.122400
     10 C2         -1.6960   -0.5570    1.6370 ca        1 HRD     -0.044000
     11 C3         -0.4080   -0.3440    1.1380 ca        1 HRD      0.141400
     12 N2          2.2800   -0.0430   -1.1680 nh        1 HRD     -0.791200
     13 C9         -1.1290    0.3250    5.2960 c         1 HRD      0.729100
     14 O1         -0.3180    0.6970    6.1520 o         1 HRD     -0.560500
     15 N4         -2.4620    0.0930    5.7370 n         1 HRD     -0.511400
     16 N5         -4.8140   -0.5680    5.2980 n4        1 HRD     -0.717000
     17 C11        -5.5090    0.7110    5.5740 c3        1 HRD      0.081100
     18 N6         -3.2130   -0.5390    3.5140 nd        1 HRD     -0.543100
     19 H5          4.1950   -0.0410   -1.9770 h1        1 HRD      0.056367
     20 H5A         4.0510   -0.9590   -0.4030 h1        1 HRD      0.056367
     21 H7          1.2310    0.6430    4.0770 ha        1 HRD      0.177000
     22 H2         -2.5050   -0.8900    0.9670 ha        1 HRD      0.180000
     23 H11        -4.9750    1.2710    6.3870 hx        1 HRD      0.114367
     24 H11A       -6.5630    0.4880    5.8960 hx        1 HRD      0.114367
     25 H9          4.0130    0.8680   -0.4080 h1        1 HRD      0.056367
     26 H10         1.9420   -0.4720   -2.0060 hn        1 HRD      0.459800
     27 H111       -5.3310   -1.0910    4.5720 hn        1 HRD      0.473800
     28 H12        -5.5220    1.3370    4.6390 hx        1 HRD      0.114367
     29 H13        -2.6790    0.2290    6.6990 hn        1 HRD      0.344500
     30 H121        2.6760    0.5770    1.5300 hn        1 HRD      0.322700
     31 H52        -4.7730   -1.1460    6.1450 hn        1 HRD      0.473800
@<TRIPOS>BOND
     1    1    3 2   
     2    1   11 1   
     3    2    3 1   
     4    2    5 1   
     5    2   30 1   
     6    3   12 1   
     7    4   12 1   
     8    4   19 1   
     9    4   20 1   
    10    4   25 1   
    11    5    6 ar  
    12    5   11 ar  
    13    6    7 ar  
    14    6   21 1   
    15    7    9 ar  
    16    7   13 1   
    17    8   15 1   
    18    8   16 1   
    19    8   18 2   
    20    9   10 ar  
    21    9   18 1   
    22   10   11 ar  
    23   10   22 1   
    24   12   26 1   
    25   13   14 2   
    26   13   15 1   
    27   15   29 1   
    28   16   17 1   
    29   16   27 1   
    30   16   31 1   
    31   17   23 1   
    32   17   24 1   
    33   17   28 1   
@<TRIPOS>SUBSTRUCTURE
     1 HRD         1 TEMP              0 ****  ****    0 ROOT
