@<TRIPOS>MOLECULE
HRD
   30    32     1     0     0
SMALL
bcc


@<TRIPOS>ATOM
      1 N1          2.6890   -1.5210   -0.1420 nc        1 HRD     -0.621100
      2 N3          3.0110    0.7950   -0.0750 na        1 HRD     -0.282300
      3 C4          3.6070   -0.5090   -0.1790 cd        1 HRD      0.610700
      4 C5          5.8700    0.2850    0.2610 c3        1 HRD      0.166100
      5 C6          1.6190    0.5660   -0.1090 ca        1 HRD     -0.120200
      6 C7          0.5410    1.4330   -0.0780 ca        1 HRD     -0.048000
      7 C8         -0.7400    0.8680   -0.0550 ca        1 HRD     -0.201600
      8 C10        -3.2880   -0.2670    0.0220 cc        1 HRD      0.657800
      9 C1         -0.9520   -0.5430   -0.0490 ca        1 HRD      0.199400
     10 C2          0.1540   -1.4240   -0.0750 ca        1 HRD     -0.099000
     11 C3          1.4330   -0.8800   -0.1110 ca        1 HRD      0.140400
     12 N2          4.9950   -0.6850   -0.3390 nh        1 HRD     -0.774200
     13 C9         -1.9100    1.7590   -0.0270 c         1 HRD      0.720100
     14 O1         -1.8640    3.0030   -0.0250 o         1 HRD     -0.633500
     15 N4         -3.1720    1.1450   -0.0130 n         1 HRD     -0.507400
     16 N5         -4.6120   -0.7790    0.1730 nh        1 HRD     -0.792200
     17 C11        -4.7920   -2.2060    0.1700 c3        1 HRD      0.178100
     18 N6         -2.2370   -1.0920   -0.0250 nd        1 HRD     -0.668100
     19 H5          5.6780    0.4420    1.3570 h1        1 HRD      0.046033
     20 H5A         6.9270   -0.0680    0.1250 h1        1 HRD      0.046033
     21 H7          0.6560    2.5280   -0.0700 ha        1 HRD      0.161000
     22 H2          0.0070   -2.5140   -0.0640 ha        1 HRD      0.167000
     23 H11        -4.4840   -2.6900   -0.7960 h1        1 HRD      0.050367
     24 H11A       -4.1940   -2.6620    1.0020 h1        1 HRD      0.050367
     25 H9          5.7550    1.2700   -0.2650 h1        1 HRD      0.046033
     26 H10         5.2730   -1.6350   -0.1720 hn        1 HRD      0.426800
     27 H111       -5.2760   -0.2990   -0.4020 hn        1 HRD      0.400800
     28 H12        -5.8820   -2.4070    0.3490 h1        1 HRD      0.050367
     29 H13        -3.9760    1.7250    0.0760 hn        1 HRD      0.334500
     30 H121        3.4250    1.6060   -0.4600 hn        1 HRD      0.294700
@<TRIPOS>BOND
     1    1    3 2   
     2    1   11 1   
     3    2    3 1   
     4    2    5 1   
     5    2   30 1   
     6    3   12 1   
     7    4   12 1   
     8    4   19 1   
     9    4   20 1   
    10    4   25 1   
    11    5    6 ar  
    12    5   11 ar  
    13    6    7 ar  
    14    6   21 1   
    15    7    9 ar  
    16    7   13 1   
    17    8   15 1   
    18    8   16 1   
    19    8   18 2   
    20    9   10 ar  
    21    9   18 1   
    22   10   11 ar  
    23   10   22 1   
    24   12   26 1   
    25   13   14 2   
    26   13   15 1   
    27   15   29 1   
    28   16   17 1   
    29   16   27 1   
    30   17   23 1   
    31   17   24 1   
    32   17   28 1   
@<TRIPOS>SUBSTRUCTURE
     1 HRD         1 TEMP              0 ****  ****    0 ROOT
