@<TRIPOS>MOLECULE
HRD
   30    26     1     0     0
SMALL
bcc


@<TRIPOS>ATOM
      1 N1          0.8260   -0.0460   -2.7700 n2        1 HRD     -0.194000
      2 N3          2.6440    0.1710   -1.5350 n2        1 HRD     -0.239000
      3 C4          2.1790    0.0980   -2.8190 c1        1 HRD      0.132000
      4 C5          3.5630    1.0020   -4.6670 c3        1 HRD     -0.110000
      5 C6          1.5700    0.0710   -0.6910 c1        1 HRD     -0.075000
      6 C7          1.4710    0.1080    0.7160 c1        1 HRD     -0.048000
      7 C8          0.2300    0.0070    1.3240 c1        1 HRD     -0.181000
      8 C10        -2.3180   -0.0690    2.6530 c1        1 HRD      0.211000
      9 C1         -0.8930   -0.1270    0.5610 c2        1 HRD      0.060000
     10 C2         -0.7890   -0.1630   -0.8440 c1        1 HRD     -0.099000
     11 C3          0.4500   -0.0630   -1.4510 c2        1 HRD      0.001000
     12 N2          2.7320   -0.0370   -4.1250 n2        1 HRD     -0.259000
     13 C9          0.1110    0.1090    2.8430 c1        1 HRD      0.357000
     14 O1          1.0790    0.2030    3.5020 o         1 HRD     -0.358000
     15 N4         -1.1390    0.0330    3.4520 n2        1 HRD     -0.347000
     16 N5         -3.5960   -0.0610    3.2740 n3        1 HRD     -0.277000
     17 C11        -4.5500   -1.0410    2.9410 c3        1 HRD     -0.098000
     18 N6         -2.2110   -0.1700    1.2010 n2        1 HRD     -0.241000
     19 H5          3.0950    1.8240   -4.6520 h1        1 HRD      0.085333
     20 H5A         3.7930    0.7840   -5.5660 h1        1 HRD      0.085333
     21 H7          2.2560    0.2440    1.2490 ha        1 HRD      0.161000
     22 H2         -1.6160   -0.2700   -1.4050 DU        1 HRD      0.206000
     23 H11        -4.3180   -1.8970    3.3860 h1        1 HRD      0.089667
     24 H11A       -5.4800   -0.7320    3.2570 h1        1 HRD      0.089667
     25 H9          4.3630    1.0790   -4.1420 h1        1 HRD      0.085333
     26 H10         2.6040   -0.7960   -4.5900 hn        1 HRD      0.222000
     27 H111       -3.7990    0.5760    3.8700 hn        1 HRD      0.196000
     28 H12        -4.5610   -1.1710    1.9560 h1        1 HRD      0.089667
     29 H13        -1.2040    0.0630    4.3600 hn        1 HRD      0.248000
     30 H121        3.5100    0.2670   -1.2860 DU        1 HRD      0.206000
@<TRIPOS>BOND
     1    1    3 1   
     2    1   11 1   
     3    2    3 1   
     4    2    5 1   
     5    4   12 1   
     6    4   19 1   
     7    4   20 1   
     8    4   25 1   
     9    5   11 1   
    10    6    7 1   
    11    6   21 1   
    12    7    9 1   
    13    8   16 1   
    14    8   18 1   
    15    9   10 1   
    16    9   18 1   
    17   10   11 1   
    18   12   26 1   
    19   13   14 1   
    20   13   15 1   
    21   15   29 1   
    22   16   17 1   
    23   16   27 1   
    24   17   23 1   
    25   17   24 1   
    26   17   28 1   
@<TRIPOS>SUBSTRUCTURE
     1 HRD         1 TEMP              0 ****  ****    0 ROOT
