@<TRIPOS>MOLECULE
HRD
   32    34     1     0     0
SMALL
bcc


@<TRIPOS>ATOM
      1 N1          0.2390   -0.3230   -0.1020 nc        1 HRD     -0.466100
      2 N3          1.8150    0.6820    1.2870 na        1 HRD     -0.243300
      3 C4          1.4920    0.2030   -0.0090 cd        1 HRD      0.433700
      4 C5          3.4950   -0.7740   -1.0280 c3        1 HRD      0.081100
      5 C6          0.6740    0.4490    2.0590 ca        1 HRD     -0.035200
      6 C7          0.3860    0.7120    3.4060 ca        1 HRD     -0.042000
      7 C8         -0.8720    0.3430    3.8640 ca        1 HRD     -0.121600
      8 C10        -3.3680   -0.3910    4.7930 cc        1 HRD      0.552800
      9 C1         -1.8500   -0.2790    3.0180 ca        1 HRD      0.135400
     10 C2         -1.5690   -0.5440    1.6680 ca        1 HRD      0.009000
     11 C3         -0.3040   -0.1800    1.1850 ca        1 HRD      0.083400
     12 N2          2.4290    0.2580   -1.1390 n4        1 HRD     -0.682000
     13 C9         -1.2100    0.6050    5.2830 c         1 HRD      0.717100
     14 O1         -0.4640    1.1340    6.1100 o         1 HRD     -0.513500
     15 N4         -2.5040    0.2100    5.7130 n         1 HRD     -0.503400
     16 N5         -4.7310   -0.7990    5.2880 n4        1 HRD     -0.721000
     17 C11        -5.5960    0.3800    5.5410 c3        1 HRD      0.078100
     18 N6         -3.1130   -0.6370    3.5220 nd        1 HRD     -0.559100
     19 H5          4.1540   -0.7000   -1.9380 hx        1 HRD      0.123367
     20 H5A         4.1030   -0.5970   -0.1010 hx        1 HRD      0.123367
     21 H7          1.1150    1.1890    4.0850 ha        1 HRD      0.200000
     22 H2         -2.3090   -1.0220    1.0020 ha        1 HRD      0.202000
     23 H11        -5.6900    0.9870    4.5990 hx        1 HRD      0.122700
     24 H11A       -6.6140    0.0150    5.8580 hx        1 HRD      0.122700
     25 H9          3.0250   -1.7960   -0.9820 hx        1 HRD      0.123367
     26 H10         1.8860    0.0980   -2.0080 hn        1 HRD      0.488300
     27 H111       -4.6190   -1.3550    6.1490 hn        1 HRD      0.485300
     28 H12        -5.1570    1.0160    6.3560 hx        1 HRD      0.122700
     29 H13        -2.7560    0.3730    6.6650 hn        1 HRD      0.364500
     30 H121        2.6530    1.1150    1.5870 hn        1 HRD      0.345700
     31 H22         2.8450    1.2000   -1.1880 hn        1 HRD      0.488300
     32 H52        -5.1740   -1.4010    4.5720 hn        1 HRD      0.485300
@<TRIPOS>BOND
     1    1    3 2   
     2    1   11 1   
     3    2    3 1   
     4    2    5 1   
     5    2   30 1   
     6    3   12 1   
     7    4   12 1   
     8    4   19 1   
     9    4   20 1   
    10    4   25 1   
    11    5    6 ar  
    12    5   11 ar  
    13    6    7 ar  
    14    6   21 1   
    15    7    9 ar  
    16    7   13 1   
    17    8   15 1   
    18    8   16 1   
    19    8   18 2   
    20    9   10 ar  
    21    9   18 1   
    22   10   11 ar  
    23   10   22 1   
    24   12   26 1   
    25   12   31 1   
    26   13   14 2   
    27   13   15 1   
    28   15   29 1   
    29   16   17 1   
    30   16   27 1   
    31   16   32 1   
    32   17   23 1   
    33   17   24 1   
    34   17   28 1   
@<TRIPOS>SUBSTRUCTURE
     1 HRD         1 TEMP              0 ****  ****    0 ROOT
