@<TRIPOS>MOLECULE
HRG
   28    27     1     0     0
SMALL
bcc


@<TRIPOS>ATOM
      1 N           2.9510    1.8250   -0.1050 n3        1 HRG     -0.892800
      2 CA          2.7990    0.4530    0.3630 c3        1 HRG      0.017500
      3 CB          1.5970   -0.2670   -0.2490 c3        1 HRG     -0.063400
      4 CG         -0.8920   -0.4250   -0.3900 c3        1 HRG     -0.091400
      5 CG'         0.2820    0.3530    0.1710 c3        1 HRG     -0.075400
      6 CD         -2.2030    0.2420    0.0260 c3        1 HRG      0.168800
      7 NE         -3.3760   -0.3900   -0.5490 nh        1 HRG     -0.801200
      8 CZ         -4.6270   -0.1850    0.1230 c2        1 HRG      0.751100
      9 NH1        -5.4710   -1.1880    0.2130 n2        1 HRG     -0.890100
     10 NH2        -4.8750    1.1280    0.6460 nh        1 HRG     -0.931800
     11 C           4.0640   -0.4460    0.1490 c         1 HRG      0.887600
     12 O           5.0900    0.0860   -0.3650 o         1 HRG     -0.843300
     13 OXT         3.9940   -1.6490    0.5240 o         1 HRG     -0.843300
     14 HN1A        3.8710    2.1310    0.1680 hn        1 HRG      0.330300
     15 HN2         2.9470    1.8190   -1.1110 hn        1 HRG      0.330300
     16 HA          2.6410    0.5140    1.4790 h1        1 HRG      0.040700
     17 HB1         1.6750   -0.2650   -1.3670 hc        1 HRG      0.047700
     18 HB2         1.6460   -1.3370    0.0900 hc        1 HRG      0.047700
     19 HG1        -0.8160   -0.4640   -1.5080 hc        1 HRG      0.045700
     20 HG2        -0.8590   -1.4800   -0.0130 hc        1 HRG      0.045700
     21 HG'1        0.2190    0.3730    1.2910 hc        1 HRG      0.038700
     22 HG'2        0.2320    1.4160   -0.1830 hc        1 HRG      0.038700
     23 HD1        -2.2460    0.2630    1.1530 h1        1 HRG      0.038700
     24 HD2        -2.1860    1.3120   -0.3330 h1        1 HRG      0.038700
     25 HNE        -3.2190   -1.3580   -0.7640 hn        1 HRG      0.411800
     26 HN1        -6.3660   -0.9580    0.5880 hn        1 HRG      0.379400
     27 HN21       -5.8140    1.4320    0.5090 hn        1 HRG      0.386300
     28 HN22       -4.2160    1.8250    0.3760 hn        1 HRG      0.386300
@<TRIPOS>BOND
     1    1    2 1   
     2    1   14 1   
     3    1   15 1   
     4    2    3 1   
     5    2   11 1   
     6    2   16 1   
     7    3    5 1   
     8    3   17 1   
     9    3   18 1   
    10    4    5 1   
    11    4    6 1   
    12    4   19 1   
    13    4   20 1   
    14    5   21 1   
    15    5   22 1   
    16    6    7 1   
    17    6   23 1   
    18    6   24 1   
    19    7    8 1   
    20    7   25 1   
    21    8    9 2   
    22    8   10 1   
    23    9   26 1   
    24   10   27 1   
    25   10   28 1   
    26   11   12 1   
    27   11   13 1   
@<TRIPOS>SUBSTRUCTURE
     1 HRG         1 TEMP              0 ****  ****    0 ROOT
