@<TRIPOS>MOLECULE
HRI
   19    18     1     0     0
SMALL
bcc


@<TRIPOS>ATOM
      1 CZ          0.1240    0.2210   -0.4680 c3        1 HRI     -0.040300
      2 CH1        -0.6430   -0.3100    0.7200 c3        1 HRI     -0.072400
      3 CF1        -0.0580    0.0860    2.0680 c3        1 HRI     -0.076700
      4 CI1        -0.3660    1.5320    2.4000 c3        1 HRI     -0.084100
      5 CI2        -0.5940   -0.8220    3.1570 c3        1 HRI     -0.084100
      6 CH2        -0.6790   -0.0040   -1.7800 c         1 HRI      0.918600
      7 OF2        -1.2820   -1.0990   -1.9330 o         1 HRI     -0.823800
      8 OF3        -0.7060    0.9620   -2.5900 o         1 HRI     -0.823800
      9 CL          1.7280   -0.5570   -0.5880 cl        1 HRI     -0.276400
     10 HCZ         0.3610    1.3070   -0.3570 h1        1 HRI      0.051700
     11 HCH1       -0.7000   -1.4280    0.6400 hc        1 HRI      0.059200
     12 HCH2       -1.6960    0.0740    0.6420 hc        1 HRI      0.059200
     13 HCF1        1.0610   -0.0380    2.0220 hc        1 HRI      0.052700
     14 HI11        0.1060    1.8190    3.3700 hc        1 HRI      0.023533
     15 HI12        0.0260    2.2040    1.5990 hc        1 HRI      0.023533
     16 HI13       -1.4680    1.6890    2.4830 hc        1 HRI      0.023533
     17 HI21       -1.7080   -0.7640    3.2010 hc        1 HRI      0.023533
     18 HI22       -0.3030   -1.8810    2.9560 hc        1 HRI      0.023533
     19 HI23       -0.1840   -0.5230    4.1520 hc        1 HRI      0.023533
@<TRIPOS>BOND
     1    1    2 1   
     2    1    6 1   
     3    1    9 1   
     4    1   10 1   
     5    2    3 1   
     6    2   11 1   
     7    2   12 1   
     8    3    4 1   
     9    3    5 1   
    10    3   13 1   
    11    4   14 1   
    12    4   15 1   
    13    4   16 1   
    14    5   17 1   
    15    5   18 1   
    16    5   19 1   
    17    6    7 1   
    18    6    8 1   
@<TRIPOS>SUBSTRUCTURE
     1 HRI         1 TEMP              0 ****  ****    0 ROOT
