@<TRIPOS>MOLECULE
HRI
   19    18     1     0     0
SMALL
bcc


@<TRIPOS>ATOM
      1 CZ          1.5570    0.1360    0.0120 c3        1 HRI     -0.040300
      2 CH1         0.0590   -0.0510   -0.0410 c3        1 HRI     -0.072400
      3 CF1        -0.5010   -0.2110   -1.4470 c3        1 HRI     -0.076700
      4 CI1        -0.2150   -1.5910   -2.0010 c3        1 HRI     -0.084100
      5 CI2        -1.9930    0.0520   -1.4490 c3        1 HRI     -0.084100
      6 CH2         2.0680    0.0260    1.4760 c         1 HRI      0.918600
      7 OF2         1.3930    0.5700    2.3900 o         1 HRI     -0.823800
      8 OF3         3.1190   -0.6490    1.6510 o         1 HRI     -0.823800
      9 CL          2.0240    1.7140   -0.6850 cl        1 HRI     -0.276400
     10 HCZ         2.0920   -0.6080   -0.6270 h1        1 HRI      0.051700
     11 HCH1       -0.1890   -0.9640    0.5660 hc        1 HRI      0.059200
     12 HCH2       -0.4300    0.8200    0.4710 hc        1 HRI      0.059200
     13 HCF1       -0.0070    0.5500   -2.1160 hc        1 HRI      0.052700
     14 HI11       -0.7140   -2.3740   -1.3800 hc        1 HRI      0.023533
     15 HI12       -0.5940   -1.6770   -3.0480 hc        1 HRI      0.023533
     16 HI13        0.8840   -1.7890   -2.0010 hc        1 HRI      0.023533
     17 HI21       -2.2030    1.0960   -1.1130 hc        1 HRI      0.023533
     18 HI22       -2.5140   -0.6530   -0.7570 hc        1 HRI      0.023533
     19 HI23       -2.4130   -0.0830   -2.4740 hc        1 HRI      0.023533
@<TRIPOS>BOND
     1    1    2 1   
     2    1    6 1   
     3    1    9 1   
     4    1   10 1   
     5    2    3 1   
     6    2   11 1   
     7    2   12 1   
     8    3    4 1   
     9    3    5 1   
    10    3   13 1   
    11    4   14 1   
    12    4   15 1   
    13    4   16 1   
    14    5   17 1   
    15    5   18 1   
    16    5   19 1   
    17    6    7 1   
    18    6    8 1   
@<TRIPOS>SUBSTRUCTURE
     1 HRI         1 TEMP              0 ****  ****    0 ROOT
