@<TRIPOS>MOLECULE
HRI
   19    18     1     0     0
SMALL
bcc


@<TRIPOS>ATOM
      1 CZ          1.5560    0.1420    0.0110 c3        1 HRI     -0.040300
      2 CH1         0.0590   -0.0470   -0.0430 c3        1 HRI     -0.072400
      3 CF1        -0.5000   -0.2170   -1.4480 c3        1 HRI     -0.076700
      4 CI1        -0.2120   -1.6000   -1.9930 c3        1 HRI     -0.084100
      5 CI2        -1.9930    0.0430   -1.4530 c3        1 HRI     -0.084100
      6 CH2         2.0660    0.0440    1.4760 c         1 HRI      0.918600
      7 OF2         1.3890    0.5940    2.3850 o         1 HRI     -0.823800
      8 OF3         3.1160   -0.6300    1.6570 o         1 HRI     -0.823800
      9 Cl          2.0220    1.7160   -0.6980 cl        1 HRI     -0.276400
     10 HCZ         2.0920   -0.6050   -0.6220 h1        1 HRI      0.051700
     11 HCH1       -0.4320    0.8280    0.4620 hc        1 HRI      0.059200
     12 HCH2       -0.1890   -0.9560    0.5700 hc        1 HRI      0.059200
     13 HCF1       -0.0070    0.5410   -2.1220 hc        1 HRI      0.052700
     14 HI11       -0.7090   -2.3800   -1.3670 hc        1 HRI      0.023533
     15 HI12        0.8870   -1.7960   -1.9910 hc        1 HRI      0.023533
     16 HI13       -0.5900   -1.6940   -3.0400 hc        1 HRI      0.023533
     17 HI21       -2.5130   -0.6580   -0.7570 hc        1 HRI      0.023533
     18 HI22       -2.2050    1.0890   -1.1230 hc        1 HRI      0.023533
     19 HI23       -2.4120   -0.0990   -2.4780 hc        1 HRI      0.023533
@<TRIPOS>BOND
     1    1    2 1   
     2    1    6 1   
     3    1    9 1   
     4    1   10 1   
     5    2    3 1   
     6    2   11 1   
     7    2   12 1   
     8    3    4 1   
     9    3    5 1   
    10    3   13 1   
    11    4   14 1   
    12    4   15 1   
    13    4   16 1   
    14    5   17 1   
    15    5   18 1   
    16    5   19 1   
    17    6    7 1   
    18    6    8 1   
@<TRIPOS>SUBSTRUCTURE
     1 HRI         1 TEMP              0 ****  ****    0 ROOT
