@<TRIPOS>MOLECULE
HRI
   19    18     1     0     0
SMALL
bcc


@<TRIPOS>ATOM
      1 CZ          1.5550    0.1950    0.6010 c3        1 HRI     -0.040300
      2 CH1         0.0420    0.1950    0.6010 c3        1 HRI     -0.072400
      3 CF1        -0.4630   -0.1310   -0.7880 c3        1 HRI     -0.076700
      4 CI1        -1.1660   -1.4700   -0.7670 c3        1 HRI     -0.084100
      5 CI2        -1.4310    0.9400   -1.2370 c3        1 HRI     -0.084100
      6 CH2         2.0590    0.1950    2.0270 c         1 HRI      0.918600
      7 OF2         2.3510   -0.8920    2.5920 o         1 HRI     -0.823800
      8 OF3         2.1860    1.2820    2.6500 o         1 HRI     -0.823800
      9 CL          2.1360    1.6190   -0.2210 cl        1 HRI     -0.276400
     10 HCZ         1.8800   -0.6020    0.1410 h1        1 HRI      0.051700
     11 HCH1       -0.2840    1.0760    0.8660 hc        1 HRI      0.059200
     12 HCH2       -0.2840   -0.4750    1.2310 hc        1 HRI      0.059200
     13 HCF1        0.2910   -0.1690   -1.4070 hc        1 HRI      0.052700
     14 HI11       -2.0790   -1.3530   -0.4430 hc        1 HRI      0.023533
     15 HI12       -1.1860   -1.8420   -1.6690 hc        1 HRI      0.023533
     16 HI13       -0.6870   -2.0810   -0.1750 hc        1 HRI      0.023533
     17 HI21       -2.0870    0.5510   -1.8470 hc        1 HRI      0.023533
     18 HI22       -0.9420    1.6500   -1.6960 hc        1 HRI      0.023533
     19 HI23       -1.8900    1.3110   -0.4600 hc        1 HRI      0.023533
@<TRIPOS>BOND
     1    1    2 1   
     2    1    6 1   
     3    1    9 1   
     4    1   10 1   
     5    2    3 1   
     6    2   11 1   
     7    2   12 1   
     8    3    4 1   
     9    3    5 1   
    10    3   13 1   
    11    4   14 1   
    12    4   15 1   
    13    4   16 1   
    14    5   17 1   
    15    5   18 1   
    16    5   19 1   
    17    6    7 1   
    18    6    8 1   
@<TRIPOS>SUBSTRUCTURE
     1 HRI         1 TEMP              0 ****  ****    0 ROOT
