@<TRIPOS>MOLECULE
HRM
   28    30     1     0     0
SMALL
bcc


@<TRIPOS>ATOM
      1 CAB         3.6800    2.0680   -0.0170 c3        1 HRM     -0.146400
      2 CAL         3.1370    0.6790    0.0060 ca        1 HRM      0.399600
      3 NAH         3.9720   -0.3850    0.0460 nb        1 HRM     -0.651000
      4 CAC         3.4510   -1.6270    0.0580 ca        1 HRM      0.372200
      5 CAE         2.0760   -1.9280    0.0390 ca        1 HRM     -0.204300
      6 CAO         1.1950   -0.8580    0.0070 cp        1 HRM     -0.028000
      7 CAP         1.7360    0.4840   -0.0160 ca        1 HRM     -0.146500
      8 NAI         0.6910    1.4220   -0.1200 na        1 HRM     -0.170300
      9 CAM        -0.5200    0.7060   -0.0400 ca        1 HRM      0.022800
     10 CAG        -1.8280    1.1900   -0.0450 ca        1 HRM     -0.192000
     11 CAN        -0.2490   -0.7170   -0.0090 cp        1 HRM     -0.121000
     12 CAF        -1.3010   -1.6190    0.0020 ca        1 HRM     -0.034000
     13 CAD        -2.6110   -1.1450   -0.0060 ca        1 HRM     -0.235000
     14 CAK        -2.8630    0.2380   -0.0280 ca        1 HRM      0.160100
     15 OAJ        -4.1290    0.7890   -0.0300 os        1 HRM     -0.327900
     16 CAA        -5.2190   -0.1250   -0.0190 c3        1 HRM      0.113700
     17 HAB1        3.3720    2.5720   -0.9670 hc        1 HRM      0.052033
     18 HAB2        3.2650    2.6460    0.8470 hc        1 HRM      0.052033
     19 HAB3        4.7950    2.0860    0.0490 hc        1 HRM      0.052033
     20 HAC         4.1970   -2.4420    0.0860 h4        1 HRM      0.021100
     21 HAE         1.7240   -2.9670    0.0500 ha        1 HRM      0.145000
     22 HNAI        0.7830    2.3510    0.2070 hn        1 HRM      0.290700
     23 HAG        -2.0620    2.2610   -0.0670 ha        1 HRM      0.156000
     24 HAF        -1.1040   -2.7020    0.0170 ha        1 HRM      0.139000
     25 HAD        -3.4420   -1.8630    0.0040 ha        1 HRM      0.140000
     26 HAA1       -5.2010   -0.7720   -0.9300 h1        1 HRM      0.046033
     27 HAA2       -5.2020   -0.7490    0.9070 h1        1 HRM      0.046033
     28 HAA3       -6.1170    0.5430   -0.0280 h1        1 HRM      0.046033
@<TRIPOS>BOND
     1    1    2 1   
     2    1   17 1   
     3    1   18 1   
     4    1   19 1   
     5    2    3 ar  
     6    2    7 ar  
     7    3    4 ar  
     8    4    5 ar  
     9    4   20 1   
    10    5    6 ar  
    11    5   21 1   
    12    6    7 ar  
    13    6   11 1   
    14    7    8 1   
    15    8    9 1   
    16    8   22 1   
    17    9   10 ar  
    18    9   11 ar  
    19   10   14 ar  
    20   10   23 1   
    21   11   12 ar  
    22   12   13 ar  
    23   12   24 1   
    24   13   14 ar  
    25   13   25 1   
    26   14   15 1   
    27   15   16 1   
    28   16   26 1   
    29   16   27 1   
    30   16   28 1   
@<TRIPOS>SUBSTRUCTURE
     1 HRM         1 TEMP              0 ****  ****    0 ROOT
