@<TRIPOS>MOLECULE
HRM
   28    22     1     0     0
SMALL
bcc


@<TRIPOS>ATOM
      1 CAB        -4.0950   -0.0190    1.9520 c3        1 HRM     -0.170000
      2 CAL        -2.5820   -0.0190    1.9520 c2        1 HRM     -0.023000
      3 NAH        -2.3160   -0.0190    3.2910 n2        1 HRM     -0.125000
      4 CAC        -1.0200   -0.0190    3.7330 c1        1 HRM     -0.093000
      5 CAE         0.0270   -0.0190    2.8190 c1        1 HRM     -0.086500
      6 CAO        -0.2400   -0.0190    1.4630 c1        1 HRM     -0.074500
      7 CAP        -1.5270   -0.0190    1.0260 c1        1 HRM     -0.036000
      8 NAI        -1.5100   -0.0190   -0.3640 n1        1 HRM     -0.211000
      9 CAM        -0.1940   -0.0190   -0.7740 c1        1 HRM      0.068000
     10 CAG         0.3940   -0.0190   -2.0520 c1        1 HRM     -0.192000
     11 CAN         0.5970   -0.0190    0.3420 c1        1 HRM     -0.074500
     12 CAF         1.9970   -0.0190    0.2110 c1        1 HRM     -0.086500
     13 CAD         2.5750   -0.0190   -1.0490 c1        1 HRM     -0.235000
     14 CAK         1.7740   -0.0190   -2.1800 c1        1 HRM      0.115000
     15 OAJ         1.8710   -0.0010   -3.5820 os        1 HRM     -0.211000
     16 CAA         3.1940    0.0950   -4.0620 c3        1 HRM     -0.076000
     17 HAB1       -4.4200    0.8770    1.7420 hc        1 HRM      0.091333
     18 HAB2       -4.4200   -0.6490    1.2800 hc        1 HRM      0.091333
     19 HAB3       -4.4200   -0.2860    2.8330 hc        1 HRM      0.091333
     20 HAC        -0.8310   -0.0190    4.6910 ha        1 HRM      0.158000
     21 HAE         0.9500   -0.0190    3.1350 ha        1 HRM      0.142000
     22 HNAI       -2.2410   -0.0200   -0.9090 DU        1 HRM      0.241000
     23 HAG        -0.1710   -0.0190   -2.8490 ha        1 HRM      0.156000
     24 HAF         2.5610   -0.0190    1.0070 ha        1 HRM      0.142000
     25 HAD         3.5470   -0.0190   -1.1400 ha        1 HRM      0.140000
     26 HAA1        3.6980   -0.6950   -3.7890 h1        1 HRM      0.085333
     27 HAA2        3.6170    0.8940   -3.6920 h1        1 HRM      0.085333
     28 HAA3        3.1840    0.1540   -5.0360 h1        1 HRM      0.085333
@<TRIPOS>BOND
     1    1    2 1   
     2    1   17 1   
     3    1   18 1   
     4    1   19 1   
     5    2    3 1   
     6    2    7 1   
     7    3    4 1   
     8    4   20 1   
     9    5    6 1   
    10    5   21 1   
    11    8    9 1   
    12    9   10 1   
    13   10   23 1   
    14   11   12 1   
    15   12   24 1   
    16   13   14 1   
    17   13   25 1   
    18   14   15 1   
    19   15   16 1   
    20   16   26 1   
    21   16   27 1   
    22   16   28 1   
@<TRIPOS>SUBSTRUCTURE
     1 HRM         1 TEMP              0 ****  ****    0 ROOT
