@<TRIPOS>MOLECULE
HRO
   14    14     1     0     0
SMALL
bcc


@<TRIPOS>ATOM
      1 OAA         0.4960   -0.9080    0.3280 o         1 HRO     -0.775300
      2 CAH         1.3150    0.0060    0.0990 c         1 HRO      0.925800
      3 OAD         1.7010    0.9180    0.8710 o         1 HRO     -0.775300
      4 CAI         2.0190   -0.0090   -1.3010 cc        1 HRO      0.063400
      5 CAJ         1.3800    0.1290   -2.5110 cd        1 HRO     -0.215800
      6 CL         -0.2970    0.3180   -2.6100 cl        1 HRO     -0.062400
      7 CAL         2.1300    0.1210   -3.7690 c         1 HRO      0.724700
      8 OAC         1.6700    0.2350   -4.9220 o         1 HRO     -0.653500
      9 NAG         3.5290   -0.0320   -3.6540 n         1 HRO     -0.591500
     10 CAK         4.1810   -0.1500   -2.4200 c         1 HRO      0.791500
     11 OAB         5.4310   -0.2590   -2.3620 o         1 HRO     -0.693500
     12 NAF         3.3940   -0.1580   -1.2600 n         1 HRO     -0.432100
     13 H3          4.0910   -0.0400   -4.4740 hn        1 HRO      0.333500
     14 H2          3.8550   -0.1440   -0.3750 hn        1 HRO      0.363500
@<TRIPOS>BOND
     1    1    2 1   
     2    2    3 1   
     3    2    4 1   
     4    4    5 2   
     5    4   12 1   
     6    5    6 1   
     7    5    7 1   
     8    7    8 2   
     9    7    9 1   
    10    9   10 1   
    11    9   13 1   
    12   10   11 2   
    13   10   12 1   
    14   12   14 1   
@<TRIPOS>SUBSTRUCTURE
     1 HRO         1 TEMP              0 ****  ****    0 ROOT
