@<TRIPOS>MOLECULE
HRO
   14    13     1     0     0
SMALL
bcc


@<TRIPOS>ATOM
      1 OAA        -2.4430   -0.0690    2.0920 o         1 HRO     -0.775300
      2 CAH        -1.1840   -0.0690    2.0920 c         1 HRO      0.925800
      3 OAD        -0.5540   -0.0690    3.1830 o         1 HRO     -0.775300
      4 CAI        -0.4270   -0.0690    0.7820 ce        1 HRO      0.000300
      5 CAJ         0.0120    1.2020    0.1870 c1        1 HRO     -0.217900
      6 CL         -0.5410    2.7150    0.8540 cl        1 HRO      0.022000
      7 CAL         0.7460    1.1960   -1.0870 c2        1 HRO      0.695300
      8 OAC         1.1110    2.2420   -1.5840 o         1 HRO     -0.643300
      9 NAG         1.0280   -0.0340   -1.7350 n         1 HRO     -0.591500
     10 CAK         0.5890   -1.2930   -1.1360 c         1 HRO      0.755100
     11 OAB         0.7290   -2.3350   -1.7440 o         1 HRO     -0.657100
     12 NAF        -0.1400   -1.2940    0.1250 n         1 HRO     -0.432100
     13 H3          1.4840   -0.0400   -2.5250 hn        1 HRO      0.333500
     14 H2         -0.4110   -2.0830    0.4940 hn        1 HRO      0.363500
@<TRIPOS>BOND
     1    1    2 1   
     2    2    3 1   
     3    2    4 1   
     4    4    5 2   
     5    4   12 1   
     6    5    7 2   
     7    7    8 1   
     8    7    9 1   
     9    9   10 1   
    10    9   13 1   
    11   10   11 2   
    12   10   12 1   
    13   12   14 1   
@<TRIPOS>SUBSTRUCTURE
     1 HRO         1 TEMP              0 ****  ****    0 ROOT
