@<TRIPOS>MOLECULE
HRO
   14    14     1     0     0
SMALL
bcc


@<TRIPOS>ATOM
      1 OAA         0.4510   -0.8590    0.3070 o         1 HRO     -0.775300
      2 CAH         1.3130    0.0190    0.0980 c         1 HRO      0.925800
      3 OAD         1.7400    0.8950    0.8880 o         1 HRO     -0.775300
      4 CAI         2.0180   -0.0010   -1.3020 cc        1 HRO      0.063400
      5 CAJ         1.3880    0.1920   -2.5090 cd        1 HRO     -0.215800
      6 Cl         -0.2780    0.4610   -2.6060 cl        1 HRO     -0.062400
      7 CAL         2.1390    0.1730   -3.7670 c         1 HRO      0.724700
      8 OAC         1.6870    0.3330   -4.9170 o         1 HRO     -0.653500
      9 NAG         3.5290   -0.0480   -3.6540 ns        1 HRO     -0.591500
     10 CAK         4.1730   -0.2220   -2.4220 c         1 HRO      0.791500
     11 OAB         5.4160   -0.3910   -2.3650 o         1 HRO     -0.693500
     12 NAF         3.3840   -0.2160   -1.2620 ns        1 HRO     -0.432100
     13 H3          4.0920   -0.0660   -4.4730 hn        1 HRO      0.333500
     14 H2          3.8430   -0.2420   -0.3770 hn        1 HRO      0.363500
@<TRIPOS>BOND
     1    1    2 1   
     2    2    3 1   
     3    2    4 1   
     4    4    5 2   
     5    4   12 1   
     6    5    6 1   
     7    5    7 1   
     8    7    8 2   
     9    7    9 1   
    10    9   10 1   
    11    9   13 1   
    12   10   11 2   
    13   10   12 1   
    14   12   14 1   
@<TRIPOS>SUBSTRUCTURE
     1 HRO         1 TEMP              0 ****  ****    0 ROOT
