@<TRIPOS>MOLECULE
HRO
   14    14     1     0     0
SMALL
bcc


@<TRIPOS>ATOM
      1 OAA         0.4140   -0.8340    0.2840 o         1 HRO     -0.775300
      2 CAH         1.2940    0.0300    0.0870 c         1 HRO      0.925800
      3 OAD         1.7300    0.8950    0.8860 o         1 HRO     -0.775300
      4 CAI         2.0110    0.0040   -1.3060 cc        1 HRO      0.063400
      5 CAJ         1.3960    0.2130   -2.5180 cd        1 HRO     -0.215800
      6 CL         -0.2650    0.5110   -2.6290 cl        1 HRO     -0.062400
      7 CAL         2.1580    0.1870   -3.7690 c         1 HRO      0.724700
      8 OAC         1.7190    0.3580   -4.9230 o         1 HRO     -0.653500
      9 NAG         3.5430   -0.0580   -3.6440 n         1 HRO     -0.591500
     10 CAK         4.1720   -0.2480   -2.4070 c         1 HRO      0.791500
     11 OAB         5.4120   -0.4390   -2.3400 o         1 HRO     -0.693500
     12 NAF         3.3730   -0.2350   -1.2550 n         1 HRO     -0.432100
     13 H3          4.1130   -0.0830   -4.4590 hn        1 HRO      0.333500
     14 H2          3.8240   -0.2720   -0.3660 hn        1 HRO      0.363500
@<TRIPOS>BOND
     1    1    2 1   
     2    2    3 1   
     3    2    4 1   
     4    4    5 2   
     5    4   12 1   
     6    5    6 1   
     7    5    7 1   
     8    7    8 2   
     9    7    9 1   
    10    9   10 1   
    11    9   13 1   
    12   10   11 2   
    13   10   12 1   
    14   12   14 1   
@<TRIPOS>SUBSTRUCTURE
     1 HRO         1 TEMP              0 ****  ****    0 ROOT
