@<TRIPOS>MOLECULE
HRO
   14    14     1     0     0
SMALL
bcc


@<TRIPOS>ATOM
      1 OAA         2.4850    1.1530   -0.9070 o         1 HRO     -0.775300
      2 CAH         1.6760    1.3990    0.0120 c         1 HRO      0.925800
      3 OAD         1.7750    2.2470    0.9320 o         1 HRO     -0.775300
      4 CAI         0.3220    0.6100   -0.0080 cc        1 HRO      0.063400
      5 CAJ         0.1980   -0.7540    0.1160 cd        1 HRO     -0.215800
      6 CL          1.5500   -1.7540    0.2910 cl        1 HRO     -0.062400
      7 CAL        -1.1170   -1.3990    0.1040 c         1 HRO      0.724700
      8 OAC        -1.3600   -2.6170    0.2060 o         1 HRO     -0.653500
      9 NAG        -2.2270   -0.5380   -0.0380 n         1 HRO     -0.591500
     10 CAK        -2.1010    0.8530   -0.1420 c         1 HRO      0.791500
     11 OAB        -3.1170    1.5850   -0.2420 o         1 HRO     -0.693500
     12 NAF        -0.8080    1.3960   -0.1480 n         1 HRO     -0.432100
     13 H3         -3.1460   -0.9180   -0.0480 hn        1 HRO      0.333500
     14 H2         -0.7110    2.3890   -0.1230 hn        1 HRO      0.363500
@<TRIPOS>BOND
     1    1    2 1   
     2    2    3 1   
     3    2    4 1   
     4    4    5 2   
     5    4   12 1   
     6    5    6 1   
     7    5    7 1   
     8    7    8 2   
     9    7    9 1   
    10    9   10 1   
    11    9   13 1   
    12   10   11 2   
    13   10   12 1   
    14   12   14 1   
@<TRIPOS>SUBSTRUCTURE
     1 HRO         1 TEMP              0 ****  ****    0 ROOT
