@<TRIPOS>MOLECULE
HRP
   27    28     1     0     0
SMALL
bcc


@<TRIPOS>ATOM
      1 N          -6.1700    3.1270    3.7800 n3        1 HRP     -0.886800
      2 CA         -4.7240    2.9700    3.6810 c3        1 HRP      0.022500
      3 CB         -4.2010    1.7850    4.5150 c3        1 HRP     -0.003200
      4 CG         -3.8480    0.6290    3.6770 cc        1 HRP     -0.068400
      5 CD1        -4.4040   -0.6380    3.6610 cd        1 HRP     -0.163100
      6 NE1        -3.6880   -1.5040    2.7890 na        1 HRP     -0.183400
      7 CE2        -2.7320   -0.6980    2.1240 ca        1 HRP     -0.099200
      8 CZ2        -1.7980   -1.0200    1.1350 ca        1 HRP     -0.135000
      9 CH2        -0.9130   -0.0310    0.7170 ca        1 HRP     -0.152000
     10 CZ3        -0.9600    1.2590    1.2820 ca        1 HRP      0.084100
     11 CE3        -1.8810    1.6070    2.2760 ca        1 HRP     -0.153000
     12 CD2        -2.7700    0.6260    2.6940 ca        1 HRP     -0.054800
     13 C          -3.9140    4.2500    4.0690 c         1 HRP      0.887600
     14 O          -2.6880    4.2820    3.7550 o         1 HRP     -0.845800
     15 OXT        -4.5200    5.1900    4.6550 o         1 HRP     -0.845800
     16 OX         -0.0390    2.1680    0.7970 oh        1 HRP     -0.525100
     17 H          -6.4190    3.9440    3.2480 hn        1 HRP      0.330800
     18 H2         -6.3970    3.3380    4.7370 hn        1 HRP      0.330800
     19 HA         -4.4910    2.7710    2.5940 h1        1 HRP      0.051700
     20 HB2        -3.2710    2.1270    5.0500 hc        1 HRP      0.051200
     21 HB3        -4.9460    1.4750    5.2950 hc        1 HRP      0.051200
     22 HD1        -5.2370   -1.0310    4.2450 h4        1 HRP      0.154000
     23 HE1        -4.1890   -2.1800    2.2660 hn        1 HRP      0.251700
     24 HZ2        -1.7580   -2.0240    0.6960 ha        1 HRP      0.117000
     25 HH2        -0.1690   -0.2440   -0.0620 ha        1 HRP      0.129000
     26 HE3        -1.9330    2.6250    2.7220 ha        1 HRP      0.223000
     27 HOX        -0.2040    3.0110    1.2480 ho        1 HRP      0.430000
@<TRIPOS>BOND
     1    1    2 1   
     2    1   17 1   
     3    1   18 1   
     4    2    3 1   
     5    2   13 1   
     6    2   19 1   
     7    3    4 1   
     8    3   20 1   
     9    3   21 1   
    10    4    5 2   
    11    4   12 1   
    12    5    6 1   
    13    5   22 1   
    14    6    7 1   
    15    6   23 1   
    16    7    8 ar  
    17    7   12 ar  
    18    8    9 ar  
    19    8   24 1   
    20    9   10 ar  
    21    9   25 1   
    22   10   11 ar  
    23   10   16 1   
    24   11   12 ar  
    25   11   26 1   
    26   13   14 1   
    27   13   15 1   
    28   16   27 1   
@<TRIPOS>SUBSTRUCTURE
     1 HRP         1 TEMP              0 ****  ****    0 ROOT
