@<TRIPOS>MOLECULE
HRW
   46    48     1     0     0
SMALL
bcc


@<TRIPOS>ATOM
      1 F2         -0.6230    0.6250   -1.5040 f         1 HRW     -0.237300
      2 C17         0.6640    0.2510   -1.1980 c3        1 HRW      0.687200
      3 F           0.5960   -0.1360    0.1190 f         1 HRW     -0.237300
      4 F1          0.8410   -0.9280   -1.8820 f         1 HRW     -0.237300
      5 C15         1.7200    1.3090   -1.4920 ca        1 HRW     -0.167300
      6 C14         1.4990    2.2520   -2.4970 ca        1 HRW     -0.080000
      7 C13         2.4810    3.2060   -2.7670 ca        1 HRW     -0.130000
      8 C12         3.6700    3.2150   -2.0410 ca        1 HRW     -0.090000
      9 C16         2.9090    1.3120   -0.7590 ca        1 HRW     -0.083000
     10 C11         3.8900    2.2700   -1.0300 ca        1 HRW     -0.085300
     11 C10         5.1700    2.2700   -0.2620 c3        1 HRW      0.043100
     12 C9          5.2870    3.4150    0.6580 cc        1 HRW     -0.164600
     13 C8          4.5640    3.6050    1.8060 cd        1 HRW      0.038000
     14 N3          4.8890    4.7670    2.4990 na        1 HRW     -0.681000
     15 S1          6.3990    4.6810    0.4100 ss        1 HRW     -0.000800
     16 C7          5.8970    5.5170    1.8750 cc        1 HRW      0.681100
     17 N2          6.3290    6.6510    2.3890 nf        1 HRW     -0.766100
     18 C6          7.3270    7.4110    1.7700 c         1 HRW      0.719500
     19 O           7.8970    7.0890    0.7070 o         1 HRW     -0.591100
     20 C5          7.7180    8.6800    2.4900 c3        1 HRW     -0.107300
     21 S           6.2630    9.5040    3.0580 ss        1 HRW     -0.136400
     22 C4          6.8250   11.0550    3.5590 ca        1 HRW      0.720300
     23 N           5.8350   11.9130    3.9660 nb        1 HRW     -0.716000
     24 C3          6.2320   13.1370    4.3850 ca        1 HRW      0.465600
     25 C18         5.2030   14.1190    4.8430 c3        1 HRW     -0.155400
     26 C2          7.5960   13.5100    4.3990 ca        1 HRW     -0.389600
     27 N1          8.1650   11.3280    3.5400 nb        1 HRW     -0.716000
     28 C1          8.5430   12.5610    3.9600 ca        1 HRW      0.465600
     29 C           9.9930   12.9180    3.9590 c3        1 HRW     -0.155400
     30 H14         0.5550    2.2430   -3.0640 ha        1 HRW      0.153000
     31 H16         3.0650    0.5590    0.0300 ha        1 HRW      0.149000
     32 H13         2.3140    3.9530   -3.5580 ha        1 HRW      0.146000
     33 H12         4.4420    3.9700   -2.2580 ha        1 HRW      0.146000
     34 H101        5.2600    1.3130    0.3270 hc        1 HRW      0.067200
     35 H102        6.0290    2.2870   -0.9910 hc        1 HRW      0.067200
     36 H8          3.7800    2.9550    2.2150 h4        1 HRW      0.186000
     37 H3          4.4420    5.0500    3.3380 hn        1 HRW      0.478800
     38 H51C        8.3890    8.4150    3.3460 h1        1 HRW      0.106700
     39 H52C        8.3090    9.3140    1.7810 h1        1 HRW      0.106700
     40 H181        4.4790   14.3360    4.0190 hc        1 HRW      0.058200
     41 H182        4.6310   13.7060    5.7120 hc        1 HRW      0.058200
     42 H183        5.6910   15.0740    5.1540 hc        1 HRW      0.058200
     43 H2          7.9060   14.5040    4.7390 ha        1 HRW      0.151000
     44 HC1        10.4090   12.8510    2.9220 hc        1 HRW      0.058200
     45 HC2        10.5680   12.2160    4.6130 hc        1 HRW      0.058200
     46 HC3        10.1350   13.9600    4.3370 hc        1 HRW      0.058200
@<TRIPOS>BOND
     1    1    2 1   
     2    2    3 1   
     3    2    4 1   
     4    2    5 1   
     5    5    6 ar  
     6    5    9 ar  
     7    6    7 ar  
     8    6   30 1   
     9    7    8 ar  
    10    7   32 1   
    11    8   10 ar  
    12    8   33 1   
    13    9   10 ar  
    14    9   31 1   
    15   10   11 1   
    16   11   12 1   
    17   11   34 1   
    18   11   35 1   
    19   12   13 2   
    20   12   15 1   
    21   13   14 1   
    22   13   36 1   
    23   14   16 1   
    24   14   37 1   
    25   15   16 1   
    26   16   17 2   
    27   17   18 1   
    28   18   19 2   
    29   18   20 1   
    30   20   21 1   
    31   20   38 1   
    32   20   39 1   
    33   21   22 1   
    34   22   23 ar  
    35   22   27 ar  
    36   23   24 ar  
    37   24   25 1   
    38   24   26 ar  
    39   25   40 1   
    40   25   41 1   
    41   25   42 1   
    42   26   28 ar  
    43   26   43 1   
    44   27   28 ar  
    45   28   29 1   
    46   29   44 1   
    47   29   45 1   
    48   29   46 1   
@<TRIPOS>SUBSTRUCTURE
     1 HRW         1 TEMP              0 ****  ****    0 ROOT
