@<TRIPOS>MOLECULE
HRW
   46    48     1     0     0
SMALL
bcc


@<TRIPOS>ATOM
      1 F2         -0.5780    0.5430   -1.4210 f         1 HRW     -0.237300
      2 C17         0.7160    0.1860   -1.1260 c3        1 HRW      0.687200
      3 F           0.6640   -0.1960    0.1930 f         1 HRW     -0.237300
      4 F1          0.9000   -0.9940   -1.8070 f         1 HRW     -0.237300
      5 C15         1.7570    1.2540   -1.4340 ca        1 HRW     -0.167300
      6 C14         1.5170    2.1900   -2.4410 ca        1 HRW     -0.080000
      7 C13         2.4850    3.1530   -2.7240 ca        1 HRW     -0.130000
      8 C12         3.6800    3.1790   -2.0080 ca        1 HRW     -0.090000
      9 C16         2.9520    1.2740   -0.7110 ca        1 HRW     -0.083000
     10 C11         3.9200    2.2420   -0.9950 ca        1 HRW     -0.085300
     11 C10         5.2070    2.2600   -0.2380 c3        1 HRW      0.043100
     12 C9          5.3190    3.4110    0.6750 cc        1 HRW     -0.164600
     13 C8          4.6040    3.5990    1.8290 cd        1 HRW      0.038000
     14 N3          4.9220    4.7670    2.5130 na        1 HRW     -0.681000
     15 S1          6.4140    4.6890    0.4120 ss        1 HRW     -0.000800
     16 C7          5.9160    5.5260    1.8760 cc        1 HRW      0.681100
     17 N2          6.3400    6.6670    2.3820 nf        1 HRW     -0.766100
     18 C6          7.3230    7.4350    1.7500 c         1 HRW      0.719500
     19 O           7.8870    7.1140    0.6830 o         1 HRW     -0.591100
     20 C5          7.7060    8.7120    2.4610 c3        1 HRW     -0.107300
     21 S           6.2470    9.5220    3.0380 ss        1 HRW     -0.136400
     22 C4          6.7960   11.0820    3.5260 ca        1 HRW      0.720300
     23 N           5.7990   11.9310    3.9360 nb        1 HRW     -0.716000
     24 C3          6.1860   13.1620    4.3460 ca        1 HRW      0.465600
     25 C18         5.1490   14.1340    4.8070 c3        1 HRW     -0.155400
     26 C2          7.5450   13.5500    4.3450 ca        1 HRW     -0.389600
     27 N1          8.1320   11.3700    3.4930 nb        1 HRW     -0.716000
     28 C1          8.4990   12.6100    3.9040 ca        1 HRW      0.465600
     29 C           9.9450   12.9830    3.8870 c3        1 HRW     -0.155400
     30 H14         0.5690    2.1670   -3.0010 ha        1 HRW      0.153000
     31 H16         3.1230    0.5270    0.0800 ha        1 HRW      0.149000
     32 H13         2.3030    3.8940   -3.5170 ha        1 HRW      0.146000
     33 H12         4.4420    3.9420   -2.2360 ha        1 HRW      0.146000
     34 H101        5.3120    1.3080    0.3540 hc        1 HRW      0.067200
     35 H102        6.0590    2.2830   -0.9740 hc        1 HRW      0.067200
     36 H8          3.8320    2.9410    2.2490 h4        1 HRW      0.186000
     37 H3          4.4800    5.0490    3.3560 hn        1 HRW      0.478800
     38 H51C        8.3870    8.4590    3.3120 h1        1 HRW      0.106700
     39 H52C        8.2830    9.3490    1.7430 h1        1 HRW      0.106700
     40 H181        5.6300   15.0970    5.1070 hc        1 HRW      0.058200
     41 H182        4.5910   13.7200    5.6840 hc        1 HRW      0.058200
     42 H183        4.4150   14.3370    3.9890 hc        1 HRW      0.058200
     43 H2          7.8470   14.5500    4.6770 ha        1 HRW      0.151000
     44 HC1        10.5340   12.2920    4.5400 hc        1 HRW      0.058200
     45 HC2        10.0780   14.0280    4.2580 hc        1 HRW      0.058200
     46 HC3        10.3530   12.9160    2.8480 hc        1 HRW      0.058200
@<TRIPOS>BOND
     1    1    2 1   
     2    2    3 1   
     3    2    4 1   
     4    2    5 1   
     5    5    6 ar  
     6    5    9 ar  
     7    6    7 ar  
     8    6   30 1   
     9    7    8 ar  
    10    7   32 1   
    11    8   10 ar  
    12    8   33 1   
    13    9   10 ar  
    14    9   31 1   
    15   10   11 1   
    16   11   12 1   
    17   11   34 1   
    18   11   35 1   
    19   12   13 2   
    20   12   15 1   
    21   13   14 1   
    22   13   36 1   
    23   14   16 1   
    24   14   37 1   
    25   15   16 1   
    26   16   17 2   
    27   17   18 1   
    28   18   19 2   
    29   18   20 1   
    30   20   21 1   
    31   20   38 1   
    32   20   39 1   
    33   21   22 1   
    34   22   23 ar  
    35   22   27 ar  
    36   23   24 ar  
    37   24   25 1   
    38   24   26 ar  
    39   25   40 1   
    40   25   41 1   
    41   25   42 1   
    42   26   28 ar  
    43   26   43 1   
    44   27   28 ar  
    45   28   29 1   
    46   29   44 1   
    47   29   45 1   
    48   29   46 1   
@<TRIPOS>SUBSTRUCTURE
     1 HRW         1 TEMP              0 ****  ****    0 ROOT
