@<TRIPOS>MOLECULE
HRX
   27    27     1     0     0
SMALL
bcc


@<TRIPOS>ATOM
      1 O17         1.1890    0.3250    1.5720 o         1 HRX     -0.933500
      2 P14         1.4250    0.0130    0.1170 p5        1 HRX      1.212700
      3 O16         2.0380   -1.3460   -0.0850 o         1 HRX     -0.933500
      4 O15         0.2060    0.2420   -0.7510 o         1 HRX     -0.933500
      5 C8          2.7100    1.4200   -0.6400 c3        1 HRX     -0.261600
      6 P9          4.4010    1.4580   -0.8360 p5        1 HRX      1.422600
      7 O11         5.1630    1.7440    0.4220 o         1 HRX     -0.925500
      8 O12         5.0660    0.4710   -1.7420 o         1 HRX     -0.925500
      9 O10         4.6060    2.8730   -1.7180 oh        1 HRX     -0.816400
     10 O13         2.2300    1.4120   -1.9740 oh        1 HRX     -0.655800
     11 C7          2.2610    2.6350    0.1470 c3        1 HRX     -0.040200
     12 C9          1.6800    3.7790   -0.6140 c2        1 HRX     -0.221200
     13 C6          1.3760    5.0110   -0.1390 cc        1 HRX     -0.152600
     14 C5          1.5860    5.4590    1.2300 cc        1 HRX     -0.215000
     15 C2          1.2500    6.7270    1.6070 cd        1 HRX     -0.213600
     16 C3          0.6850    7.6370    0.6690 cd        1 HRX     -0.071800
     17 N4          0.4610    7.2790   -0.6250 n1        1 HRX     -0.484800
     18 C1          0.7850    6.0530   -0.9940 cc        1 HRX      0.134200
     19 H5          1.2650    1.2870   -1.9500 ho        1 HRX      0.408000
     20 H6          1.4920    2.3300    0.9180 hc        1 HRX      0.049200
     21 H7          3.1520    3.0120    0.7310 hc        1 HRX      0.049200
     22 H8          1.4630    3.5620   -1.6740 ha        1 HRX      0.094000
     23 H9          3.7850    3.3320   -1.8350 ho        1 HRX      0.399000
     24 H10         2.0200    4.7350    1.9310 ha        1 HRX      0.109000
     25 H11         1.4070    7.0700    2.6400 ha        1 HRX      0.032000
     26 H12         0.4110    8.6570    0.9550 h4        1 HRX     -0.078200
     27 H13         0.5910    5.7910   -2.0460 h4        1 HRX     -0.048200
@<TRIPOS>BOND
     1    1    2 1   
     2    2    3 1   
     3    2    4 1   
     4    2    5 1   
     5    5    6 1   
     6    5   10 1   
     7    5   11 1   
     8    6    7 1   
     9    6    8 1   
    10    6    9 1   
    11    9   23 1   
    12   10   19 1   
    13   11   12 1   
    14   11   20 1   
    15   11   21 1   
    16   12   13 2   
    17   12   22 1   
    18   13   14 1   
    19   13   18 1   
    20   14   15 2   
    21   14   24 1   
    22   15   16 1   
    23   15   25 1   
    24   16   17 2   
    25   16   26 1   
    26   17   18 2   
    27   18   27 1   
@<TRIPOS>SUBSTRUCTURE
     1 HRX         1 TEMP              0 ****  ****    0 ROOT
