@<TRIPOS>MOLECULE
HS1
   38    34     1     0     0
SMALL
bcc


@<TRIPOS>ATOM
      1 N1          0.2270   -0.7330    1.0110 n3        1 HS1     -0.810000
      2 C2          0.7230    1.9810   -2.9430 c1        1 HS1     -0.236000
      3 N2          3.5530   -2.1830    0.0800 n1        1 HS1      0.195000
      4 C4         -0.3630    2.8380   -3.0640 c1        1 HS1      0.148000
      5 C5         -1.6070    1.4800   -1.5130 c1        1 HS1      0.017000
      6 C6         -0.2800   -1.8150    3.1430 c3        1 HS1      0.009000
      7 O1         -0.2660   -2.0480   -1.1490 o         1 HS1     -0.530400
      8 O2         -2.0380   -1.1890   -0.1130 o         1 HS1     -0.530400
      9 O3         -0.2600    3.9980   -3.8640 os        1 HS1     -0.202000
     10 O4         -0.5350   -2.6890    5.3690 oh        1 HS1     -0.333000
     11 O7          1.4620   -3.0170    0.4900 o         1 HS1     -0.267000
     12 C9          2.1920   -2.0470    0.4820 c1        1 HS1      0.100000
     13 O5          3.9590   -3.2530   -0.3600 o         1 HS1     -0.112000
     14 C11         1.6700   -0.6990    0.9510 c3        1 HS1     -0.031000
     15 C8         -0.4550   -0.5550    2.2920 c3        1 HS1     -0.024000
     16 O6         -1.1310   -2.8110    2.6770 oh        1 HS1     -0.327000
     17 C12        -0.6160   -1.5000    4.5960 c3        1 HS1     -0.054000
     18 S1         -0.6640   -0.8820   -0.3970 s4        1 HS1      2.075800
     19 C3         -0.5200    0.6220   -1.3920 c1        1 HS1     -0.879000
     20 C7         -1.5270    2.5890   -2.3510 c1        1 HS1     -0.186000
     21 C10        -0.5850    3.7860   -5.2240 c3        1 HS1     -0.080000
     22 C1          0.6440    0.8720   -2.1060 c2        1 HS1      0.018000
     23 H2          1.5400    2.1560   -3.4440 ha        1 HS1      0.148000
     24 H5         -2.4230    1.3060   -1.0140 ha        1 HS1      0.152000
     25 H6          0.6450   -2.1220    3.0830 h1        1 HS1      0.088000
     26 HO4        -0.6590   -2.4910    6.2390 ho        1 HS1      0.210000
     27 H11         1.9550    0.0000    0.3220 h1        1 HS1      0.121000
     28 H11A        2.0280   -0.5020    1.8410 h1        1 HS1      0.121000
     29 H8         -0.0700    0.2120    2.7630 h1        1 HS1      0.110000
     30 H8A        -1.4070   -0.3970    2.1360 h1        1 HS1      0.110000
     31 HO6        -0.8300   -3.6080    2.9420 ho        1 HS1      0.230000
     32 H12         0.0220   -0.8400    4.9430 h1        1 HS1      0.077000
     33 H12A       -1.5250   -1.1360    4.6490 h1        1 HS1      0.077000
     34 H7         -2.2870    3.1900   -2.4360 ha        1 HS1      0.160000
     35 H10        -1.5560    3.8550   -5.3420 h1        1 HS1      0.091333
     36 H10A       -0.1390    4.4660   -5.7780 h1        1 HS1      0.091333
     37 H10B       -0.2850    2.8910   -5.4980 h1        1 HS1      0.091333
     38 H1          1.4060    0.2700   -2.0210 ha        1 HS1      0.160000
@<TRIPOS>BOND
     1    1   14 1   
     2    1   15 1   
     3    1   18 1   
     4    2   22 1   
     5    2   23 1   
     6    3   13 1   
     7    4    9 1   
     8    4   20 1   
     9    5   19 1   
    10    5   24 1   
    11    6   15 1   
    12    6   16 1   
    13    6   17 1   
    14    6   25 1   
    15    7   18 1   
    16    8   18 1   
    17    9   21 1   
    18   10   17 1   
    19   10   26 1   
    20   11   12 1   
    21   12   14 1   
    22   14   27 1   
    23   14   28 1   
    24   15   29 1   
    25   15   30 1   
    26   16   31 1   
    27   17   32 1   
    28   17   33 1   
    29   19   22 1   
    30   20   34 1   
    31   21   35 1   
    32   21   36 1   
    33   21   37 1   
    34   22   38 1   
@<TRIPOS>SUBSTRUCTURE
     1 HS1         1 TEMP              0 ****  ****    0 ROOT
