@<TRIPOS>MOLECULE
HS1
   38    38     1     0     0
SMALL
bcc


@<TRIPOS>ATOM
      1 N1         -1.1960   -0.1460    0.3290 n3        1 HS1     -0.786500
      2 C2          3.5120   -0.2140    0.8120 ca        1 HS1     -0.208500
      3 N2         -0.4520   -3.8090   -0.4230 ne        1 HS1     -0.024100
      4 C4          3.8580    0.6570   -0.2420 ca        1 HS1      0.197100
      5 C5          1.6180    1.5350   -0.2610 ca        1 HS1      0.023500
      6 C6         -3.4430    0.6570   -0.4580 c3        1 HS1      0.126100
      7 O1         -0.7630    2.0430    1.4250 o         1 HS1     -0.652300
      8 O2         -0.2990    0.0180    2.6470 o         1 HS1     -0.652300
      9 O3          5.1600    0.5640   -0.6680 os        1 HS1     -0.317900
     10 O4         -5.4290    1.6530   -1.2460 oh        1 HS1     -0.610800
     11 O7         -0.1880   -1.8670   -1.7520 o         1 HS1     -0.495100
     12 C9         -0.5620   -2.3420   -0.6780 c         1 HS1      0.536500
     13 O5          0.5540   -4.2610   -0.0960 o         1 HS1     -0.082300
     14 C11        -1.3230   -1.5690    0.4000 c3        1 HS1      0.145800
     15 C8         -1.9290    0.5110   -0.7210 c3        1 HS1      0.219800
     16 O6         -4.0250   -0.6240   -0.6400 oh        1 HS1     -0.612800
     17 C12        -4.0260    1.6640   -1.4560 c3        1 HS1      0.092400
     18 S1         -0.3010    0.7080    1.4140 sy        1 HS1      1.511200
     19 C3          1.2460    0.6730    0.7790 ca        1 HS1     -0.436500
     20 C7          2.9070    1.5400   -0.7780 ca        1 HS1     -0.208500
     21 C10         5.5440    1.4200   -1.7420 c3        1 HS1      0.109700
     22 C1          2.2190   -0.1940    1.3050 ca        1 HS1      0.023500
     23 H2          4.2730   -0.8930    1.2240 ha        1 HS1      0.154000
     24 H5          0.8700    2.2380   -0.6690 ha        1 HS1      0.151500
     25 H6         -3.6480    1.0140    0.5900 h1        1 HS1      0.062700
     26 HO4        -5.8130    2.2580   -1.8910 ho        1 HS1      0.412000
     27 H11        -0.9750   -1.9140    1.4190 h1        1 HS1      0.106700
     28 H11A       -2.4130   -1.8610    0.2790 h1        1 HS1      0.106700
     29 H8         -1.5060    1.5500   -0.8510 h1        1 HS1      0.072200
     30 H8A        -1.7930   -0.0600   -1.6850 h1        1 HS1      0.072200
     31 HO6        -4.9840   -0.5020   -0.6100 ho        1 HS1      0.426000
     32 H12        -3.6120    2.6880   -1.2610 h1        1 HS1      0.039200
     33 H12A       -3.7920    1.3530   -2.5090 h1        1 HS1      0.039200
     34 H7          3.1680    2.2270   -1.5940 ha        1 HS1      0.154000
     35 H10         4.9360    1.2020   -2.6540 h1        1 HS1      0.051700
     36 H10A        5.4410    2.4920   -1.4440 h1        1 HS1      0.051700
     37 H10B        6.6190    1.1550   -1.9090 h1        1 HS1      0.051700
     38 H1          1.9440   -0.8630    2.1410 ha        1 HS1      0.151500
@<TRIPOS>BOND
     1    1   14 1   
     2    1   15 1   
     3    1   18 1   
     4    2    4 ar  
     5    2   22 ar  
     6    2   23 1   
     7    3   12 1   
     8    3   13 2   
     9    4    9 1   
    10    4   20 ar  
    11    5   19 ar  
    12    5   20 ar  
    13    5   24 1   
    14    6   15 1   
    15    6   16 1   
    16    6   17 1   
    17    6   25 1   
    18    7   18 2   
    19    8   18 2   
    20    9   21 1   
    21   10   17 1   
    22   10   26 1   
    23   11   12 2   
    24   12   14 1   
    25   14   27 1   
    26   14   28 1   
    27   15   29 1   
    28   15   30 1   
    29   16   31 1   
    30   17   32 1   
    31   17   33 1   
    32   18   19 1   
    33   19   22 ar  
    34   20   34 1   
    35   21   35 1   
    36   21   36 1   
    37   21   37 1   
    38   22   38 1   
@<TRIPOS>SUBSTRUCTURE
     1 HS1         1 TEMP              0 ****  ****    0 ROOT
