@<TRIPOS>MOLECULE
HS1
   39    38     1     0     0
SMALL
bcc


@<TRIPOS>ATOM
      1 N1          0.1530   -0.7120    0.5270 n3        1 HS1     -0.898200
      2 C2         -0.4870   -4.0040   -2.7740 ca        1 HS1     -0.217000
      3 N2          3.9820   -0.7810    0.1850 ne        1 HS1      0.017900
      4 C4         -1.8180   -4.4650   -2.5780 ca        1 HS1      0.285100
      5 C5         -2.4430   -2.3030   -1.7120 ca        1 HS1      0.067000
      6 C6         -0.8100    1.3210    1.7050 c3        1 HS1      0.133100
      7 O1         -1.7780    0.4750   -1.1650 o         1 HS1     -0.447400
      8 O2          0.3900    0.1840   -2.1110 o         1 HS1     -0.447400
      9 O3         -2.0450   -5.7460   -2.9370 os        1 HS1     -0.276900
     10 O4         -1.7290    3.0880    2.9420 oh        1 HS1     -0.605800
     11 O7          2.2230   -2.1310   -0.7050 o         1 HS1     -0.537100
     12 C9          2.5510   -1.1150   -0.0810 c         1 HS1      0.552500
     13 O5          4.6160   -0.2780   -0.6250 o         1 HS1     -0.028300
     14 C11         1.5320   -0.2140    0.6020 c3        1 HS1      0.035800
     15 C8         -0.6830   -0.2120    1.6240 c3        1 HS1      0.127800
     16 O6          0.4850    1.8470    1.9370 oh        1 HS1     -0.626800
     17 C12        -1.7670    1.6750    2.8520 c3        1 HS1      0.099400
     18 S1         -0.7660   -0.3240   -1.6050 s4        1 HS1      1.680300
     19 C3         -1.1240   -1.8020   -1.9090 ca        1 HS1     -0.666500
     20 C7         -2.7930   -3.5920   -2.0350 ca        1 HS1     -0.217000
     21 C10        -3.3730   -6.2670   -2.7740 c3        1 HS1      0.098700
     22 C1         -0.1640   -2.7120   -2.4450 ca        1 HS1      0.067000
     23 H2          0.2640   -4.6980   -3.1890 ha        1 HS1      0.185000
     24 H5         -3.2090   -1.6200   -1.2960 ha        1 HS1      0.177500
     25 H6         -1.2140    1.7470    0.7420 h1        1 HS1      0.075700
     26 HO4        -2.2790    3.3410    3.6940 ho        1 HS1      0.430000
     27 H11         1.8450   -0.0560    1.6790 h1        1 HS1      0.127700
     28 H11A        1.5610    0.8020    0.1020 h1        1 HS1      0.127700
     29 H8         -1.7180   -0.6310    1.4710 h1        1 HS1      0.075700
     30 H8A        -0.2870   -0.5800    2.6150 h1        1 HS1      0.075700
     31 HO6         0.3760    2.7570    2.2500 ho        1 HS1      0.452000
     32 H12        -2.8050    1.3240    2.6150 h1        1 HS1      0.044200
     33 H12A       -1.4180    1.2140    3.8140 h1        1 HS1      0.044200
     34 H7         -3.8260   -3.9420   -1.8780 ha        1 HS1      0.185000
     35 H10        -4.0940   -5.6860   -3.3980 h1        1 HS1      0.075033
     36 H10A       -3.2700   -7.3180   -3.1510 h1        1 HS1      0.075033
     37 H10B       -3.6620   -6.2540   -1.6960 h1        1 HS1      0.075033
     38 H1          0.8790   -2.3610   -2.5890 ha        1 HS1      0.177500
     39 H111        0.1740   -1.7240    0.5890 hn        1 HS1      0.401800
@<TRIPOS>BOND
     1    1   14 1   
     2    1   15 1   
     3    1   39 1   
     4    2    4 ar  
     5    2   22 ar  
     6    2   23 1   
     7    3   12 1   
     8    3   13 2   
     9    4    9 1   
    10    4   20 ar  
    11    5   19 ar  
    12    5   20 ar  
    13    5   24 1   
    14    6   15 1   
    15    6   16 1   
    16    6   17 1   
    17    6   25 1   
    18    7   18 1   
    19    8   18 1   
    20    9   21 1   
    21   10   17 1   
    22   10   26 1   
    23   11   12 2   
    24   12   14 1   
    25   14   27 1   
    26   14   28 1   
    27   15   29 1   
    28   15   30 1   
    29   16   31 1   
    30   17   32 1   
    31   17   33 1   
    32   18   19 1   
    33   19   22 ar  
    34   20   34 1   
    35   21   35 1   
    36   21   36 1   
    37   21   37 1   
    38   22   38 1   
@<TRIPOS>SUBSTRUCTURE
     1 HS1         1 TEMP              0 ****  ****    0 ROOT
