@<TRIPOS>MOLECULE
HS1
   39    38     1     0     0
SMALL
bcc


@<TRIPOS>ATOM
      1 N1          0.1510   -0.7090    0.5260 n7        1 HS1     -0.898200
      2 C2         -0.4730   -3.9840   -2.7950 ca        1 HS1     -0.217000
      3 N2          3.9780   -0.7340    0.1630 ne        1 HS1      0.017900
      4 C4         -1.7970   -4.4600   -2.5940 ca        1 HS1      0.285100
      5 C5         -2.4400   -2.3110   -1.7100 ca        1 HS1      0.067000
      6 C6         -0.8280    1.3050    1.7240 c3        1 HS1      0.133100
      7 O1         -1.8020    0.4710   -1.1470 o         1 HS1     -0.447400
      8 O2          0.3630    0.2090   -2.1070 o         1 HS1     -0.447400
      9 O3         -2.0130   -5.7400   -2.9610 os        1 HS1     -0.276900
     10 O4         -1.7590    3.0540    2.9790 oh        1 HS1     -0.605800
     11 O7          2.2290   -2.0960   -0.7270 o         1 HS1     -0.537100
     12 C9          2.5500   -1.0800   -0.0970 c         1 HS1      0.552500
     13 O5          4.6030   -0.2180   -0.6460 o         1 HS1     -0.028300
     14 C11         1.5240   -0.1960    0.5970 c3        1 HS1      0.035800
     15 C8         -0.6840   -0.2250    1.6320 c3        1 HS1      0.127800
     16 O6          0.4630    1.8440    1.9520 oh        1 HS1     -0.626800
     17 C12        -1.7820    1.6410    2.8790 c3        1 HS1      0.099400
     18 S1         -0.7840   -0.3150   -1.5980 s4        1 HS1      1.680300
     19 C3         -1.1280   -1.7940   -1.9100 ca        1 HS1     -0.666500
     20 C7         -2.7790   -3.6010   -2.0400 ca        1 HS1     -0.217000
     21 C10        -3.3340   -6.2770   -2.7940 c3        1 HS1      0.098700
     22 C1         -0.1610   -2.6900   -2.4580 ca        1 HS1      0.067000
     23 H2          0.2830   -4.6660   -3.2190 ha        1 HS1      0.185000
     24 H5         -3.2120   -1.6390   -1.2840 ha        1 HS1      0.177500
     25 H6         -1.2420    1.7340    0.7660 h1        1 HS1      0.075700
     26 HO4        -2.3070    3.2950    3.7370 ho        1 HS1      0.430000
     27 H11         1.5410    0.8240    0.1050 h1        1 HS1      0.127700
     28 H11A        1.8420   -0.0420    1.6730 h1        1 HS1      0.127700
     29 H8         -0.2790   -0.5960    2.6180 h1        1 HS1      0.075700
     30 H8A        -1.7160   -0.6550    1.4810 h1        1 HS1      0.075700
     31 HO6         0.3460    2.7510    2.2730 ho        1 HS1      0.452000
     32 H12        -1.4220    1.1770    3.8360 h1        1 HS1      0.044200
     33 H12A       -2.8170    1.2800    2.6460 h1        1 HS1      0.044200
     34 H7         -3.8070   -3.9630   -1.8790 ha        1 HS1      0.185000
     35 H10        -3.2220   -7.3240   -3.1790 h1        1 HS1      0.075033
     36 H10A       -4.0650   -5.6990   -3.4100 h1        1 HS1      0.075033
     37 H10B       -3.6170   -6.2740   -1.7140 h1        1 HS1      0.075033
     38 H1          0.8770   -2.3270   -2.6060 ha        1 HS1      0.177500
     39 H111        0.1830   -1.7200    0.5810 hn        1 HS1      0.401800
@<TRIPOS>BOND
     1    1   14 1   
     2    1   15 1   
     3    1   39 1   
     4    2    4 ar  
     5    2   22 ar  
     6    2   23 1   
     7    3   12 1   
     8    3   13 2   
     9    4    9 1   
    10    4   20 ar  
    11    5   19 ar  
    12    5   20 ar  
    13    5   24 1   
    14    6   15 1   
    15    6   16 1   
    16    6   17 1   
    17    6   25 1   
    18    7   18 1   
    19    8   18 1   
    20    9   21 1   
    21   10   17 1   
    22   10   26 1   
    23   11   12 2   
    24   12   14 1   
    25   14   27 1   
    26   14   28 1   
    27   15   29 1   
    28   15   30 1   
    29   16   31 1   
    30   17   32 1   
    31   17   33 1   
    32   18   19 1   
    33   19   22 ar  
    34   20   34 1   
    35   21   35 1   
    36   21   36 1   
    37   21   37 1   
    38   22   38 1   
@<TRIPOS>SUBSTRUCTURE
     1 HS1         1 TEMP              0 ****  ****    0 ROOT
