@<TRIPOS>MOLECULE
HS1
   39    38     1     0     0
SMALL
bcc


@<TRIPOS>ATOM
      1 N1          0.1530   -0.6880    0.4810 n3        1 HS1     -0.898200
      2 C2         -0.5180   -3.9050   -2.8850 ca        1 HS1     -0.217000
      3 N2          3.9240   -0.4900   -0.2790 ne        1 HS1      0.022900
      4 C4         -1.8180   -4.4240   -2.6420 ca        1 HS1      0.285100
      5 C5         -2.4860   -2.3160   -1.6820 ca        1 HS1      0.066500
      6 C6         -0.7930    1.2960    1.7520 c3        1 HS1      0.134100
      7 O1         -1.9050    0.4690   -1.0760 o         1 HS1     -0.445900
      8 O2          0.2200    0.2970   -2.1420 o         1 HS1     -0.445900
      9 O3         -2.0120   -5.7030   -3.0290 os        1 HS1     -0.276900
     10 O4         -1.6970    3.0140    3.0670 oh        1 HS1     -0.606800
     11 O7          2.2010   -2.0400   -0.8590 o         1 HS1     -0.536100
     12 C9          2.5330   -1.0300   -0.2260 c         1 HS1      0.550500
     13 O5          4.7350   -0.9240    0.4030 o         1 HS1     -0.033300
     14 C11         1.5210   -0.1580    0.5030 c3        1 HS1      0.035800
     15 C8         -0.6440   -0.2320    1.6260 c3        1 HS1      0.126800
     16 O6          0.5010    1.8360    1.9580 oh        1 HS1     -0.626800
     17 C12        -1.7180    1.6040    2.9380 c3        1 HS1      0.099400
     18 S1         -0.8850   -0.2740   -1.5940 s4        1 HS1      1.680300
     19 C3         -1.1990   -1.7560   -1.9250 ca        1 HS1     -0.666500
     20 C7         -2.8000   -3.6080   -2.0280 ca        1 HS1     -0.217000
     21 C10        -3.3090   -6.2820   -2.8210 c3        1 HS1      0.098700
     22 C1         -0.2300   -2.6100   -2.5320 ca        1 HS1      0.066500
     23 H2          0.2390   -4.5550   -3.3550 ha        1 HS1      0.185000
     24 H5         -3.2590   -1.6770   -1.2100 ha        1 HS1      0.177500
     25 H6         -1.2330    1.7400    0.8140 h1        1 HS1      0.074700
     26 HO4        -2.2290    3.2380    3.8410 ho        1 HS1      0.430000
     27 H11         1.8810   -0.0090    1.5670 h1        1 HS1      0.127700
     28 H11A        1.5030    0.8670    0.0200 h1        1 HS1      0.127700
     29 H8         -0.2000   -0.6180    2.5890 h1        1 HS1      0.075200
     30 H8A        -1.6770   -0.6650    1.5050 h1        1 HS1      0.075200
     31 HO6         0.3880    2.7380    2.2950 ho        1 HS1      0.452000
     32 H12        -1.3330    1.1210    3.8760 h1        1 HS1      0.044200
     33 H12A       -2.7580    1.2440    2.7240 h1        1 HS1      0.044200
     34 H7         -3.8100   -4.0040   -1.8340 ha        1 HS1      0.185000
     35 H10        -4.0810   -5.7130   -3.3930 h1        1 HS1      0.075033
     36 H10A       -3.1830   -7.3160   -3.2350 h1        1 HS1      0.075033
     37 H10B       -3.5470   -6.3120   -1.7310 h1        1 HS1      0.075033
     38 H1          0.7910   -2.2130   -2.7120 ha        1 HS1      0.177500
     39 H111        0.1990   -1.7000    0.5180 hn        1 HS1      0.400800
@<TRIPOS>BOND
     1    1   14 1   
     2    1   15 1   
     3    1   39 1   
     4    2    4 ar  
     5    2   22 ar  
     6    2   23 1   
     7    3   12 1   
     8    3   13 2   
     9    4    9 1   
    10    4   20 ar  
    11    5   19 ar  
    12    5   20 ar  
    13    5   24 1   
    14    6   15 1   
    15    6   16 1   
    16    6   17 1   
    17    6   25 1   
    18    7   18 1   
    19    8   18 1   
    20    9   21 1   
    21   10   17 1   
    22   10   26 1   
    23   11   12 2   
    24   12   14 1   
    25   14   27 1   
    26   14   28 1   
    27   15   29 1   
    28   15   30 1   
    29   16   31 1   
    30   17   32 1   
    31   17   33 1   
    32   18   19 1   
    33   19   22 ar  
    34   20   34 1   
    35   21   35 1   
    36   21   36 1   
    37   21   37 1   
    38   22   38 1   
@<TRIPOS>SUBSTRUCTURE
     1 HS1         1 TEMP              0 ****  ****    0 ROOT
