@<TRIPOS>MOLECULE
HS2
   46    47     1     0     0
SMALL
bcc


@<TRIPOS>ATOM
      1 O35         1.6050   -3.1840    2.0580 o         1 HS2     -0.816800
      2 C27         1.1220   -2.4680    1.1460 c         1 HS2      0.931800
      3 O34        -0.0650   -2.5520    0.7150 o         1 HS2     -0.816800
      4 C19         2.0470   -1.4130    0.5350 ce        1 HS2      0.052900
      5 C24         3.2810   -1.1070    0.9760 c2        1 HS2     -0.332200
      6 C17         4.1110   -0.1060    0.2630 c3        1 HS2      0.162300
      7 O25         5.1070    0.4900    1.0840 oh        1 HS2     -0.620800
      8 C12         3.2390    1.0150   -0.3370 c3        1 HS2      0.092100
      9 O18         3.9060    1.6330   -1.4310 oh        1 HS2     -0.608800
     10 C13         1.8890    0.5180   -0.8930 c3        1 HS2      0.344900
     11 O13         1.5330   -0.8210   -0.6050 os        1 HS2     -0.347900
     12 O3          0.9120    1.3230   -0.2500 os        1 HS2     -0.454600
     13 C1         -0.4190    1.2690   -0.7840 c3        1 HS2      0.132100
     14 C4         -1.0380   -0.0980   -0.4590 c3        1 HS2      0.117100
     15 O9         -0.7360   -0.9600   -1.5430 oh        1 HS2     -0.630800
     16 C3         -2.5790   -0.1050   -0.3190 c3        1 HS2      0.095700
     17 N14        -3.0030   -1.3330    0.3080 n         1 HS2     -0.542900
     18 C7         -4.3140   -1.7290    0.3520 c         1 HS2      0.658100
     19 C8         -4.6060   -3.0750    0.9730 c3        1 HS2     -0.170100
     20 O7         -5.2390   -1.0100   -0.0940 o         1 HS2     -0.669100
     21 C10        -3.1030    1.1660    0.3890 c3        1 HS2      0.312900
     22 O15        -2.7480    1.1750    1.7480 oh        1 HS2     -0.603800
     23 O5         -2.5510    2.3440   -0.1720 os        1 HS2     -0.472600
     24 C2         -1.1290    2.4380   -0.0850 c3        1 HS2      0.106100
     25 C6         -0.7670    3.7660   -0.7560 c3        1 HS2      0.136400
     26 O11        -1.3720    4.8640   -0.1040 oh        1 HS2     -0.610800
     27 H24         3.7100   -1.6200    1.8460 ha        1 HS2      0.165000
     28 H17         4.7020   -0.6000   -0.5640 h1        1 HS2      0.077700
     29 HO25        4.7130    0.6410    1.9520 ho        1 HS2      0.406000
     30 H12         3.0450    1.7930    0.4560 h1        1 HS2      0.062700
     31 HO18        4.8030    1.8180   -1.1250 ho        1 HS2      0.409000
     32 H13         1.8280    0.5990   -2.0150 h2        1 HS2      0.089700
     33 H1         -0.3870    1.4180   -1.8970 h1        1 HS2      0.056700
     34 H4         -0.5630   -0.4650    0.5010 h1        1 HS2      0.118700
     35 HO9        -0.3210   -1.7540   -1.1630 ho        1 HS2      0.461000
     36 H3         -3.0300   -0.0610   -1.3590 h1        1 HS2      0.073700
     37 HN14       -2.2790   -1.9210    0.6740 hn        1 HS2      0.366500
     38 H8         -4.2810   -3.0880    2.0420 hc        1 HS2      0.060700
     39 H8A        -5.7040   -3.2670    0.9200 hc        1 HS2      0.060700
     40 H8B        -4.0640   -3.8830    0.4240 hc        1 HS2      0.060700
     41 H10        -4.2170    1.2720    0.2370 h2        1 HS2      0.087700
     42 HO15       -3.1430    1.9650    2.1370 ho        1 HS2      0.400000
     43 H2         -0.8330    2.4550    1.0020 h1        1 HS2      0.079700
     44 H6          0.3390    3.9340   -0.6680 h1        1 HS2      0.053700
     45 H6A        -1.0730    3.7490   -1.8360 h1        1 HS2      0.053700
     46 HO11       -2.3160    4.6700   -0.0470 ho        1 HS2      0.408000
@<TRIPOS>BOND
     1    1    2 1   
     2    2    3 1   
     3    2    4 1   
     4    4    5 2   
     5    4   11 1   
     6    5    6 1   
     7    5   27 1   
     8    6    7 1   
     9    6    8 1   
    10    6   28 1   
    11    7   29 1   
    12    8    9 1   
    13    8   10 1   
    14    8   30 1   
    15    9   31 1   
    16   10   11 1   
    17   10   12 1   
    18   10   32 1   
    19   12   13 1   
    20   13   14 1   
    21   13   24 1   
    22   13   33 1   
    23   14   15 1   
    24   14   16 1   
    25   14   34 1   
    26   15   35 1   
    27   16   17 1   
    28   16   21 1   
    29   16   36 1   
    30   17   18 1   
    31   17   37 1   
    32   18   19 1   
    33   18   20 2   
    34   19   38 1   
    35   19   39 1   
    36   19   40 1   
    37   21   22 1   
    38   21   23 1   
    39   21   41 1   
    40   22   42 1   
    41   23   24 1   
    42   24   25 1   
    43   24   43 1   
    44   25   26 1   
    45   25   44 1   
    46   25   45 1   
    47   26   46 1   
@<TRIPOS>SUBSTRUCTURE
     1 HS2         1 TEMP              0 ****  ****    0 ROOT
