@<TRIPOS>MOLECULE
HS2
   46    46     1     0     0
SMALL
bcc


@<TRIPOS>ATOM
      1 O35        -2.1640    2.8950    4.0720 o         1 HS2     -0.545000
      2 C27        -0.9110    2.8060    3.9860 c2        1 HS2      0.390000
      3 O34        -0.2160    2.6880    5.0290 o         1 HS2     -0.545000
      4 C19        -0.2440    2.8090    2.6280 c2        1 HS2      0.019000
      5 C24         0.0290    4.2860    1.8120 c1        1 HS2     -0.347000
      6 C17         0.6200    4.1560    0.4900 c2        1 HS2      0.056000
      7 O25        -0.4070    4.1210   -0.5240 oh        1 HS2     -0.328000
      8 C12         1.6190    2.8590    0.3960 c3        1 HS2     -0.020000
      9 O18         2.8570    3.1580    1.2130 oh        1 HS2     -0.324000
     10 C13         1.1220    1.7580    0.8140 c3        1 HS2      0.106000
     11 O13         0.6100    1.7820    2.2760 os        1 HS2     -0.235000
     12 O3         -0.0230    1.3960   -0.0750 os        1 HS2     -0.315000
     13 C1          0.1320    0.0930   -0.5190 c3        1 HS2      0.000000
     14 C4         -0.9000   -0.8300    0.2390 c3        1 HS2     -0.012000
     15 O9         -0.7080   -0.8210    1.5080 oh        1 HS2     -0.347000
     16 C3         -0.4420   -2.1720   -0.4080 c3        1 HS2     -0.026000
     17 N14        -1.1830   -3.2140    0.1450 n         1 HS2     -0.355000
     18 C7         -0.5430   -4.4280    0.4990 c2        1 HS2      0.302000
     19 C8         -1.3500   -5.5670    1.0790 c3        1 HS2     -0.239000
     20 O7          0.6510   -4.5600    0.3190 o         1 HS2     -0.412000
     21 C10        -0.6300   -2.1880   -1.9500 c3        1 HS2      0.142000
     22 O15        -1.8500   -2.9430   -2.2780 oh        1 HS2     -0.334000
     23 O5         -0.7350   -1.0090   -2.4120 os        1 HS2     -0.312000
     24 C2         -0.0550    0.0630   -2.0340 c3        1 HS2     -0.007000
     25 C6          1.3500    0.0450   -2.7220 c3        1 HS2     -0.036000
     26 O11         1.1900   -0.1130   -4.1140 oh        1 HS2     -0.337000
     27 H24        -0.5090    5.0720    2.0320 ha        1 HS2      0.156000
     28 H17         1.1000    4.9700    0.2400 h4        1 HS2      0.117000
     29 HO25       -0.6490    4.9520   -0.7300 ho        1 HS2      0.211000
     30 H12         1.8850    2.7420   -0.5380 h1        1 HS2      0.134000
     31 HO18        3.4800    3.5150    0.6880 ho        1 HS2      0.216000
     32 H13         1.8050    1.0630    0.7390 h2        1 HS2      0.118000
     33 H1          1.0380   -0.2060   -0.3070 h1        1 HS2      0.114000
     34 H4         -1.8230   -0.6110    0.0030 h1        1 HS2      0.157000
     35 HO9        -1.4940   -0.8190    1.9270 ho        1 HS2      0.256000
     36 H3          0.5040   -2.3140   -0.2040 h1        1 HS2      0.122000
     37 HN14       -2.0840   -3.1260    0.2530 hn        1 HS2      0.272000
     38 H8         -1.6780   -5.3150    1.9670 hc        1 HS2      0.101333
     39 H8A        -2.1110   -5.7600    0.4920 hc        1 HS2      0.101333
     40 H8B        -0.7850   -6.3630    1.1530 hc        1 HS2      0.101333
     41 H10         0.1410   -2.6270   -2.3630 h2        1 HS2      0.151000
     42 HO15       -1.7620   -3.3160   -3.0810 ho        1 HS2      0.216000
     43 H2         -0.5390    0.8650   -2.3140 h1        1 HS2      0.122000
     44 H6          1.8780   -0.7000   -2.3670 h1        1 HS2      0.090000
     45 H6A         1.8130    0.8890   -2.5400 h1        1 HS2      0.090000
     46 HO11        1.9710    0.0180   -4.5190 ho        1 HS2      0.216000
@<TRIPOS>BOND
     1    1    2 1   
     2    2    3 1   
     3    2    4 1   
     4    4    5 1   
     5    4   11 1   
     6    5   27 1   
     7    6    7 1   
     8    6    8 1   
     9    6   28 1   
    10    7   29 1   
    11    8    9 1   
    12    8   10 1   
    13    8   30 1   
    14    9   31 1   
    15   10   11 1   
    16   10   12 1   
    17   10   32 1   
    18   12   13 1   
    19   13   14 1   
    20   13   24 1   
    21   13   33 1   
    22   14   15 1   
    23   14   16 1   
    24   14   34 1   
    25   15   35 1   
    26   16   17 1   
    27   16   21 1   
    28   16   36 1   
    29   17   18 1   
    30   17   37 1   
    31   18   19 1   
    32   18   20 1   
    33   19   38 1   
    34   19   39 1   
    35   19   40 1   
    36   21   22 1   
    37   21   23 1   
    38   21   41 1   
    39   22   42 1   
    40   23   24 1   
    41   24   25 1   
    42   24   43 1   
    43   25   26 1   
    44   25   44 1   
    45   25   45 1   
    46   26   46 1   
@<TRIPOS>SUBSTRUCTURE
     1 HS2         1 TEMP              0 ****  ****    0 ROOT
