@<TRIPOS>MOLECULE
HS3
   32    31     1     0     0
SMALL
bcc


@<TRIPOS>ATOM
      1 O3          0.4760    2.1580    0.5580 o         1 HS3     -0.473100
      2 C8          0.7120    1.0360    0.1060 c         1 HS3      0.510500
      3 N1          0.1850    0.5800   -1.2130 ne        1 HS3      0.021900
      4 O6          0.7610    0.8200   -2.1740 o         1 HS3     -0.036300
      5 C9          1.4290   -0.0310    0.9520 c3        1 HS3      0.020500
      6 C7          2.8950   -0.1340    0.4560 c3        1 HS3      0.112400
      7 O4          3.7150    0.8450    1.0530 oh        1 HS3     -0.611800
      8 N2          1.3360    0.2400    2.3900 n8        1 HS3     -0.986800
      9 S1          2.1800   -1.3700    3.7710 s4        1 HS3      1.683300
     10 O1          0.9730   -1.6960    4.3130 o         1 HS3     -0.451400
     11 O2          2.7440   -2.1110    2.7760 o         1 HS3     -0.451400
     12 C3          3.0890   -0.4020    4.5720 ca        1 HS3     -0.668500
     13 C6          2.7100    0.0640    5.8670 ca        1 HS3      0.064500
     14 C5          3.5250    0.8680    6.6200 ca        1 HS3     -0.216500
     15 C4          4.7910    1.2640    6.1000 ca        1 HS3      0.286100
     16 C2          5.1870    0.8390    4.8100 ca        1 HS3     -0.216500
     17 C1          4.3490    0.0330    4.0740 ca        1 HS3      0.064500
     18 O5          5.5280    2.0460    6.9160 os        1 HS3     -0.276900
     19 C10         6.8210    2.4700    6.4570 c3        1 HS3      0.099700
     20 H9          0.9370   -1.0360    0.7690 h1        1 HS3      0.121700
     21 H7          2.9100   -0.0690   -0.6640 h1        1 HS3      0.093700
     22 H7A         3.3320   -1.1220    0.7780 h1        1 HS3      0.093700
     23 HO4         3.6630    1.6510    0.5240 ho        1 HS3      0.430000
     24 HN2         1.8480    1.0900    2.5920 hn        1 HS3      0.417800
     25 H6          1.7270   -0.2480    6.2740 ha        1 HS3      0.176000
     26 H5          3.2290    1.2160    7.6240 ha        1 HS3      0.185500
     27 H2          6.1590    1.1520    4.3940 ha        1 HS3      0.185500
     28 H1          4.6530   -0.2810    3.0540 ha        1 HS3      0.176000
     29 H10         7.1980    3.0790    7.3210 h1        1 HS3      0.076367
     30 H10A        6.7160    3.0970    5.5400 h1        1 HS3      0.076367
     31 H10B        7.4740    1.5840    6.2750 h1        1 HS3      0.076367
     32 H22         0.3680    0.3890    2.6390 hn        1 HS3      0.417800
@<TRIPOS>BOND
     1    1    2 2   
     2    2    3 1   
     3    2    5 1   
     4    3    4 2   
     5    5    6 1   
     6    5    8 1   
     7    5   20 1   
     8    6    7 1   
     9    6   21 1   
    10    6   22 1   
    11    7   23 1   
    12    8   24 1   
    13    8   32 1   
    14    9   10 1   
    15    9   11 1   
    16    9   12 1   
    17   12   13 ar  
    18   12   17 ar  
    19   13   14 ar  
    20   13   25 1   
    21   14   15 ar  
    22   14   26 1   
    23   15   16 ar  
    24   15   18 1   
    25   16   17 ar  
    26   16   27 1   
    27   17   28 1   
    28   18   19 1   
    29   19   29 1   
    30   19   30 1   
    31   19   31 1   
@<TRIPOS>SUBSTRUCTURE
     1 HS3         1 TEMP              0 ****  ****    0 ROOT
