@<TRIPOS>MOLECULE
HS3
   31    31     1     0     0
SMALL
bcc


@<TRIPOS>ATOM
      1 O3          3.8140   -0.6840   -1.3200 o         1 HS3     -0.470100
      2 C8          3.5420    0.0470   -0.3680 c         1 HS3      0.550500
      3 N1          4.6180    0.6120    0.4950 ne        1 HS3     -0.020100
      4 O6          5.1480    1.5870    0.1940 o         1 HS3     -0.081300
      5 C9          2.1040    0.3390    0.1090 c3        1 HS3      0.178500
      6 C7          1.7970    1.8140   -0.2500 c3        1 HS3      0.112400
      7 O4          1.8870    1.9450   -1.6560 oh        1 HS3     -0.594800
      8 N2          1.1550   -0.5900   -0.4190 n3        1 HS3     -0.901100
      9 S1          0.1410   -1.5050    0.4640 sy        1 HS3      1.527200
     10 O1          0.0810   -2.7950   -0.0940 o         1 HS3     -0.652300
     11 O2          0.4990   -1.3970    1.8280 o         1 HS3     -0.652300
     12 C3         -1.3420   -0.7540    0.2330 ca        1 HS3     -0.432500
     13 C6         -2.1030   -1.0150   -0.9190 ca        1 HS3      0.018500
     14 C5         -3.3420   -0.4280   -1.1150 ca        1 HS3     -0.211000
     15 C4         -3.8490    0.4450   -0.1300 ca        1 HS3      0.192100
     16 C2         -3.1120    0.7130    1.0330 ca        1 HS3     -0.211000
     17 C1         -1.8710    0.1100    1.1990 ca        1 HS3      0.018500
     18 O5         -5.0810    0.9840   -0.4130 os        1 HS3     -0.317900
     19 C10        -5.6470    1.8370    0.5790 c3        1 HS3      0.109700
     20 H9          2.0840    0.2600    1.2430 h1        1 HS3      0.109700
     21 H7          0.7670    2.0870    0.1040 h1        1 HS3      0.038700
     22 H7A         2.5480    2.4820    0.2510 h1        1 HS3      0.038700
     23 HO4         1.6420    2.8530   -1.8680 ho        1 HS3      0.412000
     24 HN2         1.1990   -0.6570   -1.4110 hn        1 HS3      0.466800
     25 H6         -1.7090   -1.7200   -1.6740 ha        1 HS3      0.154500
     26 H5         -3.9380   -0.6340   -2.0160 ha        1 HS3      0.153000
     27 H2         -3.5050    1.3820    1.8110 ha        1 HS3      0.153000
     28 H1         -1.2930    0.3020    2.1220 ha        1 HS3      0.154500
     29 H10        -5.7900    1.2830    1.5390 h1        1 HS3      0.051367
     30 H10A       -5.0060    2.7370    0.7340 h1        1 HS3      0.051367
     31 H10B       -6.6350    2.1240    0.1360 h1        1 HS3      0.051367
@<TRIPOS>BOND
     1    1    2 2   
     2    2    3 1   
     3    2    5 1   
     4    3    4 2   
     5    5    6 1   
     6    5    8 1   
     7    5   20 1   
     8    6    7 1   
     9    6   21 1   
    10    6   22 1   
    11    7   23 1   
    12    8    9 1   
    13    8   24 1   
    14    9   10 2   
    15    9   11 2   
    16    9   12 1   
    17   12   13 ar  
    18   12   17 ar  
    19   13   14 ar  
    20   13   25 1   
    21   14   15 ar  
    22   14   26 1   
    23   15   16 ar  
    24   15   18 1   
    25   16   17 ar  
    26   16   27 1   
    27   17   28 1   
    28   18   19 1   
    29   19   29 1   
    30   19   30 1   
    31   19   31 1   
@<TRIPOS>SUBSTRUCTURE
     1 HS3         1 TEMP              0 ****  ****    0 ROOT
