@<TRIPOS>MOLECULE
HS3
   31    27     1     0     0
SMALL
bcc


@<TRIPOS>ATOM
      1 O3          1.6690    4.8250   -0.5800 o         1 HS3     -0.250000
      2 C8          1.4490    3.6320   -0.7920 c1        1 HS3      0.116000
      3 N1          2.5320    2.7060   -0.8390 n1        1 HS3      0.181000
      4 O6          3.6590    3.0860   -0.6490 o         1 HS3     -0.122000
      5 C9          0.0300    3.1410   -0.9300 c3        1 HS3      0.027000
      6 C7         -0.4090    3.2770   -2.3500 c3        1 HS3     -0.038000
      7 O4          0.5350    2.6550   -3.1930 oh        1 HS3     -0.340000
      8 N2         -0.0410    1.7420   -0.5310 n3        1 HS3     -0.876000
      9 S1         -0.6850    1.3320    0.9320 s4        1 HS3      2.087800
     10 O1         -1.9930    1.8290    1.0720 o         1 HS3     -0.541900
     11 O2         -0.0170    2.0060    1.9950 o         1 HS3     -0.541900
     12 C3         -0.6350   -0.4290    1.1580 c1        1 HS3     -0.883000
     13 C6         -1.6850   -1.2240    0.7050 c2        1 HS3      0.017000
     14 C5         -1.6170   -2.6160    0.8480 c1        1 HS3     -0.187000
     15 C4         -0.5020   -3.2010    1.4410 c1        1 HS3      0.150000
     16 C2          0.5500   -2.3980    1.8940 c1        1 HS3     -0.236000
     17 C1          0.4830   -1.0200    1.7530 c1        1 HS3      0.026000
     18 O5         -0.4690   -4.6330    1.6690 os        1 HS3     -0.201000
     19 C10         0.1700   -5.3810    0.6090 c3        1 HS3     -0.080000
     20 H9         -0.5450    3.6650   -0.3680 h1        1 HS3      0.156000
     21 H7         -1.2550    2.8600   -2.4610 h1        1 HS3      0.086000
     22 H7A        -0.4790    4.2210   -2.5790 h1        1 HS3      0.086000
     23 HO4         0.2580    2.7160   -4.0560 ho        1 HS3      0.217000
     24 HN2         0.2990    1.1040   -1.0670 hn        1 HS3      0.253000
     25 H6         -2.4900   -0.7990    0.2780 ha        1 HS3      0.155000
     26 H5         -2.3620   -3.1830    0.5270 ha        1 HS3      0.160000
     27 H2          1.3640   -2.8240    2.3280 ha        1 HS3      0.149000
     28 H1          1.2510   -0.4360    2.0840 ha        1 HS3      0.158000
     29 H10         1.0700   -5.0220    0.4530 h1        1 HS3      0.092000
     30 H10A       -0.3690   -5.3020   -0.2240 h1        1 HS3      0.092000
     31 H10B        0.2350   -6.3300    0.8710 h1        1 HS3      0.092000
@<TRIPOS>BOND
     1    1    2 1   
     2    2    5 1   
     3    3    4 1   
     4    5    6 1   
     5    5    8 1   
     6    5   20 1   
     7    6    7 1   
     8    6   21 1   
     9    6   22 1   
    10    7   23 1   
    11    8    9 1   
    12    8   24 1   
    13    9   10 1   
    14    9   11 1   
    15   12   13 1   
    16   12   17 1   
    17   13   14 1   
    18   13   25 1   
    19   14   26 1   
    20   15   16 1   
    21   15   18 1   
    22   16   27 1   
    23   17   28 1   
    24   18   19 1   
    25   19   29 1   
    26   19   30 1   
    27   19   31 1   
@<TRIPOS>SUBSTRUCTURE
     1 HS3         1 TEMP              0 ****  ****    0 ROOT
