@<TRIPOS>MOLECULE
HS3
   32    32     1     0     0
SMALL
bcc


@<TRIPOS>ATOM
      1 O3          0.1670    1.9920    0.5710 o         1 HS3     -0.469100
      2 C8          0.5780    0.9290    0.1000 c         1 HS3      0.518500
      3 N1          0.3180    0.5180   -1.3150 ne        1 HS3      0.013900
      4 O6         -0.7210    0.1470   -1.6180 o         1 HS3     -0.009300
      5 C9          1.5280    0.0200    0.8930 c3        1 HS3      0.013500
      6 C7          2.9340   -0.0070    0.2330 c3        1 HS3      0.116400
      7 O4          3.6600    1.1510    0.5680 oh        1 HS3     -0.605800
      8 N2          1.6060    0.4170    2.3210 n4        1 HS3     -0.680900
      9 S1          2.1140   -1.0360    3.5560 sy        1 HS3      1.513200
     10 O1          0.8690   -1.3150    4.0750 o         1 HS3     -0.581300
     11 O2          2.7250   -1.9060    2.6770 o         1 HS3     -0.581300
     12 C3          3.0730   -0.1880    4.4760 ca        1 HS3     -0.626500
     13 C6          2.5980    0.4060    5.6800 ca        1 HS3      0.055000
     14 C5          3.4290    1.0910    6.5310 ca        1 HS3     -0.213000
     15 C4          4.8090    1.2140    6.2100 ca        1 HS3      0.275100
     16 C2          5.3110    0.6360    5.0210 ca        1 HS3     -0.213000
     17 C1          4.4540   -0.0450    4.1850 ca        1 HS3      0.055000
     18 O5          5.5500    1.9020    7.1070 os        1 HS3     -0.280900
     19 C10         6.9550    2.0420    6.8510 c3        1 HS3      0.099700
     20 H9          1.1140   -1.0350    0.8590 hx        1 HS3      0.127700
     21 H7          2.8300   -0.1490   -0.8730 h1        1 HS3      0.101700
     22 H7A         3.5210   -0.8700    0.6640 h1        1 HS3      0.101700
     23 HO4         3.5360    1.8070   -0.1320 ho        1 HS3      0.436000
     24 HN2         0.6990    0.7900    2.6030 hn        1 HS3      0.452800
     25 H6          1.5270    0.2930    5.9410 ha        1 HS3      0.169000
     26 H5          3.0560    1.5440    7.4650 ha        1 HS3      0.183500
     27 H2          6.3790    0.7230    4.7660 ha        1 HS3      0.183500
     28 H1          4.8520   -0.5060    3.2600 ha        1 HS3      0.169000
     29 H10         7.4420    1.0380    6.8160 h1        1 HS3      0.074033
     30 H10A        7.3070    2.6300    7.7390 h1        1 HS3      0.074033
     31 H10B        7.1190    2.6090    5.9040 h1        1 HS3      0.074033
     32 H22         2.2810    1.1810    2.3930 hn        1 HS3      0.452800
@<TRIPOS>BOND
     1    1    2 2   
     2    2    3 1   
     3    2    5 1   
     4    3    4 2   
     5    5    6 1   
     6    5    8 1   
     7    5   20 1   
     8    6    7 1   
     9    6   21 1   
    10    6   22 1   
    11    7   23 1   
    12    8    9 1   
    13    8   24 1   
    14    8   32 1   
    15    9   10 2   
    16    9   11 2   
    17    9   12 1   
    18   12   13 ar  
    19   12   17 ar  
    20   13   14 ar  
    21   13   25 1   
    22   14   15 ar  
    23   14   26 1   
    24   15   16 ar  
    25   15   18 1   
    26   16   17 ar  
    27   16   27 1   
    28   17   28 1   
    29   18   19 1   
    30   19   29 1   
    31   19   30 1   
    32   19   31 1   
@<TRIPOS>SUBSTRUCTURE
     1 HS3         1 TEMP              0 ****  ****    0 ROOT
