@<TRIPOS>MOLECULE
HS3
   32    31     1     0     0
SMALL
bcc


@<TRIPOS>ATOM
      1 O3          0.5250    2.3050    0.5980 o         1 HS3     -0.473100
      2 C8          0.6920    1.1710    0.1450 c         1 HS3      0.510500
      3 N1          0.1210    0.7440   -1.1650 ne        1 HS3      0.021900
      4 O6          0.6940    0.9500   -2.1360 o         1 HS3     -0.036300
      5 C9          1.3630    0.0670    0.9810 c3        1 HS3      0.020500
      6 C7          2.8140   -0.1160    0.4630 c3        1 HS3      0.112400
      7 O4          3.6950    0.8160    1.0460 oh        1 HS3     -0.611800
      8 N2          1.3080    0.3440    2.4200 n3        1 HS3     -0.986800
      9 S1          2.0830   -1.3090    3.7900 s4        1 HS3      1.683300
     10 O1          0.8690   -1.5680    4.3510 o         1 HS3     -0.451400
     11 O2          2.5910   -2.0800    2.7880 o         1 HS3     -0.451400
     12 C3          3.0560   -0.3920    4.5760 ca        1 HS3     -0.668500
     13 C6          2.7230    0.0960    5.8760 ca        1 HS3      0.064500
     14 C5          3.5920    0.8550    6.6150 ca        1 HS3     -0.216500
     15 C4          4.8700    1.1800    6.0750 ca        1 HS3      0.286100
     16 C2          5.2230    0.7330    4.7800 ca        1 HS3     -0.216500
     17 C1          4.3310   -0.0260    4.0590 ca        1 HS3      0.064500
     18 O5          5.6610    1.9220    6.8780 os        1 HS3     -0.276900
     19 C10         6.9680    2.2740    6.3990 c3        1 HS3      0.099700
     20 H9          0.8140   -0.9090    0.8080 h1        1 HS3      0.121700
     21 H7          2.8150   -0.0530   -0.6570 h1        1 HS3      0.093700
     22 H7A         3.2000   -1.1270    0.7800 h1        1 HS3      0.093700
     23 HO4         3.6790    1.6240    0.5160 ho        1 HS3      0.430000
     24 HN2         0.3520    0.5460    2.6830 hn        1 HS3      0.417800
     25 H6          1.7310   -0.1610    6.2990 ha        1 HS3      0.176000
     26 H5          3.3310    1.2200    7.6220 ha        1 HS3      0.185500
     27 H2          6.2030    0.9920    4.3490 ha        1 HS3      0.185500
     28 H1          4.6010   -0.3570    3.0340 ha        1 HS3      0.176000
     29 H10         6.8840    2.9050    5.4820 h1        1 HS3      0.076367
     30 H10A        7.5690    1.3530    6.2090 h1        1 HS3      0.076367
     31 H10B        7.3910    2.8610    7.2560 h1        1 HS3      0.076367
     32 H22         1.8680    1.1640    2.6130 hn        1 HS3      0.417800
@<TRIPOS>BOND
     1    1    2 2   
     2    2    3 1   
     3    2    5 1   
     4    3    4 2   
     5    5    6 1   
     6    5    8 1   
     7    5   20 1   
     8    6    7 1   
     9    6   21 1   
    10    6   22 1   
    11    7   23 1   
    12    8   24 1   
    13    8   32 1   
    14    9   10 1   
    15    9   11 1   
    16    9   12 1   
    17   12   13 ar  
    18   12   17 ar  
    19   13   14 ar  
    20   13   25 1   
    21   14   15 ar  
    22   14   26 1   
    23   15   16 ar  
    24   15   18 1   
    25   16   17 ar  
    26   16   27 1   
    27   17   28 1   
    28   18   19 1   
    29   19   29 1   
    30   19   30 1   
    31   19   31 1   
@<TRIPOS>SUBSTRUCTURE
     1 HS3         1 TEMP              0 ****  ****    0 ROOT
