@<TRIPOS>MOLECULE
HS4
   33    34     1     0     0
SMALL
bcc


@<TRIPOS>ATOM
      1 O4         -1.8840   -2.6080    0.8340 o         1 HS4     -0.650300
      2 S1         -1.7480   -1.5440   -0.0780 sy        1 HS4      1.522200
      3 O3         -2.1150   -1.7780   -1.4210 o         1 HS4     -0.650300
      4 N1         -2.5830   -0.2670    0.4870 n3        1 HS4     -0.911100
      5 C12        -3.2650    0.6790   -0.3310 c3        1 HS4      0.156800
      6 C14        -4.6140    1.1270    0.2320 c         1 HS4      0.539500
      7 O1         -4.9490    0.9690    1.4080 o         1 HS4     -0.487100
      8 N2         -5.5650    1.6900   -0.7690 ne        1 HS4     -0.011100
      9 O2         -5.6960    2.8290   -0.8600 o         1 HS4     -0.076300
     10 C13        -0.1560   -0.9990   -0.0340 ca        1 HS4     -0.393500
     11 C10         0.6050   -1.1100    1.1360 ca        1 HS4     -0.014000
     12 C5          1.9290   -0.6870    1.1750 ca        1 HS4     -0.150500
     13 C11         0.4520   -0.4600   -1.1740 ca        1 HS4     -0.014000
     14 C8          1.7740   -0.0320   -1.1480 ca        1 HS4     -0.150500
     15 C2          2.5290   -0.1380    0.0310 cp        1 HS4      0.039000
     16 C1          3.9190    0.3110    0.0660 cp        1 HS4     -0.063000
     17 C4          4.3000    1.4880   -0.5950 ca        1 HS4     -0.109000
     18 C7          5.6260    1.9150   -0.5580 ca        1 HS4     -0.131000
     19 C9          6.5840    1.1720    0.1320 ca        1 HS4     -0.116000
     20 C6          6.2120   -0.0020    0.7880 ca        1 HS4     -0.131000
     21 C3          4.8870   -0.4310    0.7590 ca        1 HS4     -0.109000
     22 HN1        -2.7110   -0.1180    1.4630 hn        1 HS4      0.462800
     23 H12        -2.6530    1.6260   -0.4370 h1        1 HS4      0.083200
     24 H12A       -3.4160    0.2360   -1.3620 h1        1 HS4      0.083200
     25 H10         0.1480   -1.5590    2.0370 ha        1 HS4      0.153500
     26 H5          2.5090   -0.7790    2.1060 ha        1 HS4      0.146000
     27 H11        -0.1260   -0.3940   -2.1130 ha        1 HS4      0.153500
     28 H8          2.2380    0.3800   -2.0570 ha        1 HS4      0.146000
     29 H4          3.5470    2.0800   -1.1360 ha        1 HS4      0.137000
     30 H7          5.9160    2.8420   -1.0750 ha        1 HS4      0.136500
     31 H9          7.6300    1.5100    0.1570 ha        1 HS4      0.136000
     32 H6          6.9660   -0.5920    1.3290 ha        1 HS4      0.136500
     33 H3          4.5990   -1.3610    1.2730 ha        1 HS4      0.137000
@<TRIPOS>BOND
     1    1    2 2   
     2    2    3 2   
     3    2    4 1   
     4    2   10 1   
     5    4    5 1   
     6    4   22 1   
     7    5    6 1   
     8    5   23 1   
     9    5   24 1   
    10    6    7 2   
    11    6    8 1   
    12    8    9 2   
    13   10   11 ar  
    14   10   13 ar  
    15   11   12 ar  
    16   11   25 1   
    17   12   15 ar  
    18   12   26 1   
    19   13   14 ar  
    20   13   27 1   
    21   14   15 ar  
    22   14   28 1   
    23   15   16 1   
    24   16   17 ar  
    25   16   21 ar  
    26   17   18 ar  
    27   17   29 1   
    28   18   19 ar  
    29   18   30 1   
    30   19   20 ar  
    31   19   31 1   
    32   20   21 ar  
    33   20   32 1   
    34   21   33 1   
@<TRIPOS>SUBSTRUCTURE
     1 HS4         1 TEMP              0 ****  ****    0 ROOT
