@<TRIPOS>MOLECULE
HS4
   33    26     1     0     0
SMALL
bcc


@<TRIPOS>ATOM
      1 O4         -1.7340   -1.8440    2.6820 o         1 HS4     -0.929500
      2 S1         -0.7890   -2.1990    1.7190 ss        1 HS4      2.859000
      3 O3          0.1990   -2.8240    2.5250 o         1 HS4     -0.929500
      4 N1         -1.4250   -3.2550    0.6080 n2        1 HS4     -0.876000
      5 C12        -1.7450   -4.6260    1.0010 c3        1 HS4     -0.027000
      6 C14        -3.2160   -4.9360    0.6410 c2        1 HS4      0.102000
      7 O1         -3.4980   -5.1960   -0.4340 o         1 HS4     -0.250000
      8 N2         -4.2120   -4.8950    1.6430 n2        1 HS4      0.166000
      9 O2         -5.3370   -4.8740    1.3440 o         1 HS4     -0.120000
     10 C13        -0.1370   -0.7840    0.9000 c1        1 HS4     -0.846000
     11 C10        -0.9690    0.1510    0.3940 c2        1 HS4     -0.014000
     12 C5         -0.4440    1.3140   -0.1820 c1        1 HS4     -0.150000
     13 C11         1.2370   -0.5870    0.8470 c1        1 HS4     -0.011000
     14 C8          1.7520    0.5670    0.2750 c1        1 HS4     -0.128500
     15 C2          0.9180    1.5040   -0.2320 c1        1 HS4     -0.011000
     16 C1          1.4530    2.6740   -0.8550 c1        1 HS4     -0.011000
     17 C4          1.6830    2.6870   -2.2100 c1        1 HS4     -0.121500
     18 C7          2.1860    3.8480   -2.8280 c1        1 HS4     -0.121500
     19 C9          2.4460    4.9640   -2.0770 c1        1 HS4     -0.121500
     20 C6          2.2150    4.9500   -0.7170 c1        1 HS4     -0.121500
     21 C3          1.7150    3.7930   -0.1040 c1        1 HS4     -0.128500
     22 HN1        -1.6180   -2.9610   -0.2530 hn        1 HS4      0.254000
     23 H12        -1.1670   -5.2360    0.5330 h1        1 HS4      0.129000
     24 H12A       -1.6230   -4.7230    1.9150 h1        1 HS4      0.129000
     25 H10        -1.9450    0.0130    0.4280 ha        1 HS4      0.153000
     26 H5         -1.0610    2.0120   -0.5590 ha        1 HS4      0.146000
     27 H11         1.8270   -1.2440    1.2020 ha        1 HS4      0.151000
     28 H8          2.6900    0.6970    0.2400 ha        1 HS4      0.142000
     29 H4          1.4980    1.8850   -2.7450 ha        1 HS4      0.136250
     30 H7          2.3580    3.8600   -3.8320 ha        1 HS4      0.136250
     31 H9          2.7900    5.7590   -2.5010 ha        1 HS4      0.136250
     32 H6          2.3960    5.7240   -0.1980 ha        1 HS4      0.136250
     33 H3          1.5550    3.7830    0.8310 ha        1 HS4      0.142000
@<TRIPOS>BOND
     1    1    2 1   
     2    2    3 1   
     3    4    5 1   
     4    4   22 1   
     5    5    6 1   
     6    5   23 1   
     7    5   24 1   
     8    6    7 1   
     9    6    8 1   
    10    8    9 1   
    11   10   11 1   
    12   10   13 1   
    13   11   12 1   
    14   11   25 1   
    15   12   26 1   
    16   13   27 1   
    17   14   15 1   
    18   14   28 1   
    19   16   21 1   
    20   17   18 1   
    21   17   29 1   
    22   18   30 1   
    23   19   20 1   
    24   19   31 1   
    25   20   32 1   
    26   21   33 1   
@<TRIPOS>SUBSTRUCTURE
     1 HS4         1 TEMP              0 ****  ****    0 ROOT
