@<TRIPOS>MOLECULE
HS4
   34    34     1     0     0
SMALL
bcc


@<TRIPOS>ATOM
      1 O4          0.5270    0.0840    0.5310 o         1 HS4     -0.445400
      2 S1          1.8390    0.3800    0.3160 s4        1 HS4      1.671300
      3 O3          2.8360   -0.0760    1.1250 o         1 HS4     -0.445400
      4 N1          2.1110   -1.2290   -1.2780 n3        1 HS4     -0.997800
      5 C12         2.8830   -2.3770   -0.8160 c3        1 HS4      0.029800
      6 C14         3.6070   -3.1340   -1.9280 c         1 HS4      0.523500
      7 O1          3.6490   -2.6980   -3.0810 o         1 HS4     -0.484100
      8 N2          4.4070   -4.3130   -1.4820 ne        1 HS4      0.016900
      9 O2          4.0550   -5.3730   -1.7320 o         1 HS4     -0.025300
     10 C13         2.1640    1.5710   -0.6310 ca        1 HS4     -0.637500
     11 C10         1.1460    2.2440   -1.3600 ca        1 HS4      0.032500
     12 C5          1.4250    3.3230   -2.1710 ca        1 HS4     -0.165500
     13 C11         3.4880    2.0700   -0.7770 ca        1 HS4      0.032500
     14 C8          3.7720    3.1490   -1.5840 ca        1 HS4     -0.165500
     15 C2          2.7480    3.8050   -2.3040 cp        1 HS4      0.164000
     16 C1          3.0440    4.9430   -3.1540 cp        1 HS4     -0.127000
     17 C4          4.0920    5.8220   -2.8280 ca        1 HS4     -0.079500
     18 C7          4.3690    6.9160   -3.6420 ca        1 HS4     -0.130000
     19 C9          3.6150    7.1430   -4.7950 ca        1 HS4     -0.069000
     20 C6          2.5760    6.2720   -5.1290 ca        1 HS4     -0.130000
     21 C3          2.2860    5.1830   -4.3140 ca        1 HS4     -0.079500
     22 HN1         2.5680   -0.8120   -2.0790 hn        1 HS4      0.416300
     23 H12         3.6630   -2.0060   -0.0820 h1        1 HS4      0.119200
     24 H12A        2.2030   -3.0920   -0.2700 h1        1 HS4      0.119200
     25 H10         0.1000    1.8960   -1.2560 ha        1 HS4      0.167500
     26 H5          0.6060    3.8310   -2.7080 ha        1 HS4      0.178000
     27 H11         4.3060    1.5750   -0.2180 ha        1 HS4      0.167500
     28 H8          4.8140    3.5020   -1.6800 ha        1 HS4      0.178000
     29 H4          4.6860    5.6620   -1.9140 ha        1 HS4      0.140000
     30 H7          5.1860    7.6050   -3.3740 ha        1 HS4      0.156500
     31 H9          3.8400    8.0080   -5.4400 ha        1 HS4      0.158000
     32 H6          1.9830    6.4480   -6.0410 ha        1 HS4      0.156500
     33 H3          1.4710    4.4970   -4.5950 ha        1 HS4      0.140000
     34 H121        1.1920   -1.5280   -1.5710 hn        1 HS4      0.416300
@<TRIPOS>BOND
     1    1    2 1   
     2    2    3 1   
     3    2   10 1   
     4    4    5 1   
     5    4   22 1   
     6    4   34 1   
     7    5    6 1   
     8    5   23 1   
     9    5   24 1   
    10    6    7 2   
    11    6    8 1   
    12    8    9 2   
    13   10   11 ar  
    14   10   13 ar  
    15   11   12 ar  
    16   11   25 1   
    17   12   15 ar  
    18   12   26 1   
    19   13   14 ar  
    20   13   27 1   
    21   14   15 ar  
    22   14   28 1   
    23   15   16 1   
    24   16   17 ar  
    25   16   21 ar  
    26   17   18 ar  
    27   17   29 1   
    28   18   19 ar  
    29   18   30 1   
    30   19   20 ar  
    31   19   31 1   
    32   20   21 ar  
    33   20   32 1   
    34   21   33 1   
@<TRIPOS>SUBSTRUCTURE
     1 HS4         1 TEMP              0 ****  ****    0 ROOT
