@<TRIPOS>MOLECULE
HS4
   34    34     1     0     0
SMALL
bcc


@<TRIPOS>ATOM
      1 O4          0.5830    0.1500    0.6410 o         1 HS4     -0.445400
      2 S1          1.8910    0.4140    0.3640 s4        1 HS4      1.671300
      3 O3          2.9130   -0.0550    1.1340 o         1 HS4     -0.445400
      4 N1          2.0600   -1.2140   -1.2210 n8        1 HS4     -0.997800
      5 C12         2.7980   -2.3880   -0.7670 c3        1 HS4      0.028800
      6 C14         3.4800   -3.1720   -1.8860 c         1 HS4      0.523500
      7 O1          3.5320   -2.7340   -3.0380 o         1 HS4     -0.484100
      8 N2          3.9350   -4.5480   -1.5240 ne        1 HS4      0.017900
      9 O2          5.0520   -4.7700   -1.4070 o         1 HS4     -0.027300
     10 C13         2.1990    1.5890   -0.6080 ca        1 HS4     -0.637500
     11 C10         1.1630    2.2770   -1.3000 ca        1 HS4      0.032500
     12 C5          1.4290    3.3410   -2.1330 ca        1 HS4     -0.165000
     13 C11         3.5250    2.0580   -0.8180 ca        1 HS4      0.032500
     14 C8          3.7960    3.1240   -1.6480 ca        1 HS4     -0.165000
     15 C2          2.7540    3.7940   -2.3290 cp        1 HS4      0.164000
     16 C1          3.0370    4.9160   -3.2030 cp        1 HS4     -0.127000
     17 C4          4.1160    5.7760   -2.9330 ca        1 HS4     -0.079500
     18 C7          4.3800    6.8570   -3.7700 ca        1 HS4     -0.130000
     19 C9          3.5810    7.0880   -4.8910 ca        1 HS4     -0.069000
     20 C6          2.5100    6.2360   -5.1710 ca        1 HS4     -0.130000
     21 C3          2.2330    5.1610   -4.3320 ca        1 HS4     -0.079500
     22 HN1         2.5140   -0.8210   -2.0370 hn        1 HS4      0.416800
     23 H12         3.6060   -2.0440   -0.0520 h1        1 HS4      0.119700
     24 H12A        2.0990   -3.0720   -0.2020 h1        1 HS4      0.119700
     25 H10         0.1160    1.9520   -1.1460 ha        1 HS4      0.167500
     26 H5          0.5980    3.8610   -2.6390 ha        1 HS4      0.178000
     27 H11         4.3570    1.5520   -0.2890 ha        1 HS4      0.167500
     28 H8          4.8400    3.4530   -1.7930 ha        1 HS4      0.178000
     29 H4          4.7460    5.6130   -2.0440 ha        1 HS4      0.139500
     30 H7          5.2220    7.5310   -3.5460 ha        1 HS4      0.157000
     31 H9          3.7950    7.9410   -5.5550 ha        1 HS4      0.158000
     32 H6          1.8810    6.4150   -6.0580 ha        1 HS4      0.157000
     33 H3          1.3930    4.4900   -4.5690 ha        1 HS4      0.139500
     34 H121        1.1240   -1.4800   -1.4900 hn        1 HS4      0.416800
@<TRIPOS>BOND
     1    1    2 1   
     2    2    3 1   
     3    2   10 1   
     4    4    5 1   
     5    4   22 1   
     6    4   34 1   
     7    5    6 1   
     8    5   23 1   
     9    5   24 1   
    10    6    7 2   
    11    6    8 1   
    12    8    9 2   
    13   10   11 ar  
    14   10   13 ar  
    15   11   12 ar  
    16   11   25 1   
    17   12   15 ar  
    18   12   26 1   
    19   13   14 ar  
    20   13   27 1   
    21   14   15 ar  
    22   14   28 1   
    23   15   16 1   
    24   16   17 ar  
    25   16   21 ar  
    26   17   18 ar  
    27   17   29 1   
    28   18   19 ar  
    29   18   30 1   
    30   19   20 ar  
    31   19   31 1   
    32   20   21 ar  
    33   20   32 1   
    34   21   33 1   
@<TRIPOS>SUBSTRUCTURE
     1 HS4         1 TEMP              0 ****  ****    0 ROOT
