@<TRIPOS>MOLECULE
HS5
   30    30     1     0     0
SMALL
bcc


@<TRIPOS>ATOM
      1 O5          0.1050    0.3260   -2.5440 o         1 HS5     -0.644300
      2 S1         -0.0590    0.6810   -1.1900 sy        1 HS5      1.506200
      3 O4         -0.5840    1.9590   -0.9010 o         1 HS5     -0.644300
      4 N2         -0.9640   -0.4520   -0.4260 n3        1 HS5     -0.789500
      5 C10        -1.7000   -0.1430    0.7630 c3        1 HS5      0.155800
      6 C9         -3.2130   -0.0240    0.5730 c         1 HS5      0.543500
      7 O3         -3.8450   -0.5560   -0.3430 o         1 HS5     -0.489100
      8 N1         -3.9210    0.6430    1.7050 ne        1 HS5     -0.030100
      9 O2         -4.4220    1.6670    1.5470 o         1 HS5     -0.069300
     10 C8         -1.0630   -1.8040   -0.9100 c3        1 HS5      0.205800
     11 C6         -0.1720   -2.8280   -0.1900 c3        1 HS5      0.107400
     12 O1         -0.6880   -3.0090    1.1180 oh        1 HS5     -0.606800
     13 C3          1.4440    0.5520   -0.4260 ca        1 HS5     -0.398500
     14 C5          2.4270   -0.3130   -0.9220 ca        1 HS5      0.007000
     15 C7          3.6770   -0.4050   -0.3250 ca        1 HS5     -0.194500
     16 C4          3.9600    0.3910    0.8030 ca        1 HS5      0.192900
     17 F1          5.1700    0.3100    1.3980 f         1 HS5     -0.126900
     18 C2          2.9860    1.2740    1.3100 ca        1 HS5     -0.194500
     19 C1          1.7460    1.3430    0.6890 ca        1 HS5      0.007000
     20 H10        -1.5450   -0.9600    1.5340 h1        1 HS5      0.094700
     21 H10A       -1.3110    0.8310    1.1830 h1        1 HS5      0.094700
     22 H8         -2.1360   -2.1470   -0.8230 h1        1 HS5      0.086700
     23 H8A        -0.7790   -1.8150   -2.0040 h1        1 HS5      0.086700
     24 H6         -0.2140   -3.7950   -0.7600 h1        1 HS5      0.030700
     25 H6A         0.8940   -2.4790   -0.1360 h1        1 HS5      0.030700
     26 HO1        -0.1740   -3.7150    1.5260 ho        1 HS5      0.406000
     27 H5          2.2080   -0.9190   -1.8200 ha        1 HS5      0.158000
     28 H7          4.4470   -1.0810   -0.7230 ha        1 HS5      0.159500
     29 H2          3.2190    1.9000    2.1840 ha        1 HS5      0.159500
     30 H1          0.9870    2.0510    1.0700 ha        1 HS5      0.158000
@<TRIPOS>BOND
     1    1    2 2   
     2    2    3 2   
     3    2    4 1   
     4    2   13 1   
     5    4    5 1   
     6    4   10 1   
     7    5    6 1   
     8    5   20 1   
     9    5   21 1   
    10    6    7 2   
    11    6    8 1   
    12    8    9 2   
    13   10   11 1   
    14   10   22 1   
    15   10   23 1   
    16   11   12 1   
    17   11   24 1   
    18   11   25 1   
    19   12   26 1   
    20   13   14 ar  
    21   13   19 ar  
    22   14   15 ar  
    23   14   27 1   
    24   15   16 ar  
    25   15   28 1   
    26   16   17 1   
    27   16   18 ar  
    28   18   19 ar  
    29   18   29 1   
    30   19   30 1   
@<TRIPOS>SUBSTRUCTURE
     1 HS5         1 TEMP              0 ****  ****    0 ROOT
