@<TRIPOS>MOLECULE
HS5
   31    30     1     0     0
SMALL
bcc


@<TRIPOS>ATOM
      1 O5         -0.0740    0.4370    0.4470 o         1 HS5     -0.430900
      2 S1          1.2650    0.6380    0.3340 s4        1 HS5      1.671300
      3 O4          2.1460    0.3650    1.3330 o         1 HS5     -0.430900
      4 N2          1.5400   -1.5830   -0.5420 n7        1 HS5     -0.889200
      5 C10         2.8760   -2.0890   -0.2350 c3        1 HS5      0.018800
      6 C9          2.9680   -3.6030   -0.0570 c         1 HS5      0.525500
      7 O3          1.9800   -4.3350   -0.1490 o         1 HS5     -0.483100
      8 N1          4.3530   -4.1450    0.0730 ne        1 HS5      0.005900
      9 O2          4.7290   -4.5230    1.0870 o         1 HS5     -0.031300
     10 C8          1.0880   -1.8860   -1.9040 c3        1 HS5      0.081800
     11 C6          1.7340   -1.0680   -3.0270 c3        1 HS5      0.119400
     12 O1          3.1290   -1.2580   -3.0970 oh        1 HS5     -0.606800
     13 C3          1.7510    1.5970   -0.7970 ca        1 HS5     -0.624500
     14 C5          0.8370    2.1730   -1.7230 ca        1 HS5      0.058000
     15 C7          1.2430    3.0650   -2.6900 ca        1 HS5     -0.196500
     16 C4          2.6130    3.4230   -2.7800 ca        1 HS5      0.299900
     17 F1          3.0190    4.2870   -3.7170 f         1 HS5     -0.068900
     18 C2          3.5490    2.8650   -1.8740 ca        1 HS5     -0.196500
     19 C1          3.1160    1.9750   -0.9140 ca        1 HS5      0.058000
     20 H10         3.5890   -1.7780   -1.0560 h1        1 HS5      0.120700
     21 H10A        3.2110   -1.6180    0.7380 h1        1 HS5      0.120700
     22 H8         -0.0250   -1.6950   -1.9380 h1        1 HS5      0.087700
     23 H8A         1.2510   -2.9830   -2.1240 h1        1 HS5      0.087700
     24 H6          1.6000    0.0350   -2.8560 h1        1 HS5      0.060200
     25 H6A         1.2320   -1.3520   -3.9910 h1        1 HS5      0.060200
     26 HO1         3.2970   -2.0590   -3.6110 ho        1 HS5      0.427000
     27 H5         -0.2360    1.9020   -1.6520 ha        1 HS5      0.178000
     28 H7          0.5200    3.5100   -3.3960 ha        1 HS5      0.196500
     29 H2          4.6130    3.1490   -1.9490 ha        1 HS5      0.196500
     30 H1          3.8520    1.5480   -0.2040 ha        1 HS5      0.178000
     31 H21         0.8860   -2.0500    0.0820 hn        1 HS5      0.406800
@<TRIPOS>BOND
     1    1    2 1   
     2    2    3 1   
     3    2   13 1   
     4    4    5 1   
     5    4   10 1   
     6    4   31 1   
     7    5    6 1   
     8    5   20 1   
     9    5   21 1   
    10    6    7 2   
    11    6    8 1   
    12    8    9 2   
    13   10   11 1   
    14   10   22 1   
    15   10   23 1   
    16   11   12 1   
    17   11   24 1   
    18   11   25 1   
    19   12   26 1   
    20   13   14 ar  
    21   13   19 ar  
    22   14   15 ar  
    23   14   27 1   
    24   15   16 ar  
    25   15   28 1   
    26   16   17 1   
    27   16   18 ar  
    28   18   19 ar  
    29   18   29 1   
    30   19   30 1   
@<TRIPOS>SUBSTRUCTURE
     1 HS5         1 TEMP              0 ****  ****    0 ROOT
