@<TRIPOS>MOLECULE
HS5
   31    30     1     0     0
SMALL
bcc


@<TRIPOS>ATOM
      1 O5         -0.5040    0.4650   -0.8440 o         1 HS5     -0.434400
      2 S1          0.6490    0.6880   -0.1630 s4        1 HS5      1.674300
      3 O4          0.7340    0.5770    1.1910 o         1 HS5     -0.434400
      4 N2          1.4930   -1.4920   -0.4570 n3        1 HS5     -0.892200
      5 C10         2.9200   -1.4820   -0.7720 c3        1 HS5      0.035800
      6 C9          3.6840   -2.7330   -0.3450 c         1 HS5      0.519500
      7 O3          3.1440   -3.6500    0.2770 o         1 HS5     -0.470100
      8 N1          5.1580   -2.6830   -0.5880 ne        1 HS5      0.005900
      9 O2          5.6290   -3.3520   -1.3900 o         1 HS5     -0.032300
     10 C8          0.7090   -2.3660   -1.3420 c3        1 HS5      0.089800
     11 C6          0.3220   -1.7750   -2.7040 c3        1 HS5      0.102400
     12 O1          1.4340   -1.2190   -3.3760 oh        1 HS5     -0.632800
     13 C3          1.7730    1.5110   -0.8750 ca        1 HS5     -0.624500
     14 C5          1.7960    1.6760   -2.2850 ca        1 HS5      0.057000
     15 C7          2.7360    2.4700   -2.9090 ca        1 HS5     -0.199500
     16 C4          3.7160    3.1350   -2.1330 ca        1 HS5      0.292900
     17 F1          4.6290    3.9130   -2.7260 f         1 HS5     -0.071900
     18 C2          3.7330    2.9690   -0.7240 ca        1 HS5     -0.199500
     19 C1          2.7840    2.1720   -0.1240 ca        1 HS5      0.057000
     20 H10         3.0510   -1.3430   -1.8860 h1        1 HS5      0.105200
     21 H10A        3.3830   -0.5990   -0.2420 h1        1 HS5      0.105200
     22 H8         -0.2550   -2.6170   -0.8080 h1        1 HS5      0.088700
     23 H8A         1.2680   -3.3330   -1.5080 h1        1 HS5      0.088700
     24 H6         -0.4140   -0.9310   -2.5870 h1        1 HS5      0.083700
     25 H6A        -0.1620   -2.5920   -3.3040 h1        1 HS5      0.083700
     26 HO1         1.7710   -1.8780   -3.9970 ho        1 HS5      0.429000
     27 H5          1.0460    1.1380   -2.9010 ha        1 HS5      0.184000
     28 H7          2.7340    2.5950   -4.0060 ha        1 HS5      0.196000
     29 H2          4.5040    3.4860   -0.1270 ha        1 HS5      0.196000
     30 H1          2.7970    2.0510    0.9780 ha        1 HS5      0.184000
     31 H21         1.3900   -1.8580    0.4870 hn        1 HS5      0.415800
@<TRIPOS>BOND
     1    1    2 1   
     2    2    3 1   
     3    2   13 1   
     4    4    5 1   
     5    4   10 1   
     6    4   31 1   
     7    5    6 1   
     8    5   20 1   
     9    5   21 1   
    10    6    7 2   
    11    6    8 1   
    12    8    9 2   
    13   10   11 1   
    14   10   22 1   
    15   10   23 1   
    16   11   12 1   
    17   11   24 1   
    18   11   25 1   
    19   12   26 1   
    20   13   14 ar  
    21   13   19 ar  
    22   14   15 ar  
    23   14   27 1   
    24   15   16 ar  
    25   15   28 1   
    26   16   17 1   
    27   16   18 ar  
    28   18   19 ar  
    29   18   29 1   
    30   19   30 1   
@<TRIPOS>SUBSTRUCTURE
     1 HS5         1 TEMP              0 ****  ****    0 ROOT
