@<TRIPOS>MOLECULE
HS5
   31    30     1     0     0
SMALL
bcc


@<TRIPOS>ATOM
      1 O5         -0.0800    0.4340    0.4420 o         1 HS5     -0.430900
      2 S1          1.2600    0.6330    0.3350 s4        1 HS5      1.671300
      3 O4          2.1360    0.3530    1.3370 o         1 HS5     -0.430900
      4 N2          1.5350   -1.5850   -0.5490 n3        1 HS5     -0.889200
      5 C10         2.8710   -2.0930   -0.2430 c3        1 HS5      0.018800
      6 C9          2.9620   -3.6080   -0.0720 c         1 HS5      0.525500
      7 O3          1.9730   -4.3390   -0.1660 o         1 HS5     -0.483100
      8 N1          4.3470   -4.1510    0.0570 ne        1 HS5      0.005900
      9 O2          4.7220   -4.5340    1.0700 o         1 HS5     -0.031300
     10 C8          1.0830   -1.8830   -1.9130 c3        1 HS5      0.081800
     11 C6          1.7310   -1.0610   -3.0320 c3        1 HS5      0.119400
     12 O1          3.1260   -1.2530   -3.1030 oh        1 HS5     -0.606800
     13 C3          1.7530    1.5950   -0.7900 ca        1 HS5     -0.624500
     14 C5          0.8440    2.1770   -1.7170 ca        1 HS5      0.058000
     15 C7          1.2570    3.0720   -2.6790 ca        1 HS5     -0.196500
     16 C4          2.6280    3.4270   -2.7610 ca        1 HS5      0.299900
     17 F1          3.0390    4.2940   -3.6930 f         1 HS5     -0.068900
     18 C2          3.5580    2.8630   -1.8540 ca        1 HS5     -0.196500
     19 C1          3.1200    1.9710   -0.8990 ca        1 HS5      0.058000
     20 H10         3.2050   -1.6260    0.7320 h1        1 HS5      0.120700
     21 H10A        3.5840   -1.7790   -1.0620 h1        1 HS5      0.120700
     22 H8          1.2450   -2.9790   -2.1360 h1        1 HS5      0.088200
     23 H8A        -0.0290   -1.6900   -1.9460 h1        1 HS5      0.088200
     24 H6          1.5980    0.0410   -2.8560 h1        1 HS5      0.060200
     25 H6A         1.2280   -1.3400   -3.9970 h1        1 HS5      0.060200
     26 HO1         3.2920   -2.0520   -3.6200 ho        1 HS5      0.427000
     27 H5         -0.2300    1.9090   -1.6510 ha        1 HS5      0.178000
     28 H7          0.5370    3.5220   -3.3850 ha        1 HS5      0.196500
     29 H2          4.6240    3.1450   -1.9230 ha        1 HS5      0.196500
     30 H1          3.8520    1.5380   -0.1880 ha        1 HS5      0.178000
     31 H21         0.8800   -2.0550    0.0730 hn        1 HS5      0.406800
@<TRIPOS>BOND
     1    1    2 1   
     2    2    3 1   
     3    2   13 1   
     4    4    5 1   
     5    4   10 1   
     6    4   31 1   
     7    5    6 1   
     8    5   20 1   
     9    5   21 1   
    10    6    7 2   
    11    6    8 1   
    12    8    9 2   
    13   10   11 1   
    14   10   22 1   
    15   10   23 1   
    16   11   12 1   
    17   11   24 1   
    18   11   25 1   
    19   12   26 1   
    20   13   14 ar  
    21   13   19 ar  
    22   14   15 ar  
    23   14   27 1   
    24   15   16 ar  
    25   15   28 1   
    26   16   17 1   
    27   16   18 ar  
    28   18   19 ar  
    29   18   29 1   
    30   19   30 1   
@<TRIPOS>SUBSTRUCTURE
     1 HS5         1 TEMP              0 ****  ****    0 ROOT
