@<TRIPOS>MOLECULE
HS5
   30    26     1     0     0
SMALL
bcc


@<TRIPOS>ATOM
      1 O5         -2.5510    0.5740    0.3150 o         1 HS5     -0.921500
      2 S1         -1.2120    0.3230    0.7630 ss        1 HS5      2.848000
      3 O4         -1.4150    0.1690    2.1910 o         1 HS5     -0.921500
      4 N2         -0.6160   -1.0380    0.1020 n2        1 HS5     -0.812000
      5 C10         0.6040   -1.6110    0.6150 c3        1 HS5     -0.028000
      6 C9          0.2760   -2.5250    1.8210 c2        1 HS5      0.107000
      7 O3         -0.8070   -2.4720    2.3360 o         1 HS5     -0.242000
      8 N1          1.2750   -3.3780    2.3590 n2        1 HS5      0.155000
      9 O2          1.0330   -4.0520    3.3470 o         1 HS5     -0.110000
     10 C8         -1.3880   -1.7560   -0.9010 c3        1 HS5     -0.040000
     11 C6         -0.6080   -1.8060   -2.1980 c3        1 HS5     -0.041000
     12 O1         -0.8300   -3.0430   -2.8340 oh        1 HS5     -0.321000
     13 C3         -0.1300    1.7200    0.4050 c1        1 HS5     -0.848000
     14 C5          0.9540    1.9820    1.2260 c2        1 HS5      0.007000
     15 C7          1.7530    3.1030    0.9900 c1        1 HS5     -0.195000
     16 C4          1.4610    3.9520   -0.0650 c1        1 HS5      0.159000
     17 F1          2.2320    5.0110   -0.3000 f         1 HS5     -0.092000
     18 C2          0.3690    3.6880   -0.8920 c1        1 HS5     -0.196000
     19 C1         -0.4240    2.5760   -0.6580 c1        1 HS5      0.009000
     20 H10         1.2170   -0.8840    0.9070 h1        1 HS5      0.123500
     21 H10A        1.0390   -2.1440   -0.0920 h1        1 HS5      0.123500
     22 H8         -2.2400   -1.2970   -1.0490 h1        1 HS5      0.129500
     23 H8A        -1.5570   -2.6530   -0.5950 h1        1 HS5      0.129500
     24 H6         -0.8980   -1.0890   -2.7760 h1        1 HS5      0.063000
     25 H6A         0.3290   -1.7070   -2.0100 h1        1 HS5      0.063000
     26 HO1        -0.5330   -3.0030   -3.6790 ho        1 HS5      0.206000
     27 H5          1.1620    1.3770    1.9790 ha        1 HS5      0.160000
     28 H7          2.5270    3.2910    1.5770 ha        1 HS5      0.160000
     29 H2          0.1580    4.3000   -1.6530 ha        1 HS5      0.161000
     30 H1         -1.1800    2.3930   -1.2310 ha        1 HS5      0.161000
@<TRIPOS>BOND
     1    1    2 1   
     2    2    3 1   
     3    4    5 1   
     4    4   10 1   
     5    5    6 1   
     6    5   20 1   
     7    5   21 1   
     8    6    7 1   
     9    6    8 1   
    10    8    9 1   
    11   10   11 1   
    12   10   22 1   
    13   10   23 1   
    14   11   12 1   
    15   11   24 1   
    16   11   25 1   
    17   12   26 1   
    18   13   14 1   
    19   13   19 1   
    20   14   15 1   
    21   14   27 1   
    22   15   28 1   
    23   16   17 1   
    24   16   18 1   
    25   18   29 1   
    26   19   30 1   
@<TRIPOS>SUBSTRUCTURE
     1 HS5         1 TEMP              0 ****  ****    0 ROOT
