@<TRIPOS>MOLECULE
HS6
   24    24     1     0     0
SMALL
bcc


@<TRIPOS>ATOM
      1 O4          0.6500    0.0180    0.5860 o         1 HS6     -0.565800
      2 S1          1.9260    0.3350    0.1860 sy        1 HS6      1.506200
      3 O3          3.0190    0.1360    0.9970 o         1 HS6     -0.565800
      4 N1          2.1920   -1.1400   -1.1310 ny        1 HS6     -0.681900
      5 C6          3.0530   -2.2320   -0.6500 c3        1 HS6      0.011800
      6 C8          3.7230   -3.0200   -1.7760 c         1 HS6      0.525500
      7 O2          3.6460   -2.6410   -2.9480 o         1 HS6     -0.479100
      8 N2          4.6190   -4.1320   -1.3310 ne        1 HS6      0.030900
      9 O1          4.3170   -5.2190   -1.5140 o         1 HS6     -0.009300
     10 C3          2.0460    1.5320   -0.8510 ca        1 HS6     -0.591500
     11 C1          0.8990    2.0640   -1.4920 ca        1 HS6      0.042500
     12 C5          3.2890    2.1610   -1.1070 ca        1 HS6      0.042500
     13 C7          3.3970    3.2440   -1.9560 ca        1 HS6     -0.192500
     14 C4          2.2350    3.7500   -2.5890 ca        1 HS6      0.285900
     15 F1          2.3250    4.8000   -3.4140 f         1 HS6     -0.072900
     16 C2          0.9780    3.1450   -2.3450 ca        1 HS6     -0.192500
     17 HN1         2.5910   -0.7660   -1.9940 hn        1 HS6      0.446800
     18 H6          2.4380   -2.9390   -0.0190 hx        1 HS6      0.136700
     19 H6A         3.8690   -1.7920    0.0030 hx        1 HS6      0.136700
     20 H1         -0.0910    1.6090   -1.2880 ha        1 HS6      0.175000
     21 H5          4.1980    1.7830   -0.5980 ha        1 HS6      0.175000
     22 H7          4.3710    3.7270   -2.1430 ha        1 HS6      0.195000
     23 H2          0.0750    3.5520   -2.8330 ha        1 HS6      0.195000
     24 H12         1.2800   -1.5220   -1.3720 hn        1 HS6      0.446800
@<TRIPOS>BOND
     1    1    2 2   
     2    2    3 2   
     3    2    4 1   
     4    2   10 1   
     5    4    5 1   
     6    4   17 1   
     7    4   24 1   
     8    5    6 1   
     9    5   18 1   
    10    5   19 1   
    11    6    7 2   
    12    6    8 1   
    13    8    9 2   
    14   10   11 ar  
    15   10   12 ar  
    16   11   16 ar  
    17   11   20 1   
    18   12   13 ar  
    19   12   21 1   
    20   13   14 ar  
    21   13   22 1   
    22   14   15 1   
    23   14   16 ar  
    24   16   23 1   
@<TRIPOS>SUBSTRUCTURE
     1 HS6         1 TEMP              0 ****  ****    0 ROOT
