@<TRIPOS>MOLECULE
HS6
   24    24     1     0     0
SMALL
bcc


@<TRIPOS>ATOM
      1 O4          0.6630    0.0190    0.6000 o         1 HS6     -0.565800
      2 S1          1.9390    0.3290    0.1920 sy        1 HS6      1.506200
      3 O3          3.0370    0.1170    0.9920 o         1 HS6     -0.565800
      4 N1          2.1820   -1.1390   -1.1370 n4        1 HS6     -0.681900
      5 C6          3.0390   -2.2400   -0.6720 c3        1 HS6      0.011800
      6 C8          3.6950   -3.0250   -1.8090 c         1 HS6      0.525500
      7 O2          3.6110   -2.6370   -2.9770 o         1 HS6     -0.479100
      8 N2          4.5860   -4.1460   -1.3790 ne        1 HS6      0.030900
      9 O1          4.2760   -5.2300   -1.5670 o         1 HS6     -0.009300
     10 C3          2.0590    1.5320   -0.8380 ca        1 HS6     -0.591500
     11 C1          0.9110    2.0770   -1.4660 ca        1 HS6      0.042500
     12 C5          3.3050    2.1540   -1.1010 ca        1 HS6      0.042500
     13 C7          3.4140    3.2410   -1.9430 ca        1 HS6     -0.192500
     14 C4          2.2510    3.7610   -2.5630 ca        1 HS6      0.285900
     15 F1          2.3420    4.8160   -3.3820 f         1 HS6     -0.072900
     16 C2          0.9910    3.1640   -2.3120 ca        1 HS6     -0.192500
     17 HN1         2.5760   -0.7620   -2.0010 hn        1 HS6      0.446800
     18 H6          2.4250   -2.9470   -0.0400 hx        1 HS6      0.136700
     19 H6A         3.8640   -1.8100   -0.0220 hx        1 HS6      0.136700
     20 H1         -0.0800    1.6280   -1.2560 ha        1 HS6      0.175000
     21 H5          4.2150    1.7660   -0.6010 ha        1 HS6      0.175000
     22 H7          4.3910    3.7180   -2.1350 ha        1 HS6      0.195000
     23 H2          0.0870    3.5810   -2.7910 ha        1 HS6      0.195000
     24 H12         1.2650   -1.5130   -1.3730 hn        1 HS6      0.446800
@<TRIPOS>BOND
     1    1    2 2   
     2    2    3 2   
     3    2    4 1   
     4    2   10 1   
     5    4    5 1   
     6    4   17 1   
     7    4   24 1   
     8    5    6 1   
     9    5   18 1   
    10    5   19 1   
    11    6    7 2   
    12    6    8 1   
    13    8    9 2   
    14   10   11 ar  
    15   10   12 ar  
    16   11   16 ar  
    17   11   20 1   
    18   12   13 ar  
    19   12   21 1   
    20   13   14 ar  
    21   13   22 1   
    22   14   15 1   
    23   14   16 ar  
    24   16   23 1   
@<TRIPOS>SUBSTRUCTURE
     1 HS6         1 TEMP              0 ****  ****    0 ROOT
