@<TRIPOS>MOLECULE
HS6
   23    19     1     0     0
SMALL
bcc


@<TRIPOS>ATOM
      1 O4         -2.1010    0.1950    0.8620 o         1 HS6     -0.924500
      2 S1         -0.6660    0.1470    0.9270 ss        1 HS6      2.860000
      3 O3         -0.4530    0.0960    2.3470 o         1 HS6     -0.924500
      4 N1          0.0050    1.4950    0.2720 n2        1 HS6     -0.887000
      5 C6          0.0280    2.7100    1.0110 c3        1 HS6     -0.043000
      6 C8         -0.7370    3.7750    0.2560 c2        1 HS6      0.110000
      7 O2         -1.8580    4.0820    0.6080 o         1 HS6     -0.247000
      8 N2         -0.1490    4.4060   -0.8700 n2        1 HS6      0.182000
      9 O1         -0.6990    5.3670   -1.3880 o         1 HS6     -0.127000
     10 C3         -0.0340   -1.3040    0.1280 c1        1 HS6     -0.348000
     11 C1         -0.5170   -1.6750   -1.1170 c2        1 HS6     -0.092500
     12 C5          0.9180   -2.0850    0.7630 c1        1 HS6     -0.092000
     13 C7          1.3880   -3.2380    0.1540 c1        1 HS6     -0.092000
     14 C4          0.9050   -3.6100   -1.0910 c1        1 HS6     -0.348000
     15 F1          1.3400   -4.7370   -1.6690 f         1 HS6     -0.091000
     16 C2         -0.0480   -2.8280   -1.7260 c2        1 HS6     -0.092500
     17 HN1         0.3700    1.4630   -0.5640 hn        1 HS6      0.245000
     18 H6         -0.3880    2.5670    1.8860 h1        1 HS6      0.134000
     19 H6A         0.9560    2.9990    1.1340 h1        1 HS6      0.134000
     20 H1         -1.1880   -1.1250   -1.5640 ha        1 HS6      0.161000
     21 H5          1.2580   -1.8230    1.6400 ha        1 HS6      0.160000
     22 H7          2.0580   -3.7880    0.6020 ha        1 HS6      0.160000
     23 H2         -0.3880   -3.0900   -2.6030 ha        1 HS6      0.161000
@<TRIPOS>BOND
     1    1    2 1   
     2    2    3 1   
     3    4    5 1   
     4    4   17 1   
     5    5    6 1   
     6    5   18 1   
     7    5   19 1   
     8    6    7 1   
     9    6    8 1   
    10    8    9 1   
    11   10   11 1   
    12   10   12 1   
    13   11   16 1   
    14   11   20 1   
    15   12   21 1   
    16   13   14 1   
    17   13   22 1   
    18   14   16 1   
    19   16   23 1   
@<TRIPOS>SUBSTRUCTURE
     1 HS6         1 TEMP              0 ****  ****    0 ROOT
