@<TRIPOS>MOLECULE
HS6
   24    23     1     0     0
SMALL
bcc


@<TRIPOS>ATOM
      1 O4          0.7380    0.2380    0.8060 o         1 HS6     -0.439400
      2 S1          1.9790    0.5310    0.3280 s4        1 HS6      1.664300
      3 O3          3.1270    0.2420    1.0020 o         1 HS6     -0.439400
      4 N1          2.0690   -1.2240   -1.0580 n3        1 HS6     -1.002800
      5 C6          2.9660   -2.2840   -0.6030 c3        1 HS6      0.024800
      6 C8          3.6120   -3.0820   -1.7350 c         1 HS6      0.524500
      7 O2          3.5200   -2.7130   -2.9090 o         1 HS6     -0.483100
      8 N2          4.2140   -4.3910   -1.3400 ne        1 HS6      0.022900
      9 O1          5.3510   -4.5180   -1.3240 o         1 HS6     -0.021300
     10 C3          2.0690    1.6140   -0.8030 ca        1 HS6     -0.625500
     11 C1          0.9000    2.1480   -1.4080 ca        1 HS6      0.050000
     12 C5          3.3190    2.1370   -1.2300 ca        1 HS6      0.050000
     13 C7          3.4080    3.1190   -2.1930 ca        1 HS6     -0.195000
     14 C4          2.2240    3.6300   -2.7820 ca        1 HS6      0.295900
     15 F1          2.2970    4.5820   -3.7170 f         1 HS6     -0.068900
     16 C2          0.9620    3.1300   -2.3740 ca        1 HS6     -0.195000
     17 HN1         1.1300   -1.5890   -1.1510 hn        1 HS6      0.421300
     18 H6          3.8040   -1.8110   -0.0050 h1        1 HS6      0.122200
     19 H6A         2.4020   -2.9860    0.0790 h1        1 HS6      0.122200
     20 H1         -0.0910    1.7720   -1.0840 ha        1 HS6      0.177500
     21 H5          4.2480    1.7520   -0.7640 ha        1 HS6      0.177500
     22 H7          4.3880    3.5170   -2.5110 ha        1 HS6      0.197000
     23 H2          0.0430    3.5380   -2.8310 ha        1 HS6      0.197000
     24 H12         2.3650   -0.8990   -1.9710 hn        1 HS6      0.421300
@<TRIPOS>BOND
     1    1    2 1   
     2    2    3 1   
     3    2   10 1   
     4    4    5 1   
     5    4   17 1   
     6    4   24 1   
     7    5    6 1   
     8    5   18 1   
     9    5   19 1   
    10    6    7 2   
    11    6    8 1   
    12    8    9 2   
    13   10   11 ar  
    14   10   12 ar  
    15   11   16 ar  
    16   11   20 1   
    17   12   13 ar  
    18   12   21 1   
    19   13   14 ar  
    20   13   22 1   
    21   14   15 1   
    22   14   16 ar  
    23   16   23 1   
@<TRIPOS>SUBSTRUCTURE
     1 HS6         1 TEMP              0 ****  ****    0 ROOT
