@<TRIPOS>MOLECULE
HS6
   23    23     1     0     0
SMALL
bcc


@<TRIPOS>ATOM
      1 O4          0.1720   -2.5510    0.4320 o         1 HS6     -0.648300
      2 S1          0.0060   -1.3580   -0.2940 sy        1 HS6      1.524200
      3 O3         -0.2950   -1.4560   -1.6690 o         1 HS6     -0.648300
      4 N1         -1.1270   -0.4550    0.4400 n3        1 HS6     -0.912100
      5 C6         -2.0470    0.3990   -0.2380 c3        1 HS6      0.154800
      6 C8         -3.4560    0.3840    0.3520 c         1 HS6      0.539500
      7 O2         -3.7200   -0.0480    1.4760 o         1 HS6     -0.486100
      8 N2         -4.5360    0.8360   -0.5720 ne        1 HS6     -0.010100
      9 O1         -4.9650    1.8980   -0.4780 o         1 HS6     -0.074300
     10 C3          1.4010   -0.4290   -0.1140 ca        1 HS6     -0.405500
     11 C1          2.1830   -0.5350    1.0440 ca        1 HS6      0.009000
     12 C5          1.8250    0.4340   -1.1320 ca        1 HS6      0.009000
     13 C7          2.9850    1.1860   -1.0060 ca        1 HS6     -0.194500
     14 C4          3.7520    1.0750    0.1710 ca        1 HS6      0.194900
     15 F1          4.8810    1.8040    0.3090 f         1 HS6     -0.126900
     16 C2          3.3480    0.2040    1.2010 ca        1 HS6     -0.194500
     17 HN1        -1.2820   -0.5080    1.4210 hn        1 HS6      0.463800
     18 H6         -1.7040    1.4770   -0.1760 h1        1 HS6      0.083700
     19 H6A        -2.0920    0.1020   -1.3300 h1        1 HS6      0.083700
     20 H1          1.8750   -1.2370    1.8410 ha        1 HS6      0.159500
     21 H5          1.2320    0.5020   -2.0630 ha        1 HS6      0.159500
     22 H7          3.3150    1.8600   -1.8110 ha        1 HS6      0.160500
     23 H2          3.9580    0.1140    2.1120 ha        1 HS6      0.160500
@<TRIPOS>BOND
     1    1    2 2   
     2    2    3 2   
     3    2    4 1   
     4    2   10 1   
     5    4    5 1   
     6    4   17 1   
     7    5    6 1   
     8    5   18 1   
     9    5   19 1   
    10    6    7 2   
    11    6    8 1   
    12    8    9 2   
    13   10   11 ar  
    14   10   12 ar  
    15   11   16 ar  
    16   11   20 1   
    17   12   13 ar  
    18   12   21 1   
    19   13   14 ar  
    20   13   22 1   
    21   14   15 1   
    22   14   16 ar  
    23   16   23 1   
@<TRIPOS>SUBSTRUCTURE
     1 HS6         1 TEMP              0 ****  ****    0 ROOT
