@<TRIPOS>MOLECULE
HS7
   24    23     1     0     0
SMALL
bcc


@<TRIPOS>ATOM
      1 O3          1.2020   -1.3820    0.1860 o         1 HS7     -0.483100
      2 C7          1.2310   -0.1480    0.1690 c         1 HS7      0.524500
      3 N2          0.9960    0.6850    1.3860 ne        1 HS7      0.021900
      4 O4          1.8270    0.8140    2.1630 o         1 HS7     -0.021300
      5 C8          1.3560    0.6220   -1.1450 c3        1 HS7      0.024800
      6 N1          1.2080   -0.2070   -2.3380 n8        1 HS7     -1.001800
      7 S1          2.3460    0.5530   -4.1020 s4        1 HS7      1.659300
      8 O1          1.2470    1.0100   -4.7650 o         1 HS7     -0.438900
      9 O2          3.1820    1.3680   -3.3980 o         1 HS7     -0.438900
     10 C3          2.9040   -0.8550   -4.5240 ca        1 HS7     -0.597500
     11 C1          2.2030   -1.6780   -5.4430 ca        1 HS7      0.022500
     12 C6          4.1500   -1.3300   -4.0420 ca        1 HS7      0.022500
     13 C5          4.6600   -2.5520   -4.4480 ca        1 HS7     -0.147500
     14 C4          3.9460   -3.3440   -5.3540 ca        1 HS7      0.024000
     15 C2          2.7140   -2.9000   -5.8490 ca        1 HS7     -0.147500
     16 H8          2.3860    1.0930   -1.1620 h1        1 HS7      0.122700
     17 H8A         0.5900    1.4520   -1.1680 h1        1 HS7      0.122700
     18 HN1         1.5200   -1.1510   -2.1360 hn        1 HS7      0.422800
     19 H1          1.2350   -1.3270   -5.8490 ha        1 HS7      0.172000
     20 H6          4.7270   -0.7030   -3.3360 ha        1 HS7      0.172000
     21 H5          5.6350   -2.8990   -4.0610 ha        1 HS7      0.182000
     22 H4          4.3540   -4.3180   -5.6800 ha        1 HS7      0.179000
     23 H2          2.1520   -3.5210   -6.5680 ha        1 HS7      0.182000
     24 H12         0.2330   -0.2570   -2.6000 hn        1 HS7      0.422800
@<TRIPOS>BOND
     1    1    2 2   
     2    2    3 1   
     3    2    5 1   
     4    3    4 2   
     5    5    6 1   
     6    5   16 1   
     7    5   17 1   
     8    6   18 1   
     9    6   24 1   
    10    7    8 1   
    11    7    9 1   
    12    7   10 1   
    13   10   11 ar  
    14   10   12 ar  
    15   11   15 ar  
    16   11   19 1   
    17   12   13 ar  
    18   12   20 1   
    19   13   14 ar  
    20   13   21 1   
    21   14   15 ar  
    22   14   22 1   
    23   15   23 1   
@<TRIPOS>SUBSTRUCTURE
     1 HS7         1 TEMP              0 ****  ****    0 ROOT
