@<TRIPOS>MOLECULE
HS7
   23    23     1     0     0
SMALL
bcc


@<TRIPOS>ATOM
      1 O3          3.3520   -0.5000   -1.4290 o         1 HS7     -0.487100
      2 C7          3.1450    0.0240   -0.3320 c         1 HS7      0.539500
      3 N2          4.2710    0.3410    0.5930 ne        1 HS7     -0.011100
      4 O4          4.8650    1.3170    0.4600 o         1 HS7     -0.075300
      5 C8          1.7490    0.2960    0.2250 c3        1 HS7      0.155800
      6 N1          0.7130   -0.4340   -0.4280 n3        1 HS7     -0.911100
      7 S1         -0.5600   -1.1050    0.3280 sy        1 HS7      1.521200
      8 O1         -0.9040   -2.2960   -0.3400 o         1 HS7     -0.649300
      9 O2         -0.2900   -1.1810    1.7120 o         1 HS7     -0.649300
     10 C3         -1.7840    0.0250    0.0730 ca        1 HS7     -0.388500
     11 C1         -2.5550   -0.0120   -1.0950 ca        1 HS7     -0.016000
     12 C6         -2.0760    0.9960    1.0390 ca        1 HS7     -0.016000
     13 C5         -3.1040    1.9140    0.8400 ca        1 HS7     -0.156000
     14 C4         -3.8580    1.8700   -0.3330 ca        1 HS7     -0.063000
     15 C2         -3.5840    0.9030   -1.3010 ca        1 HS7     -0.156000
     16 H8          1.7300    0.0550    1.3310 h1        1 HS7      0.083200
     17 H8A         1.5860    1.4100    0.1010 h1        1 HS7      0.083200
     18 HN1         0.8670   -0.5610   -1.4030 hn        1 HS7      0.462800
     19 H1         -2.3530   -0.7920   -1.8510 ha        1 HS7      0.153500
     20 H6         -1.4930    1.0170    1.9770 ha        1 HS7      0.153500
     21 H5         -3.3240    2.6690    1.6100 ha        1 HS7      0.143500
     22 H4         -4.6710    2.5950   -0.4930 ha        1 HS7      0.139000
     23 H2         -4.1830    0.8590   -2.2240 ha        1 HS7      0.143500
@<TRIPOS>BOND
     1    1    2 2   
     2    2    3 1   
     3    2    5 1   
     4    3    4 2   
     5    5    6 1   
     6    5   16 1   
     7    5   17 1   
     8    6    7 1   
     9    6   18 1   
    10    7    8 2   
    11    7    9 2   
    12    7   10 1   
    13   10   11 ar  
    14   10   12 ar  
    15   11   15 ar  
    16   11   19 1   
    17   12   13 ar  
    18   12   20 1   
    19   13   14 ar  
    20   13   21 1   
    21   14   15 ar  
    22   14   22 1   
    23   15   23 1   
@<TRIPOS>SUBSTRUCTURE
     1 HS7         1 TEMP              0 ****  ****    0 ROOT
