@<TRIPOS>MOLECULE
HS7
   23    19     1     0     0
SMALL
bcc


@<TRIPOS>ATOM
      1 O3         -2.3310    0.4620    3.8290 o         1 HS7     -0.249000
      2 C7         -2.5040    0.9970    2.7420 c1        1 HS7      0.110000
      3 N2         -3.7730    0.9600    2.1320 n1        1 HS7      0.182000
      4 O4         -4.6880    0.2980    2.6440 o         1 HS7     -0.127000
      5 C8         -1.3470    1.6730    2.0400 c3        1 HS7     -0.042000
      6 N1         -0.6170    0.6900    1.2550 n3        1 HS7     -0.886000
      7 S1         -0.4540    0.8910   -0.3790 s4        1 HS7      2.074800
      8 O1         -1.7250    0.7410   -1.0570 o         1 HS7     -0.533900
      9 O2         -0.1230    2.2400   -0.7040 o         1 HS7     -0.533900
     10 C3          0.7560   -0.2370   -1.0190 c1        1 HS7     -0.840000
     11 C1          2.0590    0.2050   -1.2600 c2        1 HS7     -0.014000
     12 C6          0.3970   -1.5220   -1.3410 c1        1 HS7     -0.017000
     13 C5          1.3280   -2.3830   -1.9050 c1        1 HS7     -0.108000
     14 C4          2.6190   -1.9470   -2.1440 c1        1 HS7     -0.108000
     15 C2          2.9810   -0.6450   -1.8180 c1        1 HS7     -0.156000
     16 H8         -1.6860    2.3680    1.4550 h1        1 HS7      0.134000
     17 H8A        -0.7410    2.0760    2.7150 h1        1 HS7      0.134000
     18 HN1        -0.1970    0.0010    1.6710 hn        1 HS7      0.244000
     19 H1          2.3110    1.1130   -1.0330 ha        1 HS7      0.153000
     20 H6         -0.4940   -1.8230   -1.1760 ha        1 HS7      0.154000
     21 H5          1.0720   -3.2990   -2.1340 ha        1 HS7      0.142500
     22 H4          3.2510   -2.5310   -2.5270 ha        1 HS7      0.142500
     23 H2          3.9060   -0.3290   -1.9880 ha        1 HS7      0.144000
@<TRIPOS>BOND
     1    1    2 1   
     2    2    5 1   
     3    3    4 1   
     4    5    6 1   
     5    5   16 1   
     6    5   17 1   
     7    6    7 1   
     8    6   18 1   
     9    7    8 1   
    10    7    9 1   
    11   10   11 1   
    12   10   12 1   
    13   11   15 1   
    14   11   19 1   
    15   12   20 1   
    16   13   14 1   
    17   13   21 1   
    18   14   22 1   
    19   15   23 1   
@<TRIPOS>SUBSTRUCTURE
     1 HS7         1 TEMP              0 ****  ****    0 ROOT
