@<TRIPOS>MOLECULE
HS7
   24    24     1     0     0
SMALL
bcc


@<TRIPOS>ATOM
      1 O3          1.4300   -1.5150    0.2330 o         1 HS7     -0.479100
      2 C7          1.3710   -0.2830    0.2260 c         1 HS7      0.525500
      3 N2          1.4640    0.5500    1.4650 ne        1 HS7      0.030900
      4 O4          0.5590    0.6510    2.1560 o         1 HS7     -0.010300
      5 C8          1.4050    0.4970   -1.0880 c3        1 HS7      0.011800
      6 N1          1.3300   -0.3600   -2.2820 n4        1 HS7     -0.681900
      7 S1          2.0840    0.4670   -3.9290 sy        1 HS7      1.500200
      8 O1          0.9030    0.7980   -4.5490 o         1 HS7     -0.565800
      9 O2          2.9050    1.4180   -3.3710 o         1 HS7     -0.565800
     10 C3          2.8090   -0.8420   -4.4710 ca        1 HS7     -0.562500
     11 C1          2.1520   -1.7260   -5.3610 ca        1 HS7      0.014000
     12 C6          4.1570   -1.1230   -4.1450 ca        1 HS7      0.014000
     13 C5          4.8090   -2.2270   -4.6710 ca        1 HS7     -0.145000
     14 C4          4.1350   -3.0880   -5.5440 ca        1 HS7      0.014000
     15 C2          2.8020   -2.8310   -5.8870 ca        1 HS7     -0.145000
     16 H8          2.3760    1.0850   -1.1230 hx        1 HS7      0.136700
     17 H8A         0.5480    1.2320   -1.1050 hx        1 HS7      0.136700
     18 HN1         1.8120   -1.2380   -2.0830 hn        1 HS7      0.447800
     19 H1          1.1050   -1.5170   -5.6530 ha        1 HS7      0.169500
     20 H6          4.7030   -0.4340   -3.4720 ha        1 HS7      0.169500
     21 H5          5.8620   -2.4240   -4.4060 ha        1 HS7      0.180000
     22 H4          4.6550   -3.9660   -5.9670 ha        1 HS7      0.177000
     23 H2          2.2720   -3.5040   -6.5820 ha        1 HS7      0.180000
     24 H12         0.3550   -0.5940   -2.4570 hn        1 HS7      0.447800
@<TRIPOS>BOND
     1    1    2 2   
     2    2    3 1   
     3    2    5 1   
     4    3    4 2   
     5    5    6 1   
     6    5   16 1   
     7    5   17 1   
     8    6    7 1   
     9    6   18 1   
    10    6   24 1   
    11    7    8 2   
    12    7    9 2   
    13    7   10 1   
    14   10   11 ar  
    15   10   12 ar  
    16   11   15 ar  
    17   11   19 1   
    18   12   13 ar  
    19   12   20 1   
    20   13   14 ar  
    21   13   21 1   
    22   14   15 ar  
    23   14   22 1   
    24   15   23 1   
@<TRIPOS>SUBSTRUCTURE
     1 HS7         1 TEMP              0 ****  ****    0 ROOT
