@<TRIPOS>MOLECULE
HS7
   24    23     1     0     0
SMALL
bcc


@<TRIPOS>ATOM
      1 O3          1.4120   -1.4670    0.2320 o         1 HS7     -0.483100
      2 C7          1.3960   -0.2340    0.2200 c         1 HS7      0.524500
      3 N2          1.5650    0.5920    1.4540 ne        1 HS7      0.020900
      4 O4          0.6860    0.7370    2.1710 o         1 HS7     -0.020300
      5 C8          1.4040    0.5460   -1.0950 c3        1 HS7      0.025800
      6 N1          1.2290   -0.2860   -2.2820 n3        1 HS7     -1.001800
      7 S1          2.2130    0.5420   -4.1120 s4        1 HS7      1.659300
      8 O1          1.0470    0.9000   -4.7190 o         1 HS7     -0.438900
      9 O2          3.0140    1.4300   -3.4600 o         1 HS7     -0.438900
     10 C3          2.8600   -0.8220   -4.5510 ca        1 HS7     -0.597500
     11 C1          2.1820   -1.7110   -5.4240 ca        1 HS7      0.022500
     12 C6          4.1640   -1.1890   -4.1300 ca        1 HS7      0.022500
     13 C5          4.7500   -2.3710   -4.5510 ca        1 HS7     -0.148000
     14 C4          4.0560   -3.2300   -5.4110 ca        1 HS7      0.024000
     15 C2          2.7690   -2.8930   -5.8450 ca        1 HS7     -0.148000
     16 H8          2.4020    1.0780   -1.1760 h1        1 HS7      0.122200
     17 H8A         0.5930    1.3300   -1.0610 h1        1 HS7      0.122200
     18 HN1         0.2440   -0.3910   -2.4860 hn        1 HS7      0.422300
     19 H1          1.1690   -1.4440   -5.7820 ha        1 HS7      0.172500
     20 H6          4.7240   -0.5080   -3.4610 ha        1 HS7      0.172500
     21 H5          5.7680   -2.6340   -4.2120 ha        1 HS7      0.182000
     22 H4          4.5250   -4.1720   -5.7500 ha        1 HS7      0.179000
     23 H2          2.2230   -3.5670   -6.5280 ha        1 HS7      0.182000
     24 H12         1.6060   -1.2110   -2.1060 hn        1 HS7      0.422300
@<TRIPOS>BOND
     1    1    2 2   
     2    2    3 1   
     3    2    5 1   
     4    3    4 2   
     5    5    6 1   
     6    5   16 1   
     7    5   17 1   
     8    6   18 1   
     9    6   24 1   
    10    7    8 1   
    11    7    9 1   
    12    7   10 1   
    13   10   11 ar  
    14   10   12 ar  
    15   11   15 ar  
    16   11   19 1   
    17   12   13 ar  
    18   12   20 1   
    19   13   14 ar  
    20   13   21 1   
    21   14   15 ar  
    22   14   22 1   
    23   15   23 1   
@<TRIPOS>SUBSTRUCTURE
     1 HS7         1 TEMP              0 ****  ****    0 ROOT
