@<TRIPOS>MOLECULE
HS8
   23    23     1     0     0
SMALL
bcc


@<TRIPOS>ATOM
      1 N           2.8650    0.2180    1.4930 n3        1 HS8     -0.922800
      2 CA          2.8790   -0.2390    0.1080 c3        1 HS8     -0.004500
      3 CB          1.7650    0.3730   -0.7410 c3        1 HS8     -0.018100
      4 CG          0.4000    0.0220   -0.2980 cc        1 HS8     -0.064600
      5 ND1         0.0550   -0.3250    1.0200 na        1 HS8     -0.144100
      6 CE1        -1.2980   -0.5650    1.0620 cc        1 HS8     -0.064600
      7 NE2        -1.8440   -0.3840   -0.1790 na        1 HS8     -0.061600
      8 CD2        -0.8010   -0.0220   -1.0350 cd        1 HS8     -0.148300
      9 C           4.2430    0.0100   -0.6360 c         1 HS8      0.898600
     10 O           5.2310    0.3450    0.0730 o         1 HS8     -0.824300
     11 O3         -3.7190   -1.5970   -1.4940 o         1 HS8     -0.690533
     12 S          -3.7000   -0.5890   -0.5420 s6        1 HS8      1.532800
     13 O1         -4.1390   -0.9410    0.7360 o         1 HS8     -0.690533
     14 O2         -4.0630    0.6750   -0.9850 o         1 HS8     -0.690533
     15 OXT         4.2540   -0.1610   -1.8830 o         1 HS8     -0.824300
     16 H           3.6750   -0.1770    1.9440 hn        1 HS8      0.346800
     17 H2          2.9980    1.2140    1.5010 hn        1 HS8      0.346800
     18 HA          2.7370   -1.3580    0.1300 h1        1 HS8      0.047700
     19 HB2         1.8620    1.4940   -0.7520 hc        1 HS8      0.088200
     20 HB3         1.9190    0.0120   -1.7970 hc        1 HS8      0.088200
     21 HD2        -0.9660    0.1740   -2.0960 h4        1 HS8      0.205000
     22 HD1         0.7090   -0.3880    1.7710 hn        1 HS8      0.356700
     23 HE1        -1.8730   -0.8600    1.9530 h5        1 HS8      0.238000
@<TRIPOS>BOND
     1    1    2 1   
     2    1   16 1   
     3    1   17 1   
     4    2    3 1   
     5    2    9 1   
     6    2   18 1   
     7    3    4 1   
     8    3   19 1   
     9    3   20 1   
    10    4    5 1   
    11    4    8 2   
    12    5    6 2   
    13    5   22 1   
    14    6    7 1   
    15    6   23 1   
    16    7    8 1   
    17    7   12 1   
    18    8   21 1   
    19    9   10 1   
    20    9   15 1   
    21   11   12 1   
    22   12   13 1   
    23   12   14 1   
@<TRIPOS>SUBSTRUCTURE
     1 HS8         1 TEMP              0 ****  ****    0 ROOT
