@<TRIPOS>MOLECULE
HS9
   24    21     1     0     0
SMALL
bcc


@<TRIPOS>ATOM
      1 N          -2.2600   -0.4130   -0.2600 n3        1 HS9     -0.810200
      2 CA         -0.8550   -0.3690   -0.3100 c3        1 HS9      0.121500
      3 CB         -0.2910   -0.4060    1.1230 c3        1 HS9     -0.000200
      4 CG          1.1280    0.1580    1.1250 ce        1 HS9      0.302400
      5 ND1         2.1990   -0.4390    0.6270 n1        1 HS9     -0.979500
      6 CD2         1.5260    1.3170    1.7020 c1        1 HS9      0.122500
      7 CE1         3.2610    0.3290    0.8830 cg        1 HS9      0.280800
      8 NE2         2.8370    1.4170    1.5500 ne        1 HS9     -0.475400
      9 C          -0.3410   -1.5550   -1.0870 c         1 HS9      0.616100
     10 O          -0.2750   -2.6360   -0.5590 o         1 HS9     -0.634100
     11 NXT         0.0470   -1.4010   -2.4820 n         1 HS9     -0.634000
     12 CM         -2.7830    0.8500   -0.6120 c3        1 HS9      0.146100
     13 HA         -0.5750    0.4420   -0.7440 h1        1 HS9      0.077700
     14 HM1C       -2.3200    1.1850   -1.4170 h1        1 HS9      0.034700
     15 HM2C       -3.7830    0.7640   -0.8040 h1        1 HS9      0.034700
     16 HM3C       -2.6480    1.4740    0.1250 h1        1 HS9      0.034700
     17 H          -2.5540   -1.0190   -0.8220 hn        1 HS9      0.374800
     18 HB1C       -0.2740   -1.3530    1.4490 hc        1 HS9      0.071200
     19 HB2C       -0.8570    0.1310    1.7110 hc        1 HS9      0.071200
     20 HXT1       -0.5550   -1.5440   -3.1340 hn        1 HS9      0.306000
     21 HXT2        0.8800   -1.1380   -2.6890 hn        1 HS9      0.306000
     22 HD2         0.9430    1.9700    2.1510 DU        1 HS9      0.211000
     23 HE1         4.1920    0.1340    0.6280 DU        1 HS9      0.211000
     24 HE2         3.3590    2.1010    1.8460 DU        1 HS9      0.211000
@<TRIPOS>BOND
     1    1    2 1   
     2    1   12 1   
     3    1   17 1   
     4    2    3 1   
     5    2    9 1   
     6    2   13 1   
     7    3    4 1   
     8    3   18 1   
     9    3   19 1   
    10    4    5 1   
    11    4    6 2   
    12    5    7 3   
    13    6    8 2   
    14    7    8 1   
    15    9   10 2   
    16    9   11 1   
    17   11   20 1   
    18   11   21 1   
    19   12   14 1   
    20   12   15 1   
    21   12   16 1   
@<TRIPOS>SUBSTRUCTURE
     1 HS9         1 TEMP              0 ****  ****    0 ROOT
