@<TRIPOS>MOLECULE
HS9
   24    24     1     0     0
SMALL
bcc


@<TRIPOS>ATOM
      1 N          -0.9200   -1.4070   -0.5510 n3        1 HS9     -0.801200
      2 CA         -0.9380   -0.1020    0.0840 c3        1 HS9      0.113500
      3 CB          0.0220    0.8890   -0.6070 c3        1 HS9     -0.085700
      4 CG          1.4270    0.6110   -0.2470 cc        1 HS9      0.297600
      5 ND1         2.0180    1.0040    0.9650 nc        1 HS9     -0.674000
      6 CD2         2.3770   -0.0700   -1.0360 cd        1 HS9     -0.228600
      7 CE1         3.2940    0.5720    0.9080 cd        1 HS9      0.386400
      8 NE2         3.5580   -0.0890   -0.2990 na        1 HS9     -0.321900
      9 C          -2.3390    0.5570    0.0960 c         1 HS9      0.614100
     10 O          -3.2150    0.2550   -0.7430 o         1 HS9     -0.628100
     11 NXT        -2.6060    1.4860    1.0670 n         1 HS9     -0.670000
     12 CM         -1.5680   -2.4420    0.2140 c3        1 HS9      0.145100
     13 HA         -0.5960   -0.2400    1.1530 h1        1 HS9      0.085700
     14 HM1C       -1.5050   -3.3990   -0.3660 h1        1 HS9      0.035367
     15 HM2C       -1.0280   -2.5760    1.1880 h1        1 HS9      0.035367
     16 HM3C       -2.6500   -2.2270    0.4340 h1        1 HS9      0.035367
     17 H          -1.3310   -1.3410   -1.4670 hn        1 HS9      0.372800
     18 HB1C       -0.0950    0.8310   -1.7220 hc        1 HS9      0.060200
     19 HB2C       -0.2480    1.9330   -0.2920 hc        1 HS9      0.060200
     20 HXT1       -1.9050    1.7730    1.7000 hn        1 HS9      0.313000
     21 HXT2       -3.4810    1.9470    1.0800 hn        1 HS9      0.313000
     22 HD2         2.2870   -0.5290   -2.0190 h4        1 HS9      0.182000
     23 HE1         4.0490    0.7070    1.6880 h5        1 HS9      0.059100
     24 HE2         4.4090   -0.5020   -0.5710 hn        1 HS9      0.300700
@<TRIPOS>BOND
     1    1    2 1   
     2    1   12 1   
     3    1   17 1   
     4    2    3 1   
     5    2    9 1   
     6    2   13 1   
     7    3    4 1   
     8    3   18 1   
     9    3   19 1   
    10    4    5 1   
    11    4    6 2   
    12    5    7 2   
    13    6    8 1   
    14    6   22 1   
    15    7    8 1   
    16    7   23 1   
    17    8   24 1   
    18    9   10 2   
    19    9   11 1   
    20   11   20 1   
    21   11   21 1   
    22   12   14 1   
    23   12   15 1   
    24   12   16 1   
@<TRIPOS>SUBSTRUCTURE
     1 HS9         1 TEMP              0 ****  ****    0 ROOT
