@<TRIPOS>MOLECULE
HSA
   25    25     1     0     0
SMALL
bcc


@<TRIPOS>ATOM
      1 CB          0.0130   -0.4350   -0.3170 c3        1 HSA     -0.096700
      2 CG         -0.6130   -1.4430    0.5670 cc        1 HSA      0.317600
      3 CD2        -0.2360   -1.7830    1.8830 cd        1 HSA     -0.230600
      4 ND1        -1.7260   -2.2150    0.1890 nc        1 HSA     -0.677000
      5 CE1        -2.0120   -2.9970    1.2480 cd        1 HSA      0.358400
      6 NE2        -1.1260   -2.7690    2.3080 na        1 HSA     -0.337900
      7 C           2.1200    0.5830   -1.1540 c3        1 HSA      0.156400
      8 OP4         3.4290    0.9530   -0.8650 os        1 HSA     -0.576200
      9 P           3.7940    2.5640   -1.0070 p5        1 HSA      1.421800
     10 OP1         5.2460    2.7210   -0.8060 o         1 HSA     -0.829000
     11 OP2         2.9600    3.1190   -2.0890 o         1 HSA     -0.829000
     12 OP3         3.1580    2.9700    0.4510 oh        1 HSA     -0.792400
     13 N           1.5360    0.6760    1.3110 n3        1 HSA     -0.907800
     14 CA          1.4590   -0.0920    0.0790 c3        1 HSA      0.133500
     15 HB1        -0.6170    0.4960   -0.3110 hc        1 HSA      0.055700
     16 HB2         0.0240   -0.8210   -1.3730 hc        1 HSA      0.055700
     17 HD2         0.5650   -1.3960    2.5130 h4        1 HSA      0.200000
     18 HE1        -2.8240   -3.7270    1.3010 h5        1 HSA      0.043100
     19 HE2        -1.1290   -3.2110    3.1850 hn        1 HSA      0.287700
     20 H41         1.5190    1.4770   -1.4790 h1        1 HSA      0.032200
     21 H42         2.1380   -0.1730   -1.9900 h1        1 HSA      0.032200
     22 HN1         3.8310    3.0610    1.1140 ho        1 HSA      0.425000
     23 HN2         1.1390    1.5870    1.1660 hn        1 HSA      0.354300
     24 HA          2.0140   -1.0580    0.2690 h1        1 HSA      0.049700
     25 HN3         2.5050    0.8110    1.5410 hn        1 HSA      0.354300
@<TRIPOS>BOND
     1    1    2 1   
     2    1   14 1   
     3    1   15 1   
     4    1   16 1   
     5    2    3 2   
     6    2    4 1   
     7    3    6 1   
     8    3   17 1   
     9    4    5 2   
    10    5    6 1   
    11    5   18 1   
    12    6   19 1   
    13    7    8 1   
    14    7   14 1   
    15    7   20 1   
    16    7   21 1   
    17    8    9 1   
    18    9   10 1   
    19    9   11 1   
    20    9   12 1   
    21   12   22 1   
    22   13   14 1   
    23   13   23 1   
    24   13   25 1   
    25   14   24 1   
@<TRIPOS>SUBSTRUCTURE
     1 HSA         1 TEMP              0 ****  ****    0 ROOT
