@<TRIPOS>MOLECULE
HSA
   25    25     1     0     0
SMALL
bcc


@<TRIPOS>ATOM
      1 CB          0.0190   -0.4630   -0.3090 c3        1 HSA     -0.096700
      2 CG         -0.5590   -1.5060    0.5660 cc        1 HSA      0.317600
      3 CD2        -0.1550   -1.8510    1.8730 cd        1 HSA     -0.230600
      4 ND1        -1.6470   -2.3130    0.1880 nc        1 HSA     -0.677000
      5 CE1        -1.8910   -3.1220    1.2380 cd        1 HSA      0.358400
      6 NE2        -1.0030   -2.8760    2.2920 na        1 HSA     -0.337900
      7 C           2.0780    0.6420   -1.1570 c3        1 HSA      0.156400
      8 OP4         3.3770    1.0530   -0.8790 os        1 HSA     -0.576200
      9 P           3.6830    2.6790   -0.9990 p5        1 HSA      1.421800
     10 OP1         5.1310    2.8830   -0.8140 o         1 HSA     -0.829000
     11 OP2         2.8150    3.2210   -2.0610 o         1 HSA     -0.829000
     12 OP3         3.0530    3.0390    0.4730 oh        1 HSA     -0.792400
     13 N           1.5240    0.6760    1.3170 n8        1 HSA     -0.907800
     14 CA          1.4580   -0.0750    0.0730 c3        1 HSA      0.133500
     15 HB1        -0.6430    0.4450   -0.2800 hc        1 HSA      0.055700
     16 HB2         0.0290   -0.8310   -1.3710 hc        1 HSA      0.055700
     17 HD2         0.6380   -1.4440    2.5000 h4        1 HSA      0.200000
     18 HE1        -2.6740   -3.8820    1.2890 h5        1 HSA      0.043100
     19 HE2        -0.9800   -3.3310    3.1620 hn        1 HSA      0.287700
     20 H41         2.1110   -0.1000   -2.0050 h1        1 HSA      0.032200
     21 H42         1.4410    1.5200   -1.4600 h1        1 HSA      0.032200
     22 HN1         3.7320    3.1430    1.1290 ho        1 HSA      0.425000
     23 HN2         1.0940    1.5750    1.1910 hn        1 HSA      0.354300
     24 HA          2.0490   -1.0240    0.2410 h1        1 HSA      0.049700
     25 HN3         2.4910    0.8410    1.5360 hn        1 HSA      0.354300
@<TRIPOS>BOND
     1    1    2 1   
     2    1   14 1   
     3    1   15 1   
     4    1   16 1   
     5    2    3 2   
     6    2    4 1   
     7    3    6 1   
     8    3   17 1   
     9    4    5 2   
    10    5    6 1   
    11    5   18 1   
    12    6   19 1   
    13    7    8 1   
    14    7   14 1   
    15    7   20 1   
    16    7   21 1   
    17    8    9 1   
    18    9   10 1   
    19    9   11 1   
    20    9   12 1   
    21   12   22 1   
    22   13   14 1   
    23   13   23 1   
    24   13   25 1   
    25   14   24 1   
@<TRIPOS>SUBSTRUCTURE
     1 HSA         1 TEMP              0 ****  ****    0 ROOT
