@<TRIPOS>MOLECULE
HSA
   25    25     1     0     0
SMALL
bcc


@<TRIPOS>ATOM
      1 CB          0.0450   -0.4650   -0.3500 c3        1 HSA     -0.096700
      2 CG         -0.5650   -1.5100    0.5010 cc        1 HSA      0.317600
      3 CD2        -0.2150   -1.8490    1.8260 cd        1 HSA     -0.230600
      4 ND1        -1.6320   -2.3220    0.0800 nc        1 HSA     -0.677000
      5 CE1        -1.9180   -3.1290    1.1210 cd        1 HSA      0.358400
      6 NE2        -1.0760   -2.8760    2.2110 na        1 HSA     -0.337900
      7 C           2.1350    0.6420   -1.1170 c3        1 HSA      0.156400
      8 OP4         3.4210    1.0560   -0.7880 os        1 HSA     -0.576200
      9 P           3.7280    2.6820   -0.8980 p5        1 HSA      1.421800
     10 OP1         5.1680    2.8890   -0.6570 o         1 HSA     -0.829000
     11 OP2         2.9020    3.2200   -1.9950 o         1 HSA     -0.829000
     12 OP3         3.0400    3.0430    0.5470 oh        1 HSA     -0.792400
     13 N           1.4820    0.6790    1.3320 n3        1 HSA     -0.907800
     14 CA          1.4670   -0.0750    0.0890 c3        1 HSA      0.133500
     15 HB1         0.0980   -0.8340   -1.4110 hc        1 HSA      0.055700
     16 HB2        -0.6200    0.4410   -0.3480 hc        1 HSA      0.055700
     17 HD2         0.5480   -1.4370    2.4850 h4        1 HSA      0.200000
     18 HE1        -2.6990   -3.8920    1.1410 h5        1 HSA      0.043100
     19 HE2        -1.0880   -3.3290    3.0830 hn        1 HSA      0.287700
     20 H41         1.5090    1.5180   -1.4470 h1        1 HSA      0.032200
     21 H42         2.2030   -0.1020   -1.9620 h1        1 HSA      0.032200
     22 HN1         3.6920    3.1490    1.2290 ho        1 HSA      0.425000
     23 HN2         2.4380    0.8460    1.5900 hn        1 HSA      0.354300
     24 HA          2.0520   -1.0220    0.2810 h1        1 HSA      0.049700
     25 HN3         1.0560    1.5770    1.1880 hn        1 HSA      0.354300
@<TRIPOS>BOND
     1    1    2 1   
     2    1   14 1   
     3    1   15 1   
     4    1   16 1   
     5    2    3 2   
     6    2    4 1   
     7    3    6 1   
     8    3   17 1   
     9    4    5 2   
    10    5    6 1   
    11    5   18 1   
    12    6   19 1   
    13    7    8 1   
    14    7   14 1   
    15    7   20 1   
    16    7   21 1   
    17    8    9 1   
    18    9   10 1   
    19    9   11 1   
    20    9   12 1   
    21   12   22 1   
    22   13   14 1   
    23   13   23 1   
    24   13   25 1   
    25   14   24 1   
@<TRIPOS>SUBSTRUCTURE
     1 HSA         1 TEMP              0 ****  ****    0 ROOT
