@<TRIPOS>MOLECULE
HSA
   24    24     1     0     0
SMALL
bcc


@<TRIPOS>ATOM
      1 CB         -0.7950   -0.7150   -1.6840 c3        1 HSA     -0.104700
      2 CG         -0.4580   -0.3480   -3.0790 cc        1 HSA      0.332600
      3 CD2         0.6290    0.4500   -3.4980 cd        1 HSA     -0.225600
      4 ND1        -1.1920   -0.7570   -4.2070 nc        1 HSA     -0.688000
      5 CE1        -0.5660   -0.2220   -5.2740 cd        1 HSA      0.328400
      6 NE2         0.5530    0.5280   -4.8890 na        1 HSA     -0.345900
      7 C          -0.6860   -0.1400    0.7580 c3        1 HSA      0.206400
      8 OP4        -0.1500    0.6970    1.6970 os        1 HSA     -0.564200
      9 P           0.7900   -0.1010    2.9280 p5        1 HSA      1.316900
     10 OP1         2.0130   -0.4530    2.1140 o         1 HSA     -0.930500
     11 OP2         0.9560    0.9730    3.9640 o         1 HSA     -0.930500
     12 OP3        -0.0900   -1.2680    3.2840 o         1 HSA     -0.930500
     13 N           1.4210   -0.1880   -0.6440 n3        1 HSA     -0.938800
     14 CA         -0.0090    0.0870   -0.6340 c3        1 HSA      0.108500
     15 HB1        -0.6100   -1.8140   -1.5400 hc        1 HSA      0.045200
     16 HB2        -1.8910   -0.5370   -1.5130 hc        1 HSA      0.045200
     17 HD2         1.4150    0.9260   -2.9090 h4        1 HSA      0.216000
     18 HE1        -0.8680   -0.3370   -6.3160 h5        1 HSA      0.027100
     19 HE2         1.1790    0.9960   -5.4810 hn        1 HSA      0.275700
     20 H41        -1.7870    0.0900    0.6240 h1        1 HSA     -0.010800
     21 H42        -0.5770   -1.2200    1.0590 h1        1 HSA     -0.010800
     22 HN1         1.8080    0.2160    0.2130 hn        1 HSA      0.375300
     23 HN2         1.5560   -1.1790   -0.5450 hn        1 HSA      0.375300
     24 HA         -0.1180    1.1840   -0.8790 h1        1 HSA      0.027700
@<TRIPOS>BOND
     1    1    2 1   
     2    1   14 1   
     3    1   15 1   
     4    1   16 1   
     5    2    3 2   
     6    2    4 1   
     7    3    6 1   
     8    3   17 1   
     9    4    5 2   
    10    5    6 1   
    11    5   18 1   
    12    6   19 1   
    13    7    8 1   
    14    7   14 1   
    15    7   20 1   
    16    7   21 1   
    17    8    9 1   
    18    9   10 1   
    19    9   11 1   
    20    9   12 1   
    21   13   14 1   
    22   13   22 1   
    23   13   23 1   
    24   14   24 1   
@<TRIPOS>SUBSTRUCTURE
     1 HSA         1 TEMP              0 ****  ****    0 ROOT
