@<TRIPOS>MOLECULE
HSD
   25    25     1     0     0
SMALL
bcc


@<TRIPOS>ATOM
      1 N1          1.0610    2.7960    0.2790 n3        1 HSD     -0.906800
      2 C1          0.6790    1.5240   -0.3120 c3        1 HSD      0.152700
      3 C2         -0.7790    1.1920   -0.1890 c2        1 HSD     -0.165200
      4 C3         -1.2650   -0.0290    0.0630 c2        1 HSD     -0.156400
      5 C4         -2.7290   -0.3260    0.1040 c3        1 HSD      0.167600
      6 O1         -3.4610    0.8900    0.1050 oh        1 HSD     -0.597800
      7 C5         -0.3740   -1.1970    0.3530 c3        1 HSD      0.139300
      8 O2         -0.8270   -2.4040   -0.2500 oh        1 HSD     -0.600800
      9 C6          1.0480   -0.9870   -0.2040 c3        1 HSD      0.158100
     10 O3          1.9070   -1.9640    0.3590 oh        1 HSD     -0.583800
     11 C7          1.5890    0.3860    0.2230 c3        1 HSD      0.161100
     12 O4          2.8760    0.4970   -0.3610 oh        1 HSD     -0.584800
     13 H1          0.5590    3.5450   -0.1580 hn        1 HSD      0.353300
     14 H2          0.8650    2.8030    1.2610 hn        1 HSD      0.353300
     15 H3          0.8970    1.6090   -1.4250 h1        1 HSD      0.085700
     16 H4         -1.4740    2.0340   -0.3550 ha        1 HSD      0.146000
     17 H5         -3.0060   -0.9440   -0.7950 h1        1 HSD      0.032200
     18 H6         -2.9740   -0.9080    1.0360 h1        1 HSD      0.032200
     19 H7         -4.3900    0.6460    0.0130 ho        1 HSD      0.406000
     20 H8         -0.3140   -1.3410    1.4720 h1        1 HSD      0.057700
     21 H9         -1.6520   -2.6470    0.1870 ho        1 HSD      0.403000
     22 H10         1.0410   -1.0710   -1.3240 h1        1 HSD      0.068700
     23 H11         1.6210   -2.8120   -0.0040 ho        1 HSD      0.414000
     24 H12         1.6690    0.4220    1.3450 h1        1 HSD      0.050700
     25 H13         3.2500    1.3330   -0.0550 ho        1 HSD      0.416000
@<TRIPOS>BOND
     1    1    2 1   
     2    1   13 1   
     3    1   14 1   
     4    2    3 1   
     5    2   11 1   
     6    2   15 1   
     7    3    4 2   
     8    3   16 1   
     9    4    5 1   
    10    4    7 1   
    11    5    6 1   
    12    5   17 1   
    13    5   18 1   
    14    6   19 1   
    15    7    8 1   
    16    7    9 1   
    17    7   20 1   
    18    8   21 1   
    19    9   10 1   
    20    9   11 1   
    21    9   22 1   
    22   10   23 1   
    23   11   12 1   
    24   11   24 1   
    25   12   25 1   
@<TRIPOS>SUBSTRUCTURE
     1 HSD         1 TEMP              0 ****  ****    0 ROOT
