@<TRIPOS>MOLECULE
HSD
   26    26     1     0     0
SMALL
bcc


@<TRIPOS>ATOM
      1 N1         -0.1040   -0.0720   -0.0660 n4        1 HSD     -0.837600
      2 C1          1.3980    0.0180    0.0360 c3        1 HSD      0.174700
      3 C2          1.8590    0.0110    1.4530 c2        1 HSD     -0.264200
      4 C3          2.9190    0.7130    1.8820 c2        1 HSD     -0.010400
      5 C4          3.4360    0.6060    3.2810 c3        1 HSD      0.157600
      6 O1          2.5450   -0.1930    4.0430 oh        1 HSD     -0.613800
      7 C5          3.6770    1.6730    1.0060 c3        1 HSD      0.132300
      8 O2          5.0620    1.5160    1.2650 oh        1 HSD     -0.580800
      9 C6          3.4120    1.3890   -0.4860 c3        1 HSD      0.087100
     10 O3          3.8330    2.4840   -1.2800 oh        1 HSD     -0.597800
     11 C7          1.8970    1.2760   -0.7130 c3        1 HSD      0.129100
     12 O4          1.5580    1.0860   -2.0720 oh        1 HSD     -0.625800
     13 H1         -0.3670    0.0020   -1.0570 hn        1 HSD      0.464133
     14 H2         -0.4260   -0.9640    0.3170 hn        1 HSD      0.464133
     15 H3          1.7970   -0.9020   -0.4990 hx        1 HSD      0.127700
     16 H4          1.3360   -0.6710    2.1490 ha        1 HSD      0.179000
     17 H5          4.4650    0.1470    3.2500 h1        1 HSD      0.071700
     18 H6          3.5060    1.6350    3.7330 h1        1 HSD      0.071700
     19 H7          2.9820   -0.3670    4.8870 ho        1 HSD      0.432000
     20 H8          3.3430    2.7240    1.2490 h1        1 HSD      0.082700
     21 H9          5.4860    2.3600    1.0560 ho        1 HSD      0.427000
     22 H10         3.9360    0.4450   -0.8010 h1        1 HSD      0.084700
     23 H11         4.7890    2.4000   -1.3980 ho        1 HSD      0.437000
     24 H12         1.3930    2.2100   -0.3320 h1        1 HSD      0.074700
     25 H13         2.1010    1.6930   -2.5990 ho        1 HSD      0.467000
     26 H131       -0.5380    0.6930    0.4570 hn        1 HSD      0.464133
@<TRIPOS>BOND
     1    1    2 1   
     2    1   13 1   
     3    1   14 1   
     4    1   26 1   
     5    2    3 1   
     6    2   11 1   
     7    2   15 1   
     8    3    4 2   
     9    3   16 1   
    10    4    5 1   
    11    4    7 1   
    12    5    6 1   
    13    5   17 1   
    14    5   18 1   
    15    6   19 1   
    16    7    8 1   
    17    7    9 1   
    18    7   20 1   
    19    8   21 1   
    20    9   10 1   
    21    9   11 1   
    22    9   22 1   
    23   10   23 1   
    24   11   12 1   
    25   11   24 1   
    26   12   25 1   
@<TRIPOS>SUBSTRUCTURE
     1 HSD         1 TEMP              0 ****  ****    0 ROOT
