@<TRIPOS>MOLECULE
HSD
   26    26     1     0     0
SMALL
bcc


@<TRIPOS>ATOM
      1 N1         -0.1160   -0.0470   -0.0580 n4        1 HSD     -0.837600
      2 C1          1.3870    0.0280    0.0410 c3        1 HSD      0.174700
      3 C2          1.8510    0.0210    1.4560 c2        1 HSD     -0.264200
      4 C3          2.9200    0.7130    1.8800 c2        1 HSD     -0.010400
      5 C4          3.4390    0.6060    3.2780 c3        1 HSD      0.157600
      6 O1          2.5420   -0.1800    4.0450 oh        1 HSD     -0.612800
      7 C5          3.6860    1.6610    0.9990 c3        1 HSD      0.132300
      8 O2          5.0700    1.4910    1.2540 oh        1 HSD     -0.580800
      9 C6          3.4140    1.3750   -0.4920 c3        1 HSD      0.087100
     10 O3          3.8450    2.4620   -1.2910 oh        1 HSD     -0.597800
     11 C7          1.8980    1.2770   -0.7150 c3        1 HSD      0.129100
     12 O4          1.5530    1.0850   -2.0720 oh        1 HSD     -0.625800
     13 H1         -0.4470   -0.9340    0.3300 hn        1 HSD      0.464133
     14 H2         -0.3810    0.0250   -1.0480 hn        1 HSD      0.464133
     15 H3          1.7740   -0.8990   -0.4920 hx        1 HSD      0.127700
     16 H4          1.3230   -0.6530    2.1560 ha        1 HSD      0.179000
     17 H5          4.4630    0.1360    3.2460 h1        1 HSD      0.071700
     18 H6          3.5220    1.6360    3.7250 h1        1 HSD      0.071700
     19 H7          2.9800   -0.3560    4.8880 ho        1 HSD      0.432000
     20 H8          3.3640    2.7170    1.2380 h1        1 HSD      0.082700
     21 H9          5.5020    2.3290    1.0420 ho        1 HSD      0.427000
     22 H10         3.9270    0.4240   -0.8040 h1        1 HSD      0.084700
     23 H11         4.8000    2.3670   -1.4110 ho        1 HSD      0.437000
     24 H12         1.4050    2.2180   -0.3370 h1        1 HSD      0.074700
     25 H13         2.1010    1.6840   -2.6030 ho        1 HSD      0.467000
     26 H131       -0.5410    0.7250    0.4630 hn        1 HSD      0.464133
@<TRIPOS>BOND
     1    1    2 1   
     2    1   13 1   
     3    1   14 1   
     4    1   26 1   
     5    2    3 1   
     6    2   11 1   
     7    2   15 1   
     8    3    4 2   
     9    3   16 1   
    10    4    5 1   
    11    4    7 1   
    12    5    6 1   
    13    5   17 1   
    14    5   18 1   
    15    6   19 1   
    16    7    8 1   
    17    7    9 1   
    18    7   20 1   
    19    8   21 1   
    20    9   10 1   
    21    9   11 1   
    22    9   22 1   
    23   10   23 1   
    24   11   12 1   
    25   11   24 1   
    26   12   25 1   
@<TRIPOS>SUBSTRUCTURE
     1 HSD         1 TEMP              0 ****  ****    0 ROOT
