@<TRIPOS>MOLECULE
HSD
   26    26     1     0     0
SMALL
bcc


@<TRIPOS>ATOM
      1 N1         -0.1020   -0.0740   -0.0680 nz        1 HSD     -0.837600
      2 C1          1.3990    0.0170    0.0350 c3        1 HSD      0.174700
      3 C2          1.8590    0.0110    1.4520 c2        1 HSD     -0.264200
      4 C3          2.9190    0.7140    1.8820 c2        1 HSD     -0.010400
      5 C4          3.4340    0.6090    3.2820 c3        1 HSD      0.157600
      6 O1          2.5430   -0.1900    4.0430 oh        1 HSD     -0.612800
      7 C5          3.6770    1.6730    1.0060 c3        1 HSD      0.132300
      8 O2          5.0630    1.5180    1.2660 oh        1 HSD     -0.580800
      9 C6          3.4140    1.3890   -0.4860 c3        1 HSD      0.087100
     10 O3          3.8360    2.4830   -1.2800 oh        1 HSD     -0.597800
     11 C7          1.8990    1.2750   -0.7150 c3        1 HSD      0.129100
     12 O4          1.5610    1.0830   -2.0740 oh        1 HSD     -0.625800
     13 H1         -0.4240   -0.9650    0.3160 hn        1 HSD      0.464133
     14 H2         -0.3640   -0.0010   -1.0600 hn        1 HSD      0.464133
     15 H3          1.7990   -0.9030   -0.4990 hx        1 HSD      0.127700
     16 H4          1.3360   -0.6700    2.1480 ha        1 HSD      0.179000
     17 H5          3.5040    1.6380    3.7330 h1        1 HSD      0.071700
     18 H6          4.4630    0.1500    3.2520 h1        1 HSD      0.071700
     19 H7          2.9800   -0.3640    4.8870 ho        1 HSD      0.432000
     20 H8          3.3430    2.7250    1.2480 h1        1 HSD      0.082700
     21 H9          5.4860    2.3610    1.0580 ho        1 HSD      0.427000
     22 H10         3.9380    0.4440   -0.7990 h1        1 HSD      0.084700
     23 H11         4.7920    2.3990   -1.3980 ho        1 HSD      0.437000
     24 H12         1.3940    2.2090   -0.3350 h1        1 HSD      0.074700
     25 H13         2.1050    1.6900   -2.6010 ho        1 HSD      0.467000
     26 H131       -0.5370    0.6920    0.4530 hn        1 HSD      0.464133
@<TRIPOS>BOND
     1    1    2 1   
     2    1   13 1   
     3    1   14 1   
     4    1   26 1   
     5    2    3 1   
     6    2   11 1   
     7    2   15 1   
     8    3    4 2   
     9    3   16 1   
    10    4    5 1   
    11    4    7 1   
    12    5    6 1   
    13    5   17 1   
    14    5   18 1   
    15    6   19 1   
    16    7    8 1   
    17    7    9 1   
    18    7   20 1   
    19    8   21 1   
    20    9   10 1   
    21    9   11 1   
    22    9   22 1   
    23   10   23 1   
    24   11   12 1   
    25   11   24 1   
    26   12   25 1   
@<TRIPOS>SUBSTRUCTURE
     1 HSD         1 TEMP              0 ****  ****    0 ROOT
