@<TRIPOS>MOLECULE
HSE
   16    15     1     0     0
SMALL
bcc


@<TRIPOS>ATOM
      1 NA         -1.8230   -0.6460    0.5060 n3        1 HSE     -0.894800
      2 C1         -0.4070   -0.5520    0.5850 c3        1 HSE      0.015500
      3 C2          0.0000   -0.4830    2.0180 c         1 HSE      0.890600
      4 C3          0.0680    0.7280   -0.1480 c3        1 HSE     -0.063400
      5 O1         -0.4550    0.4430    2.7610 o         1 HSE     -0.842800
      6 O2          0.8850   -1.2770    2.4650 o         1 HSE     -0.842800
      7 C4          0.8920    0.3500   -1.3520 c3        1 HSE      0.129400
      8 O3          1.2940    1.5010   -2.0180 oh        1 HSE     -0.615800
      9 HN1        -2.1260   -1.3110    1.0950 hn        1 HSE      0.331300
     10 HN2        -2.0770   -0.8600   -0.3660 hn        1 HSE      0.331300
     11 H1          0.0120   -1.3630    0.1580 h1        1 HSE      0.039700
     12 H31         0.6240    1.2850    0.4780 hc        1 HSE      0.058700
     13 H32        -0.7170    1.2460   -0.4390 hc        1 HSE      0.058700
     14 H41         0.3660   -0.1920   -1.9430 h1        1 HSE      0.015200
     15 H42         1.6680   -0.1430   -1.0690 h1        1 HSE      0.015200
     16 HO3         1.7960    1.2750   -2.7310 ho        1 HSE      0.374000
@<TRIPOS>BOND
     1    1    2 1   
     2    1    9 1   
     3    1   10 1   
     4    2    3 1   
     5    2    4 1   
     6    2   11 1   
     7    3    5 1   
     8    3    6 1   
     9    4    7 1   
    10    4   12 1   
    11    4   13 1   
    12    7    8 1   
    13    7   14 1   
    14    7   15 1   
    15    8   16 1   
@<TRIPOS>SUBSTRUCTURE
     1 HSE         1 TEMP              0 ****  ****    0 ROOT
