@<TRIPOS>MOLECULE
HSE
   16    15     1     0     0
SMALL
bcc


@<TRIPOS>ATOM
      1 NA          1.8560    0.2430    0.0730 n3        1 HSE     -0.894800
      2 C1          0.4100    0.3930    0.1920 c3        1 HSE      0.015500
      3 C2         -0.1860   -0.1420    1.5380 c         1 HSE      0.890600
      4 C3         -0.3600   -0.2500   -0.9610 c3        1 HSE     -0.063400
      5 O1          0.6060   -0.6730    2.3680 o         1 HSE     -0.842800
      6 O2         -1.4240    0.0120    1.7260 o         1 HSE     -0.842800
      7 C4         -0.0630    0.4480   -2.2750 c3        1 HSE      0.129400
      8 O3         -0.8460   -0.1750   -3.2890 oh        1 HSE     -0.615800
      9 HN1         2.0630   -0.7290   -0.0760 hn        1 HSE      0.331300
     10 HN2         2.2520    0.4780    0.9700 hn        1 HSE      0.331300
     11 H1          0.2040    1.5040    0.1770 h1        1 HSE      0.039700
     12 H31        -0.1080   -1.3370   -1.0500 hc        1 HSE      0.058700
     13 H32        -1.4540   -0.1740   -0.7260 hc        1 HSE      0.058700
     14 H41        -0.3340    1.5370   -2.2110 h1        1 HSE      0.015200
     15 H42         1.0240    0.3630   -2.5420 h1        1 HSE      0.015200
     16 HO3        -0.6540    0.2990   -4.1040 ho        1 HSE      0.374000
@<TRIPOS>BOND
     1    1    2 1   
     2    1    9 1   
     3    1   10 1   
     4    2    3 1   
     5    2    4 1   
     6    2   11 1   
     7    3    5 1   
     8    3    6 1   
     9    4    7 1   
    10    4   12 1   
    11    4   13 1   
    12    7    8 1   
    13    7   14 1   
    14    7   15 1   
    15    8   16 1   
@<TRIPOS>SUBSTRUCTURE
     1 HSE         1 TEMP              0 ****  ****    0 ROOT
