@<TRIPOS>MOLECULE
HSF
   53    52     1     0     0
SMALL
bcc


@<TRIPOS>ATOM
      1 C1          0.0090    0.0180   -0.0420 c3        1 HSF     -0.385600
      2 C2          1.5230    0.0060   -0.0060 c3        1 HSF     -0.053400
      3 C3          2.0450    0.0130    1.4140 c3        1 HSF     -0.072400
      4 C4          3.5590    0.0010    1.4370 c3        1 HSF     -0.080400
      5 C5          4.0830    0.0090    2.8560 c3        1 HSF     -0.078400
      6 C6          5.5970   -0.0030    2.8810 c3        1 HSF     -0.079400
      7 C7          6.1230    0.0050    4.3000 c3        1 HSF     -0.078400
      8 C8          7.6360   -0.0050    4.3250 c3        1 HSF     -0.079400
      9 C9          8.1620    0.0040    5.7440 c3        1 HSF     -0.079400
     10 C10         9.6760   -0.0060    5.7690 c3        1 HSF     -0.079400
     11 C11        10.2020    0.0030    7.1880 c3        1 HSF     -0.079400
     12 C12        11.7150   -0.0060    7.2130 c3        1 HSF     -0.079400
     13 C13        12.2420    0.0030    8.6320 c3        1 HSF     -0.079400
     14 C14        13.7550   -0.0060    8.6570 c3        1 HSF     -0.079400
     15 C15        14.2830    0.0030   10.0760 c3        1 HSF     -0.080400
     16 C16        15.7900   -0.0050   10.1060 c3        1 HSF     -0.092100
     17 S1         -0.5760    0.0100   -1.6330 s6        1 HSF      1.663700
     18 O1S        -0.2950    1.2040   -2.2650 o         1 HSF     -0.669800
     19 O2S        -0.3170   -1.1990   -2.2440 o         1 HSF     -0.669800
     20 F          -2.0920    0.0260   -1.4130 f         1 HSF     -0.289900
     21 H11        -0.3460    0.9180    0.5310 h1        1 HSF      0.125700
     22 H12        -0.3610   -0.8650    0.5460 h1        1 HSF      0.125700
     23 H21         1.9150    0.9060   -0.5520 hc        1 HSF      0.060700
     24 H22         1.9000   -0.9110   -0.5370 hc        1 HSF      0.060700
     25 H31         1.6520   -0.8820    1.9640 hc        1 HSF      0.043700
     26 H32         1.6670    0.9240    1.9490 hc        1 HSF      0.043700
     27 H41         3.9360   -0.9100    0.9010 hc        1 HSF      0.043700
     28 H42         3.9510    0.8960    0.8850 hc        1 HSF      0.043700
     29 H51         3.7050    0.9190    3.3930 hc        1 HSF      0.040700
     30 H52         3.6920   -0.8870    3.4070 hc        1 HSF      0.040700
     31 H61         5.9890    0.8920    2.3290 hc        1 HSF      0.040700
     32 H62         5.9750   -0.9130    2.3450 hc        1 HSF      0.040700
     33 H71         5.7440    0.9150    4.8370 hc        1 HSF      0.039700
     34 H72         5.7310   -0.8900    4.8510 hc        1 HSF      0.039700
     35 H81         8.0150   -0.9150    3.7890 hc        1 HSF      0.039700
     36 H82         8.0270    0.8900    3.7730 hc        1 HSF      0.039700
     37 H91         7.7830    0.9130    6.2800 hc        1 HSF      0.039700
     38 H92         7.7710   -0.8920    6.2960 hc        1 HSF      0.039700
     39 H101       10.0660    0.8900    5.2180 hc        1 HSF      0.039700
     40 H102       10.0550   -0.9150    5.2330 hc        1 HSF      0.039700
     41 H111        9.8120   -0.8930    7.7400 hc        1 HSF      0.039700
     42 H112        9.8220    0.9120    7.7250 hc        1 HSF      0.039700
     43 H121       12.0950   -0.9150    6.6770 hc        1 HSF      0.039700
     44 H122       12.1060    0.8900    6.6620 hc        1 HSF      0.039700
     45 H131       11.8620    0.9120    9.1690 hc        1 HSF      0.039700
     46 H132       11.8510   -0.8930    9.1840 hc        1 HSF      0.039700
     47 H141       14.1350   -0.9150    8.1210 hc        1 HSF      0.039700
     48 H142       14.1460    0.8900    8.1060 hc        1 HSF      0.039700
     49 H151       13.8900   -0.8930   10.6260 hc        1 HSF      0.038700
     50 H152       13.9010    0.9120   10.6110 hc        1 HSF      0.038700
     51 H161       16.1570    0.0010   11.1600 hc        1 HSF      0.032700
     52 H162       16.1990    0.8930    9.5840 hc        1 HSF      0.032700
     53 H163       16.1890   -0.9170    9.5980 hc        1 HSF      0.032700
@<TRIPOS>BOND
     1    1    2 1   
     2    1   17 1   
     3    1   21 1   
     4    1   22 1   
     5    2    3 1   
     6    2   23 1   
     7    2   24 1   
     8    3    4 1   
     9    3   25 1   
    10    3   26 1   
    11    4    5 1   
    12    4   27 1   
    13    4   28 1   
    14    5    6 1   
    15    5   29 1   
    16    5   30 1   
    17    6    7 1   
    18    6   31 1   
    19    6   32 1   
    20    7    8 1   
    21    7   33 1   
    22    7   34 1   
    23    8    9 1   
    24    8   35 1   
    25    8   36 1   
    26    9   10 1   
    27    9   37 1   
    28    9   38 1   
    29   10   11 1   
    30   10   39 1   
    31   10   40 1   
    32   11   12 1   
    33   11   41 1   
    34   11   42 1   
    35   12   13 1   
    36   12   43 1   
    37   12   44 1   
    38   13   14 1   
    39   13   45 1   
    40   13   46 1   
    41   14   15 1   
    42   14   47 1   
    43   14   48 1   
    44   15   16 1   
    45   15   49 1   
    46   15   50 1   
    47   16   51 1   
    48   16   52 1   
    49   16   53 1   
    50   17   18 2   
    51   17   19 2   
    52   17   20 1   
@<TRIPOS>SUBSTRUCTURE
     1 HSF         1 TEMP              0 ****  ****    0 ROOT
