@<TRIPOS>MOLECULE
HSF
   53    52     1     0     0
SMALL
bcc


@<TRIPOS>ATOM
      1 C1          0.7090    0.0120   -6.3930 c3        1 HSF     -0.385600
      2 C2         -0.1630    0.0100   -5.1540 c3        1 HSF     -0.053400
      3 C3          0.6680    0.0100   -3.8900 c3        1 HSF     -0.072400
      4 C4         -0.2140    0.0090   -2.6600 c3        1 HSF     -0.080400
      5 C5          0.6150    0.0080   -1.3930 c3        1 HSF     -0.078400
      6 C6         -0.2660    0.0060   -0.1620 c3        1 HSF     -0.079400
      7 C7          0.5620    0.0050    1.1050 c3        1 HSF     -0.078400
      8 C8         -0.3180    0.0040    2.3360 c3        1 HSF     -0.079400
      9 C9          0.5100    0.0030    3.6030 c3        1 HSF     -0.079400
     10 C10        -0.3700    0.0020    4.8350 c3        1 HSF     -0.079400
     11 C11         0.4570    0.0010    6.1020 c3        1 HSF     -0.079400
     12 C12        -0.4230   -0.0010    7.3330 c3        1 HSF     -0.079400
     13 C13         0.4050   -0.0020    8.6000 c3        1 HSF     -0.079400
     14 C14        -0.4750   -0.0030    9.8320 c3        1 HSF     -0.079400
     15 C15         0.3510   -0.0040   11.1000 c3        1 HSF     -0.080400
     16 C16        -0.5210   -0.0050   12.3290 c3        1 HSF     -0.092100
     17 S1         -0.2220    0.0120   -7.8100 s6        1 HSF      1.663700
     18 O1S        -0.8820   -1.1890   -7.9630 o         1 HSF     -0.669800
     19 O2S        -0.8830    1.2140   -7.9610 o         1 HSF     -0.669800
     20 F           0.8570    0.0130   -8.8970 f         1 HSF     -0.289900
     21 H11         1.3910    0.9030   -6.3380 h1        1 HSF      0.125700
     22 H12         1.3920   -0.8800   -6.3390 h1        1 HSF      0.125700
     23 H21        -0.8240   -0.8980   -5.1660 hc        1 HSF      0.060700
     24 H22        -0.8250    0.9190   -5.1650 hc        1 HSF      0.060700
     25 H31         1.3330    0.9130   -3.8770 hc        1 HSF      0.043700
     26 H32         1.3340   -0.8930   -3.8780 hc        1 HSF      0.043700
     27 H41        -0.8800   -0.8950   -2.6750 hc        1 HSF      0.043700
     28 H42        -0.8800    0.9110   -2.6730 hc        1 HSF      0.043700
     29 H51         1.2810    0.9100   -1.3790 hc        1 HSF      0.040700
     30 H52         1.2810   -0.8950   -1.3800 hc        1 HSF      0.040700
     31 H61        -0.9320   -0.8960   -0.1770 hc        1 HSF      0.040700
     32 H62        -0.9320    0.9090   -0.1750 hc        1 HSF      0.040700
     33 H71         1.2280    0.9080    1.1190 hc        1 HSF      0.039700
     34 H72         1.2290   -0.8970    1.1180 hc        1 HSF      0.039700
     35 H81        -0.9840   -0.8990    2.3210 hc        1 HSF      0.039700
     36 H82        -0.9850    0.9070    2.3230 hc        1 HSF      0.039700
     37 H91         1.1760    0.9060    3.6180 hc        1 HSF      0.039700
     38 H92         1.1760   -0.8990    3.6160 hc        1 HSF      0.039700
     39 H101       -1.0360   -0.9010    4.8200 hc        1 HSF      0.039700
     40 H102       -1.0370    0.9040    4.8210 hc        1 HSF      0.039700
     41 H111        1.1230    0.9030    6.1170 hc        1 HSF      0.039700
     42 H112        1.1240   -0.9020    6.1150 hc        1 HSF      0.039700
     43 H121       -1.0890   -0.9030    7.3180 hc        1 HSF      0.039700
     44 H122       -1.0900    0.9020    7.3200 hc        1 HSF      0.039700
     45 H131        1.0710    0.9010    8.6150 hc        1 HSF      0.039700
     46 H132        1.0710   -0.9040    8.6140 hc        1 HSF      0.039700
     47 H141       -1.1420   -0.9060    9.8170 hc        1 HSF      0.039700
     48 H142       -1.1420    0.8990    9.8190 hc        1 HSF      0.039700
     49 H151        1.0180    0.8990   11.1120 hc        1 HSF      0.038700
     50 H152        1.0180   -0.9060   11.1110 hc        1 HSF      0.038700
     51 H161        0.1080   -0.0060   13.2520 hc        1 HSF      0.032700
     52 H162       -1.1760    0.9000   12.3490 hc        1 HSF      0.032700
     53 H163       -1.1760   -0.9100   12.3470 hc        1 HSF      0.032700
@<TRIPOS>BOND
     1    1    2 1   
     2    1   17 1   
     3    1   21 1   
     4    1   22 1   
     5    2    3 1   
     6    2   23 1   
     7    2   24 1   
     8    3    4 1   
     9    3   25 1   
    10    3   26 1   
    11    4    5 1   
    12    4   27 1   
    13    4   28 1   
    14    5    6 1   
    15    5   29 1   
    16    5   30 1   
    17    6    7 1   
    18    6   31 1   
    19    6   32 1   
    20    7    8 1   
    21    7   33 1   
    22    7   34 1   
    23    8    9 1   
    24    8   35 1   
    25    8   36 1   
    26    9   10 1   
    27    9   37 1   
    28    9   38 1   
    29   10   11 1   
    30   10   39 1   
    31   10   40 1   
    32   11   12 1   
    33   11   41 1   
    34   11   42 1   
    35   12   13 1   
    36   12   43 1   
    37   12   44 1   
    38   13   14 1   
    39   13   45 1   
    40   13   46 1   
    41   14   15 1   
    42   14   47 1   
    43   14   48 1   
    44   15   16 1   
    45   15   49 1   
    46   15   50 1   
    47   16   51 1   
    48   16   52 1   
    49   16   53 1   
    50   17   18 2   
    51   17   19 2   
    52   17   20 1   
@<TRIPOS>SUBSTRUCTURE
     1 HSF         1 TEMP              0 ****  ****    0 ROOT
