@<TRIPOS>MOLECULE
HSF
   53    52     1     0     0
SMALL
bcc


@<TRIPOS>ATOM
      1 C1          0.0090    0.0150   -0.0410 c3        1 HSF     -0.385600
      2 C2          1.5230    0.0040   -0.0060 c3        1 HSF     -0.053400
      3 C3          2.0450    0.0120    1.4140 c3        1 HSF     -0.072400
      4 C4          3.5580    0.0020    1.4370 c3        1 HSF     -0.080400
      5 C5          4.0830    0.0100    2.8560 c3        1 HSF     -0.078400
      6 C6          5.5970   -0.0000    2.8810 c3        1 HSF     -0.079400
      7 C7          6.1230    0.0080    4.3000 c3        1 HSF     -0.078400
      8 C8          7.6360   -0.0020    4.3250 c3        1 HSF     -0.079400
      9 C9          8.1620    0.0070    5.7440 c3        1 HSF     -0.079400
     10 C10         9.6760   -0.0040    5.7690 c3        1 HSF     -0.079400
     11 C11        10.2020    0.0050    7.1880 c3        1 HSF     -0.079400
     12 C12        11.7160   -0.0050    7.2130 c3        1 HSF     -0.079400
     13 C13        12.2420    0.0040    8.6320 c3        1 HSF     -0.079400
     14 C14        13.7550   -0.0070    8.6570 c3        1 HSF     -0.079400
     15 C15        14.2830    0.0020   10.0760 c3        1 HSF     -0.080400
     16 C16        15.7900   -0.0080   10.1050 c3        1 HSF     -0.092100
     17 S1         -0.5770    0.0060   -1.6330 s6        1 HSF      1.663700
     18 O1S        -0.2980    1.2000   -2.2640 o         1 HSF     -0.669800
     19 O2S        -0.3150   -1.2030   -2.2440 o         1 HSF     -0.669800
     20 F          -2.0920    0.0180   -1.4120 f         1 HSF     -0.289900
     21 H11        -0.3470    0.9130    0.5320 h1        1 HSF      0.125700
     22 H12        -0.3600   -0.8700    0.5460 h1        1 HSF      0.125700
     23 H21         1.9140    0.9050   -0.5520 hc        1 HSF      0.060700
     24 H22         1.9010   -0.9120   -0.5370 hc        1 HSF      0.060700
     25 H31         1.6530   -0.8830    1.9640 hc        1 HSF      0.043700
     26 H32         1.6660    0.9220    1.9490 hc        1 HSF      0.043700
     27 H41         3.9370   -0.9090    0.9010 hc        1 HSF      0.043700
     28 H42         3.9500    0.8970    0.8850 hc        1 HSF      0.043700
     29 H51         3.7050    0.9200    3.3920 hc        1 HSF      0.040700
     30 H52         3.6920   -0.8850    3.4080 hc        1 HSF      0.040700
     31 H61         5.9880    0.8950    2.3290 hc        1 HSF      0.040700
     32 H62         5.9760   -0.9100    2.3450 hc        1 HSF      0.040700
     33 H71         5.7440    0.9180    4.8360 hc        1 HSF      0.039700
     34 H72         5.7310   -0.8870    4.8520 hc        1 HSF      0.039700
     35 H81         8.0150   -0.9120    3.7890 hc        1 HSF      0.039700
     36 H82         8.0270    0.8930    3.7730 hc        1 HSF      0.039700
     37 H91         7.7840    0.9170    6.2800 hc        1 HSF      0.039700
     38 H92         7.7710   -0.8880    6.2960 hc        1 HSF      0.039700
     39 H101       10.0670    0.8910    5.2170 hc        1 HSF      0.039700
     40 H102       10.0550   -0.9140    5.2330 hc        1 HSF      0.039700
     41 H111        9.8110   -0.8900    7.7400 hc        1 HSF      0.039700
     42 H112        9.8230    0.9150    7.7240 hc        1 HSF      0.039700
     43 H121       12.0940   -0.9150    6.6770 hc        1 HSF      0.039700
     44 H122       12.1070    0.8900    6.6610 hc        1 HSF      0.039700
     45 H131       11.8630    0.9140    9.1680 hc        1 HSF      0.039700
     46 H132       11.8510   -0.8910    9.1840 hc        1 HSF      0.039700
     47 H141       14.1340   -0.9170    8.1210 hc        1 HSF      0.039700
     48 H142       14.1470    0.8880    8.1050 hc        1 HSF      0.039700
     49 H151       13.8890   -0.8930   10.6260 hc        1 HSF      0.038700
     50 H152       13.9020    0.9120   10.6100 hc        1 HSF      0.038700
     51 H161       16.1580   -0.0020   11.1600 hc        1 HSF      0.032700
     52 H162       16.2010    0.8890    9.5830 hc        1 HSF      0.032700
     53 H163       16.1880   -0.9210    9.5990 hc        1 HSF      0.032700
@<TRIPOS>BOND
     1    1    2 1   
     2    1   17 1   
     3    1   21 1   
     4    1   22 1   
     5    2    3 1   
     6    2   23 1   
     7    2   24 1   
     8    3    4 1   
     9    3   25 1   
    10    3   26 1   
    11    4    5 1   
    12    4   27 1   
    13    4   28 1   
    14    5    6 1   
    15    5   29 1   
    16    5   30 1   
    17    6    7 1   
    18    6   31 1   
    19    6   32 1   
    20    7    8 1   
    21    7   33 1   
    22    7   34 1   
    23    8    9 1   
    24    8   35 1   
    25    8   36 1   
    26    9   10 1   
    27    9   37 1   
    28    9   38 1   
    29   10   11 1   
    30   10   39 1   
    31   10   40 1   
    32   11   12 1   
    33   11   41 1   
    34   11   42 1   
    35   12   13 1   
    36   12   43 1   
    37   12   44 1   
    38   13   14 1   
    39   13   45 1   
    40   13   46 1   
    41   14   15 1   
    42   14   47 1   
    43   14   48 1   
    44   15   16 1   
    45   15   49 1   
    46   15   50 1   
    47   16   51 1   
    48   16   52 1   
    49   16   53 1   
    50   17   18 2   
    51   17   19 2   
    52   17   20 1   
@<TRIPOS>SUBSTRUCTURE
     1 HSF         1 TEMP              0 ****  ****    0 ROOT
