@<TRIPOS>MOLECULE
HSF
   53    51     1     0     0
SMALL
bcc


@<TRIPOS>ATOM
      1 C1         -7.3150   -0.0150   -4.5880 c3        1 HSF     -0.421100
      2 C2         -5.8020    0.0070   -4.5840 c3        1 HSF     -0.051400
      3 C3         -5.3010    0.0300   -3.1570 c3        1 HSF     -0.073400
      4 C4         -3.7890    0.0210   -3.1530 c3        1 HSF     -0.080400
      5 C5         -3.2880    0.0210   -1.7260 c3        1 HSF     -0.078400
      6 C6         -1.7750   -0.0150   -1.7220 c3        1 HSF     -0.079400
      7 C7         -1.2740    0.0310   -0.2950 c3        1 HSF     -0.079400
      8 C8          0.2390    0.0420   -0.2930 c3        1 HSF     -0.079400
      9 C9          0.7410    0.0620    1.1340 c3        1 HSF     -0.079400
     10 C10         2.2510   -0.0290    1.1390 c3        1 HSF     -0.079400
     11 C11         2.7540    0.0040    2.5650 c3        1 HSF     -0.079400
     12 C12         4.2670   -0.0130    2.5670 c3        1 HSF     -0.079400
     13 C13         4.7690   -0.0080    3.9940 c3        1 HSF     -0.079400
     14 C14         6.2820   -0.0170    3.9960 c3        1 HSF     -0.079400
     15 C15         6.7840   -0.0610    5.4230 c3        1 HSF     -0.080400
     16 C16         8.2970   -0.0710    5.4250 c3        1 HSF     -0.092100
     17 S1         -7.9030    0.0290   -6.2600 s4        1 HSF      1.675500
     18 O1S        -7.4100   -1.0890   -7.0150 o         1 HSF     -0.557900
     19 O2S        -9.3200   -0.1960   -6.3200 o         1 HSF     -0.557900
     20 F          -7.5160    1.3800   -6.9320 f         1 HSF     -0.492000
     21 H11        -7.6530    0.7640   -4.1030 h1        1 HSF      0.128200
     22 H12        -7.6300   -0.8320   -4.1530 h1        1 HSF      0.128200
     23 H21        -5.4870    0.8060   -5.0530 hc        1 HSF      0.058700
     24 H22        -5.4630   -0.7910   -5.0360 hc        1 HSF      0.058700
     25 H31        -5.6240    0.8380   -2.7110 hc        1 HSF      0.043700
     26 H32        -5.6330   -0.7590   -2.6830 hc        1 HSF      0.043700
     27 H41        -3.4570    0.8170   -3.6150 hc        1 HSF      0.043700
     28 H42        -3.4660   -0.7800   -3.6120 hc        1 HSF      0.043700
     29 H51        -3.5960    0.8310   -1.2720 hc        1 HSF      0.040700
     30 H52        -3.6340   -0.7660   -1.2590 hc        1 HSF      0.040700
     31 H61        -1.4670   -0.8390   -2.1490 hc        1 HSF      0.040700
     32 H62        -1.4300    0.7570   -2.2140 hc        1 HSF      0.040700
     33 H71        -1.5950   -0.7560    0.1890 hc        1 HSF      0.039700
     34 H72        -1.6060    0.8400    0.1420 hc        1 HSF      0.039700
     35 H81         0.5600    0.8380   -0.7620 hc        1 HSF      0.039700
     36 H82         0.5720   -0.7590   -0.7450 hc        1 HSF      0.039700
     37 H91         0.4630    0.8940    1.5660 hc        1 HSF      0.039700
     38 H92         0.3670   -0.7000    1.6220 hc        1 HSF      0.039700
     39 H101        2.5290   -0.8650    0.7150 hc        1 HSF      0.039700
     40 H102        2.6250    0.7280    0.6440 hc        1 HSF      0.039700
     41 H111        2.4370    0.8180    3.0040 hc        1 HSF      0.039700
     42 H112        2.4190   -0.7780    3.0470 hc        1 HSF      0.039700
     43 H121        4.6020    0.7790    2.1010 hc        1 HSF      0.039700
     44 H122        4.5850   -0.8190    2.1130 hc        1 HSF      0.039700
     45 H131        4.4380   -0.8020    4.4600 hc        1 HSF      0.039700
     46 H132        4.4470    0.7950    4.4510 hc        1 HSF      0.039700
     47 H141        6.6040   -0.8030    3.5130 hc        1 HSF      0.039700
     48 H142        6.6130    0.7930    3.5590 hc        1 HSF      0.039700
     49 H151        6.4530   -0.8700    5.8600 hc        1 HSF      0.038700
     50 H152        6.4630    0.7260    5.9060 hc        1 HSF      0.038700
     51 H161        8.6300    0.7230    4.9560 hc        1 HSF      0.032700
     52 H162        8.6190   -0.8770    4.9700 hc        1 HSF      0.032700
     53 H163        8.6230   -0.0640    6.3490 hc        1 HSF      0.032700
@<TRIPOS>BOND
     1    1    2 1   
     2    1   17 1   
     3    1   21 1   
     4    1   22 1   
     5    2    3 1   
     6    2   23 1   
     7    2   24 1   
     8    3    4 1   
     9    3   25 1   
    10    3   26 1   
    11    4    5 1   
    12    4   27 1   
    13    4   28 1   
    14    5    6 1   
    15    5   29 1   
    16    5   30 1   
    17    6    7 1   
    18    6   31 1   
    19    6   32 1   
    20    7    8 1   
    21    7   33 1   
    22    7   34 1   
    23    8    9 1   
    24    8   35 1   
    25    8   36 1   
    26    9   10 1   
    27    9   37 1   
    28    9   38 1   
    29   10   11 1   
    30   10   39 1   
    31   10   40 1   
    32   11   12 1   
    33   11   41 1   
    34   11   42 1   
    35   12   13 1   
    36   12   43 1   
    37   12   44 1   
    38   13   14 1   
    39   13   45 1   
    40   13   46 1   
    41   14   15 1   
    42   14   47 1   
    43   14   48 1   
    44   15   16 1   
    45   15   49 1   
    46   15   50 1   
    47   16   51 1   
    48   16   52 1   
    49   16   53 1   
    50   17   18 1   
    51   17   19 1   
@<TRIPOS>SUBSTRUCTURE
     1 HSF         1 TEMP              0 ****  ****    0 ROOT
