@<TRIPOS>MOLECULE
HSG
   48    48     1     0     0
SMALL
bcc


@<TRIPOS>ATOM
      1 C1         -6.3510    3.6110   -3.5040 c3        1 HSG     -0.093100
      2 C2         -4.9570    3.0540   -3.8010 c3        1 HSG     -0.080400
      3 C3         -4.5040    2.1500   -2.6290 c3        1 HSG     -0.079400
      4 C4         -3.0480    1.7370   -2.8330 c3        1 HSG     -0.079400
      5 C5         -2.5940    0.8620   -1.6600 c3        1 HSG     -0.078400
      6 C6         -1.0710    0.6500   -1.7410 c3        1 HSG     -0.078400
      7 C7         -0.5940   -0.1050   -0.5150 c3        1 HSG     -0.085400
      8 C8          0.9670   -0.1430   -0.5010 c3        1 HSG      0.138400
      9 O1          1.4280   -0.6340    0.7870 os        1 HSG     -0.470600
     10 C9          2.8050   -0.4530    1.0030 c3        1 HSG      0.334900
     11 O2          3.4770   -1.7510    0.8810 os        1 HSG     -0.436600
     12 C10         3.1470   -2.6730    1.9750 c3        1 HSG      0.068100
     13 C11         4.0200   -3.9030    1.8650 c3        1 HSG      0.140400
     14 O3          3.9830   -4.3990    0.5260 oh        1 HSG     -0.597800
     15 C12         3.3520   -2.0470    3.3390 c3        1 HSG      0.094100
     16 O4          2.8340   -2.9450    4.3490 oh        1 HSG     -0.585800
     17 C13         2.6700   -0.7430    3.4670 c3        1 HSG      0.081100
     18 O5          1.2150   -0.9640    3.4730 oh        1 HSG     -0.598800
     19 C14         3.0100    0.1790    2.3590 c3        1 HSG      0.093100
     20 O6          4.3880    0.5700    2.4850 oh        1 HSG     -0.582800
     21 H1         -6.9410    2.8850   -3.2430 hc        1 HSG      0.032700
     22 H2         -6.2940    4.2550   -2.7840 hc        1 HSG      0.032700
     23 H3         -6.7100    4.0520   -4.3140 hc        1 HSG      0.032700
     24 H4         -4.3270    3.7910   -3.9040 hc        1 HSG      0.038700
     25 H5         -4.9840    2.5350   -4.6190 hc        1 HSG      0.038700
     26 H6         -4.5880    2.6380   -1.7930 hc        1 HSG      0.040200
     27 H7         -5.0730    1.3410   -2.5970 hc        1 HSG      0.040200
     28 H8         -2.4800    2.5430   -2.8820 hc        1 HSG      0.040200
     29 H9         -2.9680    1.2310   -3.6640 hc        1 HSG      0.040200
     30 H10        -2.8210    1.3060   -0.8120 hc        1 HSG      0.042200
     31 H11        -3.0550   -0.0210   -1.7070 hc        1 HSG      0.042200
     32 H12        -0.6240    1.5160   -1.7850 hc        1 HSG      0.042200
     33 H13        -0.8590    0.1310   -2.5440 hc        1 HSG      0.042200
     34 H14        -0.9130    0.3380    0.2830 hc        1 HSG      0.054200
     35 H15        -0.9420   -1.0220   -0.5410 hc        1 HSG      0.054200
     36 H16         1.2870   -0.7420   -1.2130 h1        1 HSG      0.038700
     37 H17         1.3220    0.7730   -0.6530 h1        1 HSG      0.038700
     38 H18         3.1500    0.1410    0.3290 h2        1 HSG      0.099700
     39 H19         2.2110   -2.9420    1.8890 h1        1 HSG      0.060700
     40 H20         4.9340   -3.6740    2.0990 h1        1 HSG      0.064700
     41 H21         3.6970   -4.5780    2.4640 h1        1 HSG      0.064700
     42 H22         4.4320   -5.1860    0.4830 ho        1 HSG      0.408000
     43 H23         4.3000   -1.9230    3.4870 h1        1 HSG      0.098700
     44 H24         3.4110   -2.9740    5.0540 ho        1 HSG      0.416000
     45 H25         2.9310   -0.3320    4.3080 h1        1 HSG      0.087700
     46 H26         0.8580   -0.5660    4.1810 ho        1 HSG      0.423000
     47 H27         2.4340    0.9910    2.4270 h1        1 HSG      0.070700
     48 H28         4.4350    1.4420    2.7260 ho        1 HSG      0.411000
@<TRIPOS>BOND
     1    1    2 1   
     2    1   21 1   
     3    1   22 1   
     4    1   23 1   
     5    2    3 1   
     6    2   24 1   
     7    2   25 1   
     8    3    4 1   
     9    3   26 1   
    10    3   27 1   
    11    4    5 1   
    12    4   28 1   
    13    4   29 1   
    14    5    6 1   
    15    5   30 1   
    16    5   31 1   
    17    6    7 1   
    18    6   32 1   
    19    6   33 1   
    20    7    8 1   
    21    7   34 1   
    22    7   35 1   
    23    8    9 1   
    24    8   36 1   
    25    8   37 1   
    26    9   10 1   
    27   10   11 1   
    28   10   19 1   
    29   10   38 1   
    30   11   12 1   
    31   12   13 1   
    32   12   15 1   
    33   12   39 1   
    34   13   14 1   
    35   13   40 1   
    36   13   41 1   
    37   14   42 1   
    38   15   16 1   
    39   15   17 1   
    40   15   43 1   
    41   16   44 1   
    42   17   18 1   
    43   17   19 1   
    44   17   45 1   
    45   18   46 1   
    46   19   20 1   
    47   19   47 1   
    48   20   48 1   
@<TRIPOS>SUBSTRUCTURE
     1 HSG         1 TEMP              0 ****  ****    0 ROOT
