@<TRIPOS>MOLECULE
HSG
   48    48     1     0     0
SMALL
bcc


@<TRIPOS>ATOM
      1 C1          8.7590    0.1510    0.7820 c3        1 HSG     -0.093100
      2 C2          7.5730    0.3820   -0.1180 c3        1 HSG     -0.080400
      3 C3          6.2960   -0.1480    0.4980 c3        1 HSG     -0.079400
      4 C4          5.1080    0.0860   -0.4110 c3        1 HSG     -0.079400
      5 C5          3.8320   -0.4440    0.2070 c3        1 HSG     -0.078400
      6 C6          2.6450   -0.2100   -0.7020 c3        1 HSG     -0.078400
      7 C7          1.3720   -0.7420   -0.0810 c3        1 HSG     -0.084400
      8 C8          0.1940   -0.5010   -1.0060 c3        1 HSG      0.137400
      9 O1         -0.9590   -1.0310   -0.3420 os        1 HSG     -0.465600
     10 C9         -2.1640   -0.8560   -1.0640 c3        1 HSG      0.297900
     11 O2         -2.4180    0.5300   -1.1030 os        1 HSG     -0.439600
     12 C10        -2.7230    1.1280    0.1620 c3        1 HSG      0.067100
     13 C11        -2.9980    2.6030   -0.1390 c3        1 HSG      0.140400
     14 O3         -1.8240    3.2650   -0.5570 oh        1 HSG     -0.597800
     15 C12        -3.9430    0.4530    0.8010 c3        1 HSG      0.093100
     16 O4         -4.2490    1.0590    2.0390 oh        1 HSG     -0.585800
     17 C13        -3.6980   -1.0540    0.9740 c3        1 HSG      0.118100
     18 O5         -2.7640   -1.2930    2.0080 oh        1 HSG     -0.598800
     19 C14        -3.2390   -1.6970   -0.3430 c3        1 HSG      0.095100
     20 O6         -4.3910   -1.8200   -1.1580 oh        1 HSG     -0.578800
     21 H1          8.6140    0.6650    1.7640 hc        1 HSG      0.032700
     22 H2          8.9000   -0.9390    0.9760 hc        1 HSG      0.032700
     23 H3          9.6890    0.5490    0.3090 hc        1 HSG      0.032700
     24 H4          7.4620    1.4800   -0.3220 hc        1 HSG      0.038200
     25 H5          7.7470   -0.1200   -1.1070 hc        1 HSG      0.038200
     26 H6          6.4040   -1.2460    0.7000 hc        1 HSG      0.040200
     27 H7          6.1190    0.3540    1.4850 hc        1 HSG      0.040200
     28 H8          5.0000    1.1850   -0.6130 hc        1 HSG      0.040200
     29 H9          5.2850   -0.4150   -1.3980 hc        1 HSG      0.040200
     30 H10         3.9400   -1.5420    0.4100 hc        1 HSG      0.042200
     31 H11         3.6550    0.0590    1.1940 hc        1 HSG      0.042200
     32 H12         2.5360    0.8890   -0.9030 hc        1 HSG      0.042200
     33 H13         2.8220   -0.7120   -1.6890 hc        1 HSG      0.042200
     34 H14         1.4690   -1.8400    0.1220 hc        1 HSG      0.054700
     35 H15         1.1810   -0.2380    0.9020 hc        1 HSG      0.054700
     36 H16         0.0380    0.5950   -1.1950 h1        1 HSG      0.038200
     37 H17         0.3290   -1.0310   -1.9860 h1        1 HSG      0.038200
     38 H18        -2.0600   -1.1510   -2.1470 h2        1 HSG      0.076700
     39 H19        -1.8250    1.0310    0.8340 h1        1 HSG      0.060700
     40 H20        -3.7990    2.6920   -0.9200 h1        1 HSG      0.065200
     41 H21        -3.3170    3.1190    0.8060 h1        1 HSG      0.065200
     42 H22        -1.5170    2.8170   -1.3550 ho        1 HSG      0.407000
     43 H23        -4.8530    0.6120    0.1570 h1        1 HSG      0.102700
     44 H24        -3.6130    0.7250    2.6890 ho        1 HSG      0.415000
     45 H25        -4.6470   -1.5480    1.3290 h1        1 HSG      0.107700
     46 H26        -1.8840   -1.0620    1.6760 ho        1 HSG      0.421000
     47 H27        -2.8020   -2.7120   -0.1220 h1        1 HSG      0.071700
     48 H28        -4.1220   -2.2910   -1.9560 ho        1 HSG      0.408000
@<TRIPOS>BOND
     1    1    2 1   
     2    1   21 1   
     3    1   22 1   
     4    1   23 1   
     5    2    3 1   
     6    2   24 1   
     7    2   25 1   
     8    3    4 1   
     9    3   26 1   
    10    3   27 1   
    11    4    5 1   
    12    4   28 1   
    13    4   29 1   
    14    5    6 1   
    15    5   30 1   
    16    5   31 1   
    17    6    7 1   
    18    6   32 1   
    19    6   33 1   
    20    7    8 1   
    21    7   34 1   
    22    7   35 1   
    23    8    9 1   
    24    8   36 1   
    25    8   37 1   
    26    9   10 1   
    27   10   11 1   
    28   10   19 1   
    29   10   38 1   
    30   11   12 1   
    31   12   13 1   
    32   12   15 1   
    33   12   39 1   
    34   13   14 1   
    35   13   40 1   
    36   13   41 1   
    37   14   42 1   
    38   15   16 1   
    39   15   17 1   
    40   15   43 1   
    41   16   44 1   
    42   17   18 1   
    43   17   19 1   
    44   17   45 1   
    45   18   46 1   
    46   19   20 1   
    47   19   47 1   
    48   20   48 1   
@<TRIPOS>SUBSTRUCTURE
     1 HSG         1 TEMP              0 ****  ****    0 ROOT
