@<TRIPOS>MOLECULE
HSH
   48    48     1     0     0
SMALL
bcc


@<TRIPOS>ATOM
      1 C1         -7.1540    2.8520   -3.3300 c3        1 HSH     -0.093100
      2 C2         -5.7340    2.3400   -3.5900 c3        1 HSH     -0.080400
      3 C3         -5.2230    1.5780   -2.3470 c3        1 HSH     -0.079400
      4 C4         -3.7520    1.1690   -2.5650 c3        1 HSH     -0.079400
      5 C5         -3.2060    0.5140   -1.2820 c3        1 HSH     -0.078400
      6 C6         -1.6950    0.2580   -1.4360 c3        1 HSH     -0.078400
      7 C7         -1.1420   -0.3230   -0.1390 c3        1 HSH     -0.085400
      8 C8          0.3900   -0.2390   -0.1550 c3        1 HSH      0.137400
      9 O1          0.9230   -0.7110    1.1240 os        1 HSH     -0.423600
     10 C9          2.3180   -0.5670    1.2450 c3        1 HSH      0.311900
     11 O2          2.9500   -1.8570    0.9700 os        1 HSH     -0.440600
     12 C10         4.3970   -1.8550    1.2340 c3        1 HSH      0.111100
     13 C11         4.9090   -3.2440    1.1050 c3        1 HSH      0.143400
     14 O3          5.1380   -3.5350   -0.2450 oh        1 HSH     -0.599800
     15 C12         4.7360   -1.3360    2.6290 c3        1 HSH      0.124100
     16 O4          4.2770   -2.2850    3.5950 oh        1 HSH     -0.591800
     17 C13         4.1090   -0.0310    2.9100 c3        1 HSH      0.111100
     18 O5          4.3330    0.3100    4.3220 oh        1 HSH     -0.607800
     19 C14         2.6460   -0.0410    2.6410 c3        1 HSH      0.086100
     20 O6          2.1460    1.2880    2.7630 oh        1 HSH     -0.607800
     21 H1         -7.7550    2.0940   -3.2040 hc        1 HSH      0.032700
     22 H2         -7.1580    3.4090   -2.5260 hc        1 HSH      0.032700
     23 H3         -7.4530    3.3810   -4.0930 hc        1 HSH      0.032700
     24 H4         -5.1380    3.1040   -3.7740 hc        1 HSH      0.038700
     25 H5         -5.7400    1.7340   -4.3670 hc        1 HSH      0.038700
     26 H6         -5.2890    2.1580   -1.5570 hc        1 HSH      0.040200
     27 H7         -5.7700    0.7730   -2.2090 hc        1 HSH      0.040200
     28 H8         -3.2200    1.9650   -2.7770 hc        1 HSH      0.040200
     29 H9         -3.6960    0.5260   -3.3120 hc        1 HSH      0.040200
     30 H10        -3.6720   -0.3470   -1.1280 hc        1 HSH      0.041700
     31 H11        -3.3630    1.1160   -0.5130 hc        1 HSH      0.041700
     32 H12        -1.2370    1.1040   -1.6370 hc        1 HSH      0.041200
     33 H13        -1.5430   -0.3800   -2.1720 hc        1 HSH      0.041200
     34 H14        -1.4190   -1.2640   -0.0580 hc        1 HSH      0.055200
     35 H15        -1.4870    0.1810    0.6140 hc        1 HSH      0.055200
     36 H16         0.6640    0.6900   -0.2990 h1        1 HSH      0.037700
     37 H17         0.7400   -0.7980   -0.8800 h1        1 HSH      0.037700
     38 H18         2.6250    0.0790    0.5860 h2        1 HSH      0.048700
     39 H19         4.8380   -1.2920    0.5710 h1        1 HSH      0.052700
     40 H20         4.2450   -3.8720    1.4670 h1        1 HSH      0.067200
     41 H21         5.7430   -3.3290    1.6020 h1        1 HSH      0.067200
     42 H22         5.7450   -4.1770   -0.3090 ho        1 HSH      0.412000
     43 H23         5.7130   -1.2450    2.7090 h1        1 HSH      0.056700
     44 H24         4.9130   -2.4280    4.1910 ho        1 HSH      0.425000
     45 H25         4.5270    0.6450    2.3520 h1        1 HSH      0.057700
     46 H26         4.7660    1.0800    4.3750 ho        1 HSH      0.431000
     47 H27         2.2030   -0.6130    3.3100 h1        1 HSH      0.086700
     48 H28         1.8520    1.4190    3.5890 ho        1 HSH      0.427000
@<TRIPOS>BOND
     1    1    2 1   
     2    1   21 1   
     3    1   22 1   
     4    1   23 1   
     5    2    3 1   
     6    2   24 1   
     7    2   25 1   
     8    3    4 1   
     9    3   26 1   
    10    3   27 1   
    11    4    5 1   
    12    4   28 1   
    13    4   29 1   
    14    5    6 1   
    15    5   30 1   
    16    5   31 1   
    17    6    7 1   
    18    6   32 1   
    19    6   33 1   
    20    7    8 1   
    21    7   34 1   
    22    7   35 1   
    23    8    9 1   
    24    8   36 1   
    25    8   37 1   
    26    9   10 1   
    27   10   11 1   
    28   10   19 1   
    29   10   38 1   
    30   11   12 1   
    31   12   13 1   
    32   12   15 1   
    33   12   39 1   
    34   13   14 1   
    35   13   40 1   
    36   13   41 1   
    37   14   42 1   
    38   15   16 1   
    39   15   17 1   
    40   15   43 1   
    41   16   44 1   
    42   17   18 1   
    43   17   19 1   
    44   17   45 1   
    45   18   46 1   
    46   19   20 1   
    47   19   47 1   
    48   20   48 1   
@<TRIPOS>SUBSTRUCTURE
     1 HSH         1 TEMP              0 ****  ****    0 ROOT
