@<TRIPOS>MOLECULE
HSH
   48    48     1     0     0
SMALL
bcc


@<TRIPOS>ATOM
      1 C1          9.2300    0.0130    0.5020 c3        1 HSH     -0.093100
      2 C2          7.9680    0.5300   -0.1390 c3        1 HSH     -0.080400
      3 C3          6.7460   -0.2070    0.3670 c3        1 HSH     -0.079400
      4 C4          5.4810    0.3160   -0.2800 c3        1 HSH     -0.079400
      5 C5          4.2600   -0.4210    0.2270 c3        1 HSH     -0.078400
      6 C6          2.9960    0.1020   -0.4210 c3        1 HSH     -0.078400
      7 C7          1.7790   -0.6380    0.0890 c3        1 HSH     -0.085400
      8 C8          0.5220   -0.1010   -0.5710 c3        1 HSH      0.137400
      9 O1         -0.5690   -0.8540   -0.0260 os        1 HSH     -0.423600
     10 C9         -1.8230   -0.5070   -0.5690 c3        1 HSH      0.311900
     11 O2         -2.0290    0.8180   -0.0950 os        1 HSH     -0.440600
     12 C10        -3.3250    1.3330   -0.4010 c3        1 HSH      0.111100
     13 C11        -3.3690    2.7250    0.2390 c3        1 HSH      0.143400
     14 O3         -2.3840    3.5660   -0.3220 oh        1 HSH     -0.599800
     15 C12        -4.4640    0.4470    0.1250 c3        1 HSH      0.124100
     16 O4         -4.4870    0.5360    1.5380 oh        1 HSH     -0.591800
     17 C13        -4.2640   -1.0040   -0.3480 c3        1 HSH      0.111100
     18 O5         -5.2530   -1.7820    0.3020 oh        1 HSH     -0.607800
     19 C14        -2.8540   -1.4810    0.0290 c3        1 HSH      0.086100
     20 O6         -2.6970   -2.7780   -0.5160 oh        1 HSH     -0.607800
     21 H1          9.1890    0.1400    1.6110 hc        1 HSH      0.032700
     22 H2          9.3690   -1.0730    0.2800 hc        1 HSH      0.032700
     23 H3         10.1180    0.5690    0.1150 hc        1 HSH      0.032700
     24 H4          7.8590    1.6260    0.0740 hc        1 HSH      0.038700
     25 H5          8.0380    0.4160   -1.2540 hc        1 HSH      0.038700
     26 H6          6.8530   -1.3030    0.1530 hc        1 HSH      0.040200
     27 H7          6.6740   -0.0930    1.4800 hc        1 HSH      0.040200
     28 H8          5.3750    1.4120   -0.0660 hc        1 HSH      0.040200
     29 H9          5.5540    0.2020   -1.3940 hc        1 HSH      0.040200
     30 H10         4.3670   -1.5180    0.0130 hc        1 HSH      0.041700
     31 H11         4.1870   -0.3070    1.3410 hc        1 HSH      0.041700
     32 H12         2.8890    1.1980   -0.2060 hc        1 HSH      0.041200
     33 H13         3.0690   -0.0130   -1.5350 hc        1 HSH      0.041200
     34 H14         1.8730   -1.7340   -0.1240 hc        1 HSH      0.055200
     35 H15         1.6910   -0.5220    1.2010 hc        1 HSH      0.055200
     36 H16         0.3730    0.9870   -0.3410 h1        1 HSH      0.037700
     37 H17         0.5520   -0.2450   -1.6830 h1        1 HSH      0.037700
     38 H18        -1.8200   -0.5300   -1.6940 h2        1 HSH      0.048700
     39 H19        -3.4240    1.4100   -1.5210 h1        1 HSH      0.052700
     40 H20        -4.3490    3.2160    0.0050 h1        1 HSH      0.067200
     41 H21        -3.2330    2.6330    1.3490 h1        1 HSH      0.067200
     42 H22        -1.5270    3.1680   -0.1210 ho        1 HSH      0.412000
     43 H23        -5.4440    0.8270   -0.2820 h1        1 HSH      0.056700
     44 H24        -5.0940   -0.1500    1.8510 ho        1 HSH      0.425000
     45 H25        -4.4040   -1.0730   -1.4620 h1        1 HSH      0.057700
     46 H26        -5.0320   -2.7090    0.1340 ho        1 HSH      0.431000
     47 H27        -2.7440   -1.5070    1.1490 h1        1 HSH      0.086700
     48 H28        -1.8030   -3.0650   -0.2850 ho        1 HSH      0.427000
@<TRIPOS>BOND
     1    1    2 1   
     2    1   21 1   
     3    1   22 1   
     4    1   23 1   
     5    2    3 1   
     6    2   24 1   
     7    2   25 1   
     8    3    4 1   
     9    3   26 1   
    10    3   27 1   
    11    4    5 1   
    12    4   28 1   
    13    4   29 1   
    14    5    6 1   
    15    5   30 1   
    16    5   31 1   
    17    6    7 1   
    18    6   32 1   
    19    6   33 1   
    20    7    8 1   
    21    7   34 1   
    22    7   35 1   
    23    8    9 1   
    24    8   36 1   
    25    8   37 1   
    26    9   10 1   
    27   10   11 1   
    28   10   19 1   
    29   10   38 1   
    30   11   12 1   
    31   12   13 1   
    32   12   15 1   
    33   12   39 1   
    34   13   14 1   
    35   13   40 1   
    36   13   41 1   
    37   14   42 1   
    38   15   16 1   
    39   15   17 1   
    40   15   43 1   
    41   16   44 1   
    42   17   18 1   
    43   17   19 1   
    44   17   45 1   
    45   18   46 1   
    46   19   20 1   
    47   19   47 1   
    48   20   48 1   
@<TRIPOS>SUBSTRUCTURE
     1 HSH         1 TEMP              0 ****  ****    0 ROOT
