@<TRIPOS>MOLECULE
HSI
   52    48     1     0     0
SMALL
bcc


@<TRIPOS>ATOM
      1 C60        -3.7110    3.9720   -6.2300 c3        1 HSI     -0.208000
      2 C56        -2.4860    3.0190   -6.2390 c3        1 HSI     -0.159000
      3 C52        -2.0920    2.6530   -4.7810 c3        1 HSI     -0.158000
      4 C48        -0.8170    1.8410   -4.7960 c3        1 HSI     -0.155000
      5 C44        -0.2540    1.7610   -3.3880 c3        1 HSI     -0.160000
      6 C40         1.0520    0.9700   -3.4010 c3        1 HSI     -0.149000
      7 C9          1.5720    0.7900   -1.9520 c3        1 HSI     -0.134000
      8 C5          3.0010    1.1950   -1.8920 c3        1 HSI     -0.225000
      9 C3          3.1100    2.6880   -1.4400 c2        1 HSI      0.329000
     10 O1          2.5270    3.0720   -0.4110 o         1 HSI     -0.576000
     11 O4          3.7580    3.5190   -2.1490 o         1 HSI     -0.576000
     12 C11         1.4430   -0.6710   -1.5430 c2        1 HSI      0.275000
     13 O12         1.7490   -1.5340   -2.3150 o         1 HSI     -0.334000
     14 C13         1.1670   -1.0280   -0.0740 c2        1 HSI     -0.136000
     15 C14         2.2280   -1.3510    0.7650 c2        1 HSI     -0.099000
     16 C16         1.9800   -1.8320    2.0580 c1        1 HSI     -0.136000
     17 C18         0.6820   -1.9860    2.4980 c1        1 HSI      0.009000
     18 C25         0.3980   -2.3660    4.0160 c1        1 HSI     -0.046000
     19 C26         0.1730   -2.6550    5.1790 c1        1 HSI     -0.168000
     20 C27        -0.1070   -3.0130    6.6070 c1        1 HSI      0.060000
     21 C28        -0.8790   -2.2020    7.3740 c2        1 HSI     -0.106000
     22 C30        -1.2360   -2.5990    8.6740 c1        1 HSI     -0.127000
     23 C32        -0.8020   -3.8120    9.1710 c1        1 HSI     -0.066000
     24 CL1        -1.1770   -4.2590   10.8210 cl        1 HSI     -0.032000
     25 C33        -0.0100   -4.6450    8.3840 c1        1 HSI     -0.129000
     26 C35         0.3380   -4.2610    7.1200 c1        1 HSI     -0.110000
     27 C19        -0.3900   -1.6590    1.6480 c1        1 HSI     -0.115000
     28 C21        -0.1420   -1.1820    0.3670 c1        1 HSI     -0.090000
     29 H601       -4.3920    3.6000   -5.7110 hc        1 HSI      0.066667
     30 H602       -3.4540    4.8220   -5.8600 hc        1 HSI      0.066667
     31 H603       -4.0430    4.1030   -7.1810 hc        1 HSI      0.066667
     32 H561       -1.7230    3.4670   -6.6810 hc        1 HSI      0.076000
     33 H562       -2.7240    2.1620   -6.7540 hc        1 HSI      0.076000
     34 H521       -2.7940    2.1360   -4.3770 hc        1 HSI      0.077000
     35 H522       -1.9550    3.4560   -4.2740 hc        1 HSI      0.077000
     36 H481       -1.0130    0.9260   -5.1280 hc        1 HSI      0.077500
     37 H482       -0.1630    2.2680   -5.3850 hc        1 HSI      0.077500
     38 H441       -0.8910    1.3190   -2.8120 hc        1 HSI      0.078000
     39 H442       -0.0780    2.6990   -3.0460 hc        1 HSI      0.078000
     40 H401        0.8930    0.0750   -3.8090 hc        1 HSI      0.093500
     41 H402        1.7310    1.4630   -3.9350 hc        1 HSI      0.093500
     42 H9          1.0340    1.3580   -1.3280 hc        1 HSI      0.136000
     43 H51         3.4030    1.0950   -2.7790 hc        1 HSI      0.076000
     44 H52         3.4810    0.6180   -1.2440 hc        1 HSI      0.076000
     45 H14         3.1200   -1.2450    0.4610 ha        1 HSI      0.145000
     46 H16         2.7200   -1.9940    2.6640 ha        1 HSI      0.126000
     47 H28        -1.2460   -1.4190    7.0060 ha        1 HSI      0.150000
     48 H30        -1.7740   -2.0380    9.2070 ha        1 HSI      0.145000
     49 H33         0.2700   -5.4900    8.7160 ha        1 HSI      0.142000
     50 H35         0.7930   -4.9030    6.5210 ha        1 HSI      0.144000
     51 H19        -1.3520   -1.8340    1.9500 ha        1 HSI      0.144000
     52 H21        -0.9160   -1.0710   -0.2920 ha        1 HSI      0.235000
@<TRIPOS>BOND
     1    1    2 1   
     2    1   29 1   
     3    1   30 1   
     4    1   31 1   
     5    2    3 1   
     6    2   32 1   
     7    2   33 1   
     8    3    4 1   
     9    3   34 1   
    10    3   35 1   
    11    4    5 1   
    12    4   36 1   
    13    4   37 1   
    14    5    6 1   
    15    5   38 1   
    16    5   39 1   
    17    6    7 1   
    18    6   40 1   
    19    6   41 1   
    20    7    8 1   
    21    7   12 1   
    22    7   42 1   
    23    8    9 1   
    24    8   43 1   
    25    8   44 1   
    26    9   10 1   
    27    9   11 1   
    28   12   13 1   
    29   12   14 1   
    30   14   15 1   
    31   14   28 1   
    32   15   16 1   
    33   15   45 1   
    34   16   46 1   
    35   17   18 1   
    36   17   27 1   
    37   18   19 1   
    38   20   21 1   
    39   20   26 1   
    40   21   22 1   
    41   21   47 1   
    42   22   48 1   
    43   23   24 1   
    44   23   25 1   
    45   25   49 1   
    46   26   50 1   
    47   27   51 1   
    48   28   52 1   
@<TRIPOS>SUBSTRUCTURE
     1 HSI         1 TEMP              0 ****  ****    0 ROOT
