@<TRIPOS>MOLECULE
HSI
   52    53     1     0     0
SMALL
bcc


@<TRIPOS>ATOM
      1 C60         0.1280   -0.1020   -0.4070 c3        1 HSI     -0.090100
      2 C56         1.6290   -0.1480   -0.2840 c3        1 HSI     -0.080400
      3 C52         2.0730   -0.0430    1.1600 c3        1 HSI     -0.079400
      4 C48         3.5810   -0.0900    1.2790 c3        1 HSI     -0.076400
      5 C44         4.0240    0.0140    2.7230 c3        1 HSI     -0.081400
      6 C40         5.5330   -0.0280    2.8370 c3        1 HSI     -0.070400
      7 C9          5.9960    0.0820    4.2820 c3        1 HSI     -0.144700
      8 C5          7.4900    0.3790    4.3460 c3        1 HSI     -0.196400
      9 C3          7.7520    1.8830    4.5620 c         1 HSI      0.909600
     10 O1          8.5620    2.4610    3.7890 o         1 HSI     -0.841300
     11 O4          7.1520    2.4560    5.5220 o         1 HSI     -0.841300
     12 C11         5.6900   -1.1730    5.0630 c         1 HSI      0.584700
     13 O12         5.5930   -2.2900    4.5310 o         1 HSI     -0.573100
     14 C13         5.4940   -1.0310    6.5300 ca        1 HSI     -0.156600
     15 C14         5.9020    0.1140    7.2250 ca        1 HSI     -0.094500
     16 C16         5.6940    0.2040    8.6010 ca        1 HSI     -0.125500
     17 C18         5.0750   -0.8440    9.3000 ca        1 HSI      0.005000
     18 C25         4.8620   -0.7490   10.6870 cg        1 HSI     -0.042000
     19 C26         4.6810   -0.6650   11.8710 ch        1 HSI     -0.164000
     20 C27         4.4710   -0.5630   13.2550 ca        1 HSI      0.056000
     21 C28         4.8720    0.5910   13.9500 ca        1 HSI     -0.108000
     22 C30         4.6640    0.6950   15.3230 ca        1 HSI     -0.128000
     23 C32         4.0530   -0.3570   16.0110 ca        1 HSI      0.012400
     24 Cl1         3.7980   -0.2320   17.6900 cl        1 HSI     -0.110400
     25 C33         3.6480   -1.5110   15.3340 ca        1 HSI     -0.128000
     26 C35         3.8570   -1.6120   13.9610 ca        1 HSI     -0.108000
     27 C19         4.6700   -1.9940    8.6000 ca        1 HSI     -0.125500
     28 C21         4.8830   -2.0830    7.2300 ca        1 HSI     -0.094500
     29 H601       -0.2720    0.8570    0.0050 hc        1 HSI      0.027367
     30 H602       -0.1790   -0.1800   -1.4780 hc        1 HSI      0.027367
     31 H603       -0.3400   -0.9450    0.1560 hc        1 HSI      0.027367
     32 H561        2.0140   -1.1050   -0.7240 hc        1 HSI      0.036700
     33 H562        2.0810    0.6920   -0.8750 hc        1 HSI      0.036700
     34 H521        1.6910    0.9140    1.6020 hc        1 HSI      0.037700
     35 H522        1.6230   -0.8830    1.7530 hc        1 HSI      0.037700
     36 H481        3.9640   -1.0470    0.8370 hc        1 HSI      0.038200
     37 H482        4.0320    0.7510    0.6870 hc        1 HSI      0.038200
     38 H441        3.6380    0.9710    3.1650 hc        1 HSI      0.038700
     39 H442        3.5830   -0.8320    3.3140 hc        1 HSI      0.038700
     40 H401        5.9170   -0.9850    2.3940 hc        1 HSI      0.054200
     41 H402        5.9790    0.8240    2.2580 hc        1 HSI      0.054200
     42 H9          5.4480    0.9430    4.7680 hc        1 HSI      0.096700
     43 H51         7.9580   -0.1660    5.2050 hc        1 HSI      0.036700
     44 H52         7.9960    0.0430    3.4080 hc        1 HSI      0.036700
     45 H14         6.3970    0.9620    6.6890 ha        1 HSI      0.190000
     46 H16         6.0190    1.1080    9.1380 ha        1 HSI      0.135000
     47 H28         5.3530    1.4170   13.4030 ha        1 HSI      0.147000
     48 H30         4.9810    1.6020   15.8600 ha        1 HSI      0.143500
     49 H33         3.1680   -2.3370   15.8790 ha        1 HSI      0.143500
     50 H35         3.5410   -2.5180   13.4240 ha        1 HSI      0.147000
     51 H19         4.1880   -2.8210    9.1400 ha        1 HSI      0.135000
     52 H21         4.5770   -2.9860    6.6770 ha        1 HSI      0.190000
@<TRIPOS>BOND
     1    1    2 1   
     2    1   29 1   
     3    1   30 1   
     4    1   31 1   
     5    2    3 1   
     6    2   32 1   
     7    2   33 1   
     8    3    4 1   
     9    3   34 1   
    10    3   35 1   
    11    4    5 1   
    12    4   36 1   
    13    4   37 1   
    14    5    6 1   
    15    5   38 1   
    16    5   39 1   
    17    6    7 1   
    18    6   40 1   
    19    6   41 1   
    20    7    8 1   
    21    7   12 1   
    22    7   42 1   
    23    8    9 1   
    24    8   43 1   
    25    8   44 1   
    26    9   10 1   
    27    9   11 1   
    28   12   13 2   
    29   12   14 1   
    30   14   15 ar  
    31   14   28 ar  
    32   15   16 ar  
    33   15   45 1   
    34   16   17 ar  
    35   16   46 1   
    36   17   18 1   
    37   17   27 ar  
    38   18   19 3   
    39   19   20 1   
    40   20   21 ar  
    41   20   26 ar  
    42   21   22 ar  
    43   21   47 1   
    44   22   23 ar  
    45   22   48 1   
    46   23   24 1   
    47   23   25 ar  
    48   25   26 ar  
    49   25   49 1   
    50   26   50 1   
    51   27   28 ar  
    52   27   51 1   
    53   28   52 1   
@<TRIPOS>SUBSTRUCTURE
     1 HSI         1 TEMP              0 ****  ****    0 ROOT
