@<TRIPOS>MOLECULE
HSI
   52    53     1     0     0
SMALL
bcc


@<TRIPOS>ATOM
      1 C60        -8.0670   -4.9790    0.9720 c3        1 HSI     -0.090100
      2 C56        -8.0090   -3.5350    0.5460 c3        1 HSI     -0.080400
      3 C52        -6.5950   -2.9960    0.5940 c3        1 HSI     -0.079400
      4 C48        -6.5420   -1.5460    0.1650 c3        1 HSI     -0.076400
      5 C44        -5.1270   -1.0080    0.2130 c3        1 HSI     -0.081400
      6 C40        -5.0790    0.4440   -0.2130 c3        1 HSI     -0.070400
      7 C9         -3.6650    1.0030   -0.1640 c3        1 HSI     -0.144700
      8 C5         -3.6850    2.5250   -0.2600 c3        1 HSI     -0.196400
      9 C3         -3.5680    3.1750    1.1320 c         1 HSI      0.909600
     10 O1         -4.4080    4.0590    1.4470 o         1 HSI     -0.841300
     11 O4         -2.6160    2.7990    1.8820 o         1 HSI     -0.841300
     12 C11        -2.8010    0.4320   -1.2620 c         1 HSI      0.584700
     13 O12        -3.2630    0.0200   -2.3370 o         1 HSI     -0.573100
     14 C13        -1.3360    0.3670   -1.0110 ca        1 HSI     -0.156600
     15 C14        -0.7270    1.0940    0.0180 ca        1 HSI     -0.094500
     16 C16         0.6500    0.9990    0.2180 ca        1 HSI     -0.125500
     17 C18         1.4350    0.1750   -0.6040 ca        1 HSI      0.005000
     18 C25         2.8230    0.0770   -0.3970 cg        1 HSI     -0.042000
     19 C26         4.0070   -0.0060   -0.2190 ch        1 HSI     -0.164000
     20 C27         5.3920   -0.0990   -0.0070 ca        1 HSI      0.056000
     21 C28         6.0020    0.6310    1.0280 ca        1 HSI     -0.108000
     22 C30         7.3750    0.5400    1.2400 ca        1 HSI     -0.128000
     23 C32         8.1490   -0.2840    0.4170 ca        1 HSI      0.012400
     24 CL1         9.8280   -0.3970    0.6760 cl        1 HSI     -0.110400
     25 C33         7.5560   -1.0160   -0.6160 ca        1 HSI     -0.128000
     26 C35         6.1840   -0.9230   -0.8260 ca        1 HSI     -0.108000
     27 C19         0.8220   -0.5520   -1.6390 ca        1 HSI     -0.125500
     28 C21        -0.5500   -0.4500   -1.8380 ca        1 HSI     -0.094500
     29 H601       -7.6920   -5.0960    2.0180 hc        1 HSI      0.027367
     30 H602       -9.1170   -5.3570    0.9300 hc        1 HSI      0.027367
     31 H603       -7.4370   -5.6140    0.3030 hc        1 HSI      0.027367
     32 H561       -8.4110   -3.4340   -0.4970 hc        1 HSI      0.036700
     33 H562       -8.6660   -2.9180    1.2140 hc        1 HSI      0.036700
     34 H521       -6.1910   -3.0950    1.6360 hc        1 HSI      0.037700
     35 H522       -5.9360   -3.6100   -0.0750 hc        1 HSI      0.037700
     36 H481       -6.9450   -1.4460   -0.8770 hc        1 HSI      0.038200
     37 H482       -7.1990   -0.9300    0.8350 hc        1 HSI      0.038200
     38 H441       -4.7230   -1.1100    1.2550 hc        1 HSI      0.038700
     39 H442       -4.4700   -1.6160   -0.4630 hc        1 HSI      0.038700
     40 H401       -5.4840    0.5440   -1.2540 hc        1 HSI      0.054200
     41 H402       -5.7250    1.0590    0.4690 hc        1 HSI      0.054200
     42 H9         -3.2050    0.7230    0.8300 hc        1 HSI      0.096700
     43 H51        -2.8180    2.8870   -0.8700 hc        1 HSI      0.036700
     44 H52        -4.6240    2.8720   -0.7570 hc        1 HSI      0.036700
     45 H14        -1.3320    1.7570    0.6860 ha        1 HSI      0.190000
     46 H16         1.1190    1.5750    1.0300 ha        1 HSI      0.135000
     47 H28         5.3880    1.2780    1.6730 ha        1 HSI      0.147000
     48 H30         7.8450    1.1150    2.0520 ha        1 HSI      0.143500
     49 H33         8.1690   -1.6630   -1.2610 ha        1 HSI      0.143500
     50 H35         5.7130   -1.4970   -1.6380 ha        1 HSI      0.147000
     51 H19         1.4290   -1.1960   -2.2900 ha        1 HSI      0.135000
     52 H21        -1.0360   -1.0090   -2.6540 ha        1 HSI      0.190000
@<TRIPOS>BOND
     1    1    2 1   
     2    1   29 1   
     3    1   30 1   
     4    1   31 1   
     5    2    3 1   
     6    2   32 1   
     7    2   33 1   
     8    3    4 1   
     9    3   34 1   
    10    3   35 1   
    11    4    5 1   
    12    4   36 1   
    13    4   37 1   
    14    5    6 1   
    15    5   38 1   
    16    5   39 1   
    17    6    7 1   
    18    6   40 1   
    19    6   41 1   
    20    7    8 1   
    21    7   12 1   
    22    7   42 1   
    23    8    9 1   
    24    8   43 1   
    25    8   44 1   
    26    9   10 1   
    27    9   11 1   
    28   12   13 2   
    29   12   14 1   
    30   14   15 ar  
    31   14   28 ar  
    32   15   16 ar  
    33   15   45 1   
    34   16   17 ar  
    35   16   46 1   
    36   17   18 1   
    37   17   27 ar  
    38   18   19 3   
    39   19   20 1   
    40   20   21 ar  
    41   20   26 ar  
    42   21   22 ar  
    43   21   47 1   
    44   22   23 ar  
    45   22   48 1   
    46   23   24 1   
    47   23   25 ar  
    48   25   26 ar  
    49   25   49 1   
    50   26   50 1   
    51   27   28 ar  
    52   27   51 1   
    53   28   52 1   
@<TRIPOS>SUBSTRUCTURE
     1 HSI         1 TEMP              0 ****  ****    0 ROOT
