@<TRIPOS>MOLECULE
HSI
   52    53     1     0     0
SMALL
bcc


@<TRIPOS>ATOM
      1 C60         0.1340   -0.1500   -0.3840 c3        1 HSI     -0.090100
      2 C56         1.6340   -0.1940   -0.2520 c3        1 HSI     -0.080400
      3 C52         2.0700   -0.0710    1.1930 c3        1 HSI     -0.079400
      4 C48         3.5780   -0.1150    1.3210 c3        1 HSI     -0.076400
      5 C44         4.0120    0.0070    2.7660 c3        1 HSI     -0.081400
      6 C40         5.5210   -0.0340    2.8890 c3        1 HSI     -0.070400
      7 C9          5.9760    0.0950    4.3350 c3        1 HSI     -0.144700
      8 C5          7.4700    0.3940    4.4040 c3        1 HSI     -0.196400
      9 C3          7.7300    1.9000    4.6010 c         1 HSI      0.909600
     10 O1          8.5440    2.4680    3.8250 o         1 HSI     -0.841300
     11 O4          7.1250    2.4850    5.5510 o         1 HSI     -0.841300
     12 C11         5.6660   -1.1500    5.1300 c         1 HSI      0.584700
     13 O12         5.5710   -2.2730    4.6120 o         1 HSI     -0.573100
     14 C13         5.4640   -0.9900    6.5950 ca        1 HSI     -0.156600
     15 C14         5.8680    0.1640    7.2770 ca        1 HSI     -0.094500
     16 C16         5.6540    0.2720    8.6510 ca        1 HSI     -0.125500
     17 C18         5.0330   -0.7680    9.3600 ca        1 HSI      0.005000
     18 C25         4.8140   -0.6550   10.7450 cg        1 HSI     -0.042000
     19 C26         4.6270   -0.5570   11.9270 ch        1 HSI     -0.164000
     20 C27         4.4120   -0.4370   13.3090 ca        1 HSI      0.056000
     21 C28         4.8170    0.7230   13.9920 ca        1 HSI     -0.108000
     22 C30         4.6040    0.8440   15.3630 ca        1 HSI     -0.128000
     23 C32         3.9830   -0.1970   16.0600 ca        1 HSI      0.012400
     24 CL1         3.7220   -0.0500   17.7370 cl        1 HSI     -0.110400
     25 C33         3.5750   -1.3560   15.3950 ca        1 HSI     -0.128000
     26 C35         3.7890   -1.4740   14.0240 ca        1 HSI     -0.108000
     27 C19         4.6310   -1.9270    8.6730 ca        1 HSI     -0.125500
     28 C21         4.8500   -2.0330    7.3050 ca        1 HSI     -0.094500
     29 H601       -0.3370   -0.9870    0.1870 hc        1 HSI      0.027367
     30 H602       -0.2690    0.8130    0.0140 hc        1 HSI      0.027367
     31 H603       -0.1670   -0.2420   -1.4560 hc        1 HSI      0.027367
     32 H561        2.0890    0.6390   -0.8500 hc        1 HSI      0.036700
     33 H562        2.0220   -1.1560   -0.6780 hc        1 HSI      0.036700
     34 H521        1.6180   -0.9040    1.7940 hc        1 HSI      0.037700
     35 H522        1.6850    0.8910    1.6210 hc        1 HSI      0.037700
     36 H481        3.9640   -1.0780    0.8930 hc        1 HSI      0.038200
     37 H482        4.0310    0.7190    0.7220 hc        1 HSI      0.038200
     38 H441        3.5680   -0.8320    3.3650 hc        1 HSI      0.038700
     39 H442        3.6240    0.9680    3.1940 hc        1 HSI      0.038700
     40 H401        5.9080   -0.9950    2.4600 hc        1 HSI      0.054200
     41 H402        5.9700    0.8110    2.3020 hc        1 HSI      0.054200
     42 H9          5.4250    0.9620    4.8060 hc        1 HSI      0.096700
     43 H51         7.9810    0.0450    3.4730 hc        1 HSI      0.036700
     44 H52         7.9330   -0.1400    5.2720 hc        1 HSI      0.036700
     45 H14         6.3650    1.0060    6.7330 ha        1 HSI      0.190000
     46 H16         5.9760    1.1830    9.1770 ha        1 HSI      0.135000
     47 H28         5.3060    1.5380   13.4380 ha        1 HSI      0.147000
     48 H30         4.9250    1.7540   15.8900 ha        1 HSI      0.143500
     49 H33         3.0870   -2.1720   15.9480 ha        1 HSI      0.143500
     50 H35         3.4690   -2.3850   13.4960 ha        1 HSI      0.147000
     51 H19         4.1460   -2.7480    9.2210 ha        1 HSI      0.135000
     52 H21         4.5470   -2.9420    6.7620 ha        1 HSI      0.190000
@<TRIPOS>BOND
     1    1    2 1   
     2    1   29 1   
     3    1   30 1   
     4    1   31 1   
     5    2    3 1   
     6    2   32 1   
     7    2   33 1   
     8    3    4 1   
     9    3   34 1   
    10    3   35 1   
    11    4    5 1   
    12    4   36 1   
    13    4   37 1   
    14    5    6 1   
    15    5   38 1   
    16    5   39 1   
    17    6    7 1   
    18    6   40 1   
    19    6   41 1   
    20    7    8 1   
    21    7   12 1   
    22    7   42 1   
    23    8    9 1   
    24    8   43 1   
    25    8   44 1   
    26    9   10 1   
    27    9   11 1   
    28   12   13 2   
    29   12   14 1   
    30   14   15 ar  
    31   14   28 ar  
    32   15   16 ar  
    33   15   45 1   
    34   16   17 ar  
    35   16   46 1   
    36   17   18 1   
    37   17   27 ar  
    38   18   19 3   
    39   19   20 1   
    40   20   21 ar  
    41   20   26 ar  
    42   21   22 ar  
    43   21   47 1   
    44   22   23 ar  
    45   22   48 1   
    46   23   24 1   
    47   23   25 ar  
    48   25   26 ar  
    49   25   49 1   
    50   26   50 1   
    51   27   28 ar  
    52   27   51 1   
    53   28   52 1   
@<TRIPOS>SUBSTRUCTURE
     1 HSI         1 TEMP              0 ****  ****    0 ROOT
