@<TRIPOS>MOLECULE
HSL
   14    14     1     0     0
SMALL
bcc


@<TRIPOS>ATOM
      1 N           1.2890    1.5950   -0.3850 n3        1 HSL     -0.892800
      2 CA          0.3860    0.7900    0.3920 c3        1 HSL      0.096500
      3 C           0.4540   -0.7190    0.1330 c         1 HSL      0.662600
      4 O           1.4110   -1.4800    0.0550 o         1 HSL     -0.567500
      5 CB         -1.1100    1.1080    0.1870 c3        1 HSL     -0.115400
      6 CG         -1.8030   -0.2460    0.0350 c3        1 HSL      0.117400
      7 OD         -0.7930   -1.2720   -0.0430 os        1 HSL     -0.405900
      8 H           2.2350    1.2980   -0.2410 hn        1 HSL      0.367300
      9 H2          1.0700    1.5580   -1.3610 hn        1 HSL      0.367300
     10 HA          0.6550    0.9440    1.4800 h1        1 HSL      0.096700
     11 HB2        -1.5080    1.6620    1.0710 hc        1 HSL      0.071700
     12 HB3        -1.2840    1.7420   -0.7170 hc        1 HSL      0.071700
     13 HG2        -2.4470   -0.4970    0.9150 h1        1 HSL      0.064700
     14 HG3        -2.3970   -0.3210   -0.9110 h1        1 HSL      0.064700
@<TRIPOS>BOND
     1    1    2 1   
     2    1    8 1   
     3    1    9 1   
     4    2    3 1   
     5    2    5 1   
     6    2   10 1   
     7    3    4 2   
     8    3    7 1   
     9    5    6 1   
    10    5   11 1   
    11    5   12 1   
    12    6    7 1   
    13    6   13 1   
    14    6   14 1   
@<TRIPOS>SUBSTRUCTURE
     1 HSL         1 TEMP              0 ****  ****    0 ROOT
