@<TRIPOS>MOLECULE
HSM
   17    17     1     0     0
SMALL
bcc


@<TRIPOS>ATOM
      1 N          -0.0010    0.1890    3.4380 n3        1 HSM     -0.917800
      2 CA         -0.2820    0.4200    2.0390 c3        1 HSM      0.157800
      3 CB          0.4160   -0.5860    1.1190 c3        1 HSM     -0.096700
      4 CG          0.1630   -0.2640   -0.3010 cc        1 HSM      0.300600
      5 ND1        -1.0960   -0.3220   -0.9160 nc        1 HSM     -0.664000
      6 CD2         1.1340    0.1270   -1.2490 cd        1 HSM     -0.252600
      7 CE1        -0.8930    0.0250   -2.2040 cd        1 HSM      0.385400
      8 NE2         0.4560    0.3070   -2.4530 na        1 HSM     -0.321900
      9 H1         -0.2130   -0.7550    3.6940 hn        1 HSM      0.346300
     10 H2         -0.5450    0.8090    4.0040 hn        1 HSM      0.346300
     11 HA1        -1.3880    0.3960    1.8100 h1        1 HSM      0.035700
     12 HA2         0.0870    1.4560    1.7900 h1        1 HSM      0.035700
     13 HB1         1.5230   -0.5700    1.3050 hc        1 HSM      0.054200
     14 HB2         0.0480   -1.6240    1.3410 hc        1 HSM      0.054200
     15 HD2         2.2060    0.2790   -1.1480 h4        1 HSM      0.178000
     16 HE1        -1.6640    0.0860   -2.9770 h5        1 HSM      0.060100
     17 HE2         0.8540    0.5800   -3.3110 hn        1 HSM      0.299700
@<TRIPOS>BOND
     1    1    2 1   
     2    1    9 1   
     3    1   10 1   
     4    2    3 1   
     5    2   11 1   
     6    2   12 1   
     7    3    4 1   
     8    3   13 1   
     9    3   14 1   
    10    4    5 1   
    11    4    6 2   
    12    5    7 2   
    13    6    8 1   
    14    6   15 1   
    15    7    8 1   
    16    7   16 1   
    17    8   17 1   
@<TRIPOS>SUBSTRUCTURE
     1 HSM         1 TEMP              0 ****  ****    0 ROOT
