@<TRIPOS>MOLECULE
HSM
   18    18     1     0     0
SMALL
bcc


@<TRIPOS>ATOM
      1 N          -0.0410   -0.0690   -0.0410 n4        1 HSM     -0.841600
      2 CA          1.4500   -0.1370    0.0210 c3        1 HSM      0.103800
      3 CB          1.9910    0.1720    1.4170 c3        1 HSM     -0.099700
      4 CG          3.4660    0.1330    1.3970 cc        1 HSM      0.234600
      5 ND1         4.2190   -0.7100    0.5650 nc        1 HSM     -0.685000
      6 CD2         4.3300    0.8820    2.2250 cd        1 HSM     -0.200600
      7 CE1         5.5080   -0.4780    0.8820 cd        1 HSM      0.425400
      8 NE2         5.6200    0.4870    1.8920 na        1 HSM     -0.301900
      9 H1         -0.4510   -0.7460    0.6100 hn        1 HSM      0.458467
     10 H2         -0.3590   -0.2840   -0.9910 hn        1 HSM      0.458467
     11 HA1         1.7570   -1.1790   -0.2930 hx        1 HSM      0.128200
     12 HA2         1.8630    0.6020   -0.7250 hx        1 HSM      0.128200
     13 HB1         1.6540    1.1880    1.7580 hc        1 HSM      0.066700
     14 HB2         1.6100   -0.5880    2.1550 hc        1 HSM      0.066700
     15 HD2         4.1210    1.6290    2.9910 h4        1 HSM      0.193000
     16 HE1         6.3780   -0.9680    0.4260 h5        1 HSM      0.084100
     17 HE2         6.4560    0.8210    2.3000 hn        1 HSM      0.323700
     18 HN3        -0.3650    0.8680    0.2160 hn        1 HSM      0.458467
@<TRIPOS>BOND
     1    1    2 1   
     2    1    9 1   
     3    1   10 1   
     4    1   18 1   
     5    2    3 1   
     6    2   11 1   
     7    2   12 1   
     8    3    4 1   
     9    3   13 1   
    10    3   14 1   
    11    4    5 1   
    12    4    6 2   
    13    5    7 2   
    14    6    8 1   
    15    6   15 1   
    16    7    8 1   
    17    7   16 1   
    18    8   17 1   
@<TRIPOS>SUBSTRUCTURE
     1 HSM         1 TEMP              0 ****  ****    0 ROOT
