@<TRIPOS>MOLECULE
HSM
   18    18     1     0     0
SMALL
bcc


@<TRIPOS>ATOM
      1 N          -0.0470   -0.1700   -0.0030 n4        1 HSM     -0.841600
      2 CA          1.4460   -0.2140    0.0510 c3        1 HSM      0.103800
      3 CB          1.9940    0.1970    1.4170 c3        1 HSM     -0.099700
      4 CG          3.4690    0.1740    1.3870 cc        1 HSM      0.234600
      5 ND1         4.2260   -0.7200    0.6130 nc        1 HSM     -0.685000
      6 CD2         4.3310    0.9920    2.1490 cd        1 HSM     -0.200600
      7 CE1         5.5140   -0.4500    0.9000 cd        1 HSM      0.425400
      8 NE2         5.6220    0.5880    1.8350 na        1 HSM     -0.301900
      9 H1         -0.4430   -0.8050    0.6970 hn        1 HSM      0.458467
     10 H2         -0.3700   -0.4540   -0.9320 hn        1 HSM      0.458467
     11 HA1         1.8430    0.4760   -0.7480 hx        1 HSM      0.128200
     12 HA2         1.7640   -1.2710   -0.1930 hx        1 HSM      0.128200
     13 HB1         1.6280   -0.5140    2.2090 hc        1 HSM      0.066700
     14 HB2         1.6470    1.2300    1.6890 hc        1 HSM      0.066700
     15 HD2         4.1190    1.7910    2.8600 h4        1 HSM      0.193000
     16 HE1         6.3860   -0.9630    0.4740 h5        1 HSM      0.084100
     17 HE2         6.4570    0.9600    2.2100 hn        1 HSM      0.323700
     18 HN3        -0.3810    0.7790    0.1920 hn        1 HSM      0.458467
@<TRIPOS>BOND
     1    1    2 1   
     2    1    9 1   
     3    1   10 1   
     4    1   18 1   
     5    2    3 1   
     6    2   11 1   
     7    2   12 1   
     8    3    4 1   
     9    3   13 1   
    10    3   14 1   
    11    4    5 1   
    12    4    6 2   
    13    5    7 2   
    14    6    8 1   
    15    6   15 1   
    16    7    8 1   
    17    7   16 1   
    18    8   17 1   
@<TRIPOS>SUBSTRUCTURE
     1 HSM         1 TEMP              0 ****  ****    0 ROOT
