@<TRIPOS>MOLECULE
HSM
   17    14     1     0     0
SMALL
bcc


@<TRIPOS>ATOM
      1 N          -2.1170   -1.8000   -1.2560 n3        1 HSM     -0.918800
      2 CA         -1.0670   -0.8640   -1.1240 c3        1 HSM      0.160800
      3 CB         -0.5510   -0.8590    0.3280 c3        1 HSM      0.002800
      4 CG          0.3630    0.3620    0.5360 ce        1 HSM      0.303400
      5 ND1        -0.0160    1.6460    0.4860 n1        1 HSM     -0.951500
      6 CD2         1.6730    0.3270    0.9170 c1        1 HSM      0.113500
      7 CE1         1.0400    2.4060    0.8310 cg        1 HSM      0.275800
      8 NE2         2.0840    1.5810    1.0960 ne        1 HSM     -0.480400
      9 H1         -2.7610   -1.4570   -1.8090 hn        1 HSM      0.345800
     10 H2         -1.7920   -2.5710   -1.6150 hn        1 HSM      0.345800
     11 HA1        -0.3040   -1.1170   -1.7560 h1        1 HSM      0.036700
     12 HA2        -1.3960    0.0260   -1.3520 h1        1 HSM      0.036700
     13 HB1        -0.0620   -1.6520    0.4920 hc        1 HSM      0.053700
     14 HB2        -1.3130   -0.8110    0.9490 hc        1 HSM      0.053700
     15 HD2         2.2100   -0.4690    1.0350 DU        1 HSM      0.207667
     16 HE1         1.0530    3.4030    0.8810 DU        1 HSM      0.207667
     17 HE2         2.9560    1.8490    1.3640 DU        1 HSM      0.207667
@<TRIPOS>BOND
     1    1    2 1   
     2    1    9 1   
     3    1   10 1   
     4    2    3 1   
     5    2   11 1   
     6    2   12 1   
     7    3    4 1   
     8    3   13 1   
     9    3   14 1   
    10    4    5 1   
    11    4    6 2   
    12    5    7 3   
    13    6    8 2   
    14    7    8 1   
@<TRIPOS>SUBSTRUCTURE
     1 HSM         1 TEMP              0 ****  ****    0 ROOT
