@<TRIPOS>MOLECULE
HSM
   18    18     1     0     0
SMALL
bcc


@<TRIPOS>ATOM
      1 N          -0.0410   -0.1200   -0.0330 nz        1 HSM     -0.841600
      2 CA          1.4510   -0.1830    0.0330 c3        1 HSM      0.103800
      3 CB          1.9910    0.1950    1.4120 c3        1 HSM     -0.099700
      4 CG          3.4660    0.1570    1.3950 cc        1 HSM      0.234600
      5 ND1         4.2200   -0.7290    0.6090 nc        1 HSM     -0.685000
      6 CD2         4.3290    0.9490    2.1830 cd        1 HSM     -0.200600
      7 CE1         5.5090   -0.4790    0.9130 cd        1 HSM      0.425400
      8 NE2         5.6190    0.5380    1.8710 na        1 HSM     -0.301900
      9 H1         -0.4500   -0.7650    0.6510 hn        1 HSM      0.458467
     10 H2         -0.3580   -0.3830   -0.9710 hn        1 HSM      0.458467
     11 HA1         1.7600   -1.2380   -0.2290 hx        1 HSM      0.128200
     12 HA2         1.8630    0.5190   -0.7480 hx        1 HSM      0.128200
     13 HB1         1.6520    1.2260    1.7020 hc        1 HSM      0.066700
     14 HB2         1.6100   -0.5270    2.1870 hc        1 HSM      0.066700
     15 HD2         4.1190    1.7350    2.9080 h4        1 HSM      0.193000
     16 HE1         6.3790   -0.9910    0.4840 h5        1 HSM      0.084100
     17 HE2         6.4550    0.8930    2.2620 hn        1 HSM      0.323700
     18 HN3        -0.3660    0.8280    0.1780 hn        1 HSM      0.458467
@<TRIPOS>BOND
     1    1    2 1   
     2    1    9 1   
     3    1   10 1   
     4    1   18 1   
     5    2    3 1   
     6    2   11 1   
     7    2   12 1   
     8    3    4 1   
     9    3   13 1   
    10    3   14 1   
    11    4    5 1   
    12    4    6 2   
    13    5    7 2   
    14    6    8 1   
    15    6   15 1   
    16    7    8 1   
    17    7   16 1   
    18    8   17 1   
@<TRIPOS>SUBSTRUCTURE
     1 HSM         1 TEMP              0 ****  ****    0 ROOT
