@<TRIPOS>MOLECULE
HSO
   20    20     1     0     0
SMALL
bcc


@<TRIPOS>ATOM
      1 N           1.4090    1.3790    0.2910 n3        1 HSO     -0.919800
      2 CA          1.4830   -0.0660    0.3320 c3        1 HSO      0.050500
      3 CB          0.4520   -0.7160   -0.6170 c3        1 HSO     -0.023100
      4 CG         -0.9300   -0.3120   -0.2850 cc        1 HSO     -0.052600
      5 ND1        -1.9570   -1.2050    0.0900 na        1 HSO     -0.139100
      6 CD2        -1.5020    0.9740   -0.2880 cd        1 HSO     -0.084300
      7 CE1        -3.1090   -0.4940    0.3090 cc        1 HSO     -0.021600
      8 NE2        -2.8460    0.8340    0.0830 na        1 HSO     -0.132100
      9 C           2.8440   -0.6730   -0.0210 c         1 HSO      0.523900
     10 O           3.7760    0.0090   -0.4340 o         1 HSO     -0.476100
     11 HN1         1.8360    1.7700    1.1100 hn        1 HSO      0.378300
     12 HN2         1.8870    1.7320   -0.5180 hn        1 HSO      0.378300
     13 HA          1.2460   -0.3990    1.3880 h1        1 HSO      0.082700
     14 HB1         0.5720   -1.8310   -0.5580 hc        1 HSO      0.089700
     15 HB2         0.6640   -0.4060   -1.6790 hc        1 HSO      0.089700
     16 HD1        -1.8620   -2.1930    0.1760 hn        1 HSO      0.356700
     17 HD2        -1.0440    1.9470   -0.5060 h4        1 HSO      0.252000
     18 HE1        -4.0820   -0.9190    0.6140 h5        1 HSO      0.262000
     19 HE2        -3.5050    1.5770    0.1750 hn        1 HSO      0.362700
     20 H           2.9200   -1.7700    0.1370 h4        1 HSO      0.020200
@<TRIPOS>BOND
     1    1    2 1   
     2    1   11 1   
     3    1   12 1   
     4    2    3 1   
     5    2    9 1   
     6    2   13 1   
     7    3    4 1   
     8    3   14 1   
     9    3   15 1   
    10    4    5 1   
    11    4    6 2   
    12    5    7 2   
    13    5   16 1   
    14    6    8 1   
    15    6   17 1   
    16    7    8 1   
    17    7   18 1   
    18    8   19 1   
    19    9   10 2   
    20    9   20 1   
@<TRIPOS>SUBSTRUCTURE
     1 HSO         1 TEMP              0 ****  ****    0 ROOT
