@<TRIPOS>MOLECULE
HSO
   20    16     1     0     0
SMALL
bcc


@<TRIPOS>ATOM
      1 N          -1.6430   -1.4030   -1.2120 n3        1 HSO     -0.926800
      2 CA         -0.2920   -0.9630   -1.1240 c3        1 HSO      0.051500
      3 CB          0.1480   -0.9740    0.3210 c3        1 HSO     -0.032200
      4 CG          0.2320    0.4470    0.8330 ce        1 HSO      0.403400
      5 ND1         1.2430    1.2970    0.6300 n1        1 HSO     -0.951500
      6 CD2        -0.6910    1.0720    1.6270 c1        1 HSO      0.211500
      7 CE1         0.9620    2.4480    1.2880 cg        1 HSO      0.404800
      8 NE2        -0.2370    2.2980    1.9020 ne        1 HSO     -0.404400
      9 C           0.5920   -1.8890   -1.9280 c         1 HSO      0.528900
     10 O           1.0330   -1.5280   -3.0020 o         1 HSO     -0.492100
     11 HN1        -2.1140   -0.8360   -1.7550 hn        1 HSO      0.374300
     12 HN2        -1.6660   -2.2500   -1.5600 hn        1 HSO      0.374300
     13 HA         -0.2220   -0.0550   -1.4800 h1        1 HSO      0.090700
     14 HB1         1.0270   -1.3980    0.3910 hc        1 HSO      0.101200
     15 HB2        -0.4990   -1.4750    0.8560 hc        1 HSO      0.101200
     16 HD1         1.9910    1.1310    0.1350 DU        1 HSO      0.284000
     17 HD2        -1.5340    0.6900    1.9370 DU        1 HSO      0.284000
     18 HE1         1.5250    3.2450    1.3160 DU        1 HSO      0.284000
     19 HE2        -0.6590    2.9240    2.4120 DU        1 HSO      0.284000
     20 H           0.8030   -2.7810   -1.5870 h4        1 HSO      0.027200
@<TRIPOS>BOND
     1    1    2 1   
     2    1   11 1   
     3    1   12 1   
     4    2    3 1   
     5    2    9 1   
     6    2   13 1   
     7    3    4 1   
     8    3   14 1   
     9    3   15 1   
    10    4    5 1   
    11    4    6 2   
    12    5    7 3   
    13    6    8 2   
    14    7    8 1   
    15    9   10 2   
    16    9   20 1   
@<TRIPOS>SUBSTRUCTURE
     1 HSO         1 TEMP              0 ****  ****    0 ROOT
