@<TRIPOS>MOLECULE
HSP
   30    31     1     0     0
SMALL
bcc


@<TRIPOS>ATOM
      1 O1         -3.0730   -1.2590   -1.6970 o         1 HSP     -0.911000
      2 O2         -2.4960    0.4920   -3.4760 o         1 HSP     -0.911000
      3 O3          1.0560    1.2250   -1.1110 o         1 HSP     -0.630800
      4 C1          2.5040   -2.0200    0.5480 ca        1 HSP     -0.100000
      5 C2          2.5140   -0.7680   -0.0430 ca        1 HSP     -0.099500
      6 C3          3.7520   -0.1180   -0.1680 ca        1 HSP      0.162100
      7 C4          4.9450   -0.7080    0.2830 ca        1 HSP     -0.220000
      8 C5          4.8950   -1.9720    0.8730 ca        1 HSP     -0.159000
      9 C6          3.6780   -2.6310    1.0090 ca        1 HSP     -0.209000
     10 O4          3.8860    1.1300   -0.7320 oh        1 HSP     -0.571100
     11 S1          0.6630   -0.1670   -0.7620 sy        1 HSP      0.336200
     12 C7         -0.0860   -0.0070    0.8600 c3        1 HSP     -0.064600
     13 C8         -1.1020    1.0950    1.0090 c3        1 HSP     -0.034400
     14 C9         -2.4690    0.7570    0.4250 c3        1 HSP     -0.042400
     15 C10        -2.6910    1.2280   -0.9830 c3        1 HSP     -0.329600
     16 P1         -2.3170   -0.0370   -2.0970 p5        1 HSP      1.436600
     17 O5         -0.7580   -0.2600   -1.7420 os        1 HSP     -0.737100
     18 H4          5.8980   -0.1780    0.1720 ha        1 HSP      0.097000
     19 H5          5.8220   -2.4410    1.2290 ha        1 HSP      0.076000
     20 H6          3.6410   -3.6260    1.4740 ha        1 HSP      0.081000
     21 HO4         2.9960    1.4340   -0.9960 ho        1 HSP      0.475000
     22 H71        -0.5540   -0.9960    1.0810 h1        1 HSP      0.048700
     23 H72         0.7380    0.1510    1.5970 h1        1 HSP      0.048700
     24 H81        -1.2340    1.3210    2.1030 hc        1 HSP      0.012700
     25 H82        -0.6990    2.0260    0.5270 hc        1 HSP      0.012700
     26 H91        -2.6320   -0.3570    0.4490 hc        1 HSP      0.019200
     27 H92        -3.2430    1.2140    1.1040 hc        1 HSP      0.019200
     28 H101       -3.7570    1.5230   -1.1200 hc        1 HSP      0.045200
     29 H102       -2.0690    2.1220   -1.2170 hc        1 HSP      0.045200
     30 H1          1.5450   -2.5500    0.6620 ha        1 HSP      0.104000
@<TRIPOS>BOND
     1    1   16 1   
     2    2   16 1   
     3    3   11 2   
     4    4    5 ar  
     5    4    9 ar  
     6    4   30 1   
     7    5    6 ar  
     8    5   11 1   
     9    6    7 ar  
    10    6   10 1   
    11    7    8 ar  
    12    7   18 1   
    13    8    9 ar  
    14    8   19 1   
    15    9   20 1   
    16   10   21 1   
    17   11   12 1   
    18   11   17 1   
    19   12   13 1   
    20   12   22 1   
    21   12   23 1   
    22   13   14 1   
    23   13   24 1   
    24   13   25 1   
    25   14   15 1   
    26   14   26 1   
    27   14   27 1   
    28   15   16 1   
    29   15   28 1   
    30   15   29 1   
    31   16   17 1   
@<TRIPOS>SUBSTRUCTURE
     1 HSP         1 TEMP              0 ****  ****    0 ROOT
