@<TRIPOS>MOLECULE
HSP
   30    30     1     0     0
SMALL
bcc


@<TRIPOS>ATOM
      1 O1          0.6620    0.4080   -0.0920 o         1 HSP     -0.881500
      2 O2          2.9800   -0.7490   -0.2490 o         1 HSP     -0.881500
      3 O3          2.3150    7.1070   -2.3090 o         1 HSP     -0.858000
      4 C1          2.6910    9.0940    0.5100 c1        1 HSP     -0.325000
      5 C2          1.7560    8.1950   -0.0090 c2        1 HSP     -0.611000
      6 C3          0.3860    8.4150    0.2050 c2        1 HSP      0.144000
      7 C4         -0.0620    9.5230    0.9360 c2        1 HSP     -0.328000
      8 C5          0.8850   10.4210    1.4480 c2        1 HSP     -0.102000
      9 C6          2.2370   10.2050    1.2340 c2        1 HSP     -0.199000
     10 O4         -0.5170    7.5010   -0.3080 oh        1 HSP     -0.270000
     11 S1          2.6130    6.9970   -0.8350 s4        1 HSP      1.487000
     12 C7          1.7850    5.5150   -0.3290 c3        1 HSP     -0.601000
     13 C8          2.5860    4.3090   -0.7480 c3        1 HSP     -0.120000
     14 C9          2.0270    3.0140   -0.1980 c3        1 HSP     -0.138000
     15 C10         2.8480    1.8160   -0.5770 c3        1 HSP     -0.826000
     16 P1          2.1390    0.4300    0.0780 p5        1 HSP      1.990000
     17 O5          2.2560    0.6960    1.7050 oh        1 HSP     -0.832000
     18 H4         -1.1330    9.6840    1.1030 ha        1 HSP      0.083000
     19 H5          0.5280   11.2910    2.0210 ha        1 HSP      0.066000
     20 H6          2.9710   10.9150    1.6390 ha        1 HSP      0.079000
     21 HO4        -1.4040    7.8140   -0.0920 ho        1 HSP      0.184000
     22 H71         0.7530    5.4530   -0.7530 h1        1 HSP      0.113000
     23 H72         1.6750    5.5340    0.7830 h1        1 HSP      0.113000
     24 H81         2.6120    4.2540   -1.8690 hc        1 HSP      0.065500
     25 H82         3.6480    4.4230   -0.3980 hc        1 HSP      0.065500
     26 H91         0.9780    2.8530   -0.5640 hc        1 HSP      0.087000
     27 H92         1.9780    3.0620    0.9230 hc        1 HSP      0.087000
     28 H101        3.8950    1.9310   -0.2060 hc        1 HSP      0.098000
     29 H102        2.9160    1.7310   -1.6880 hc        1 HSP      0.098000
     30 H1          1.3960    0.8110    2.0920 ho        1 HSP      0.215000
@<TRIPOS>BOND
     1    1   16 1   
     2    2   16 1   
     3    3   11 1   
     4    4    5 1   
     5    4    9 1   
     6    5    6 1   
     7    5   11 1   
     8    6    7 1   
     9    6   10 1   
    10    7    8 1   
    11    7   18 1   
    12    8    9 1   
    13    8   19 1   
    14    9   20 1   
    15   10   21 1   
    16   11   12 1   
    17   12   13 1   
    18   12   22 1   
    19   12   23 1   
    20   13   14 1   
    21   13   24 1   
    22   13   25 1   
    23   14   15 1   
    24   14   26 1   
    25   14   27 1   
    26   15   16 1   
    27   15   28 1   
    28   15   29 1   
    29   16   17 1   
    30   17   30 1   
@<TRIPOS>SUBSTRUCTURE
     1 HSP         1 TEMP              0 ****  ****    0 ROOT
