@<TRIPOS>MOLECULE
HSQ
   30    29     1     0     0
SMALL
bcc


@<TRIPOS>ATOM
      1 C1         -1.1670    0.9980   -0.6870 c3        1 HSQ      0.125000
      2 C2          0.2600    0.9980   -0.6870 c3        1 HSQ     -0.015000
      3 C3          0.8430    0.9980    0.5990 c3        1 HSQ      0.001000
      4 C4          0.3180   -0.0740    1.4890 c3        1 HSQ     -0.032000
      5 C5         -1.2680   -0.0750    1.6450 c3        1 HSQ     -0.006000
      6 C6         -1.6820   -1.1690    2.2680 c3        1 HSQ     -0.007000
      7 C7          1.6080   -0.1370   -2.5620 c1        1 HSQ      0.302000
      8 C8          2.0720   -1.3700   -3.3070 c3        1 HSQ     -0.241000
      9 N2          0.7470   -0.2670   -1.4420 n2        1 HSQ     -0.382000
     10 O3          0.5760    2.3260    1.2430 oh        1 HSQ     -0.315000
     11 O4          0.7170   -1.3210    0.9700 oh        1 HSQ     -0.324000
     12 O5         -1.7610   -0.0580    0.1470 os        1 HSQ     -0.311000
     13 O6         -3.0450   -1.0330    2.6020 oh        1 HSQ     -0.325000
     14 O7          1.9640    0.9650   -2.9300 o         1 HSQ     -0.363000
     15 O61        -1.6260    2.2770   -0.2010 oh        1 HSQ     -0.361000
     16 H1         -1.4790    0.8820   -1.6050 h2        1 HSQ      0.126000
     17 H2          0.5710    1.7880   -1.1690 h1        1 HSQ      0.163000
     18 H3          1.8080    0.8830    0.5050 h1        1 HSQ      0.124000
     19 H4          0.7160    0.0360    2.3740 h1        1 HSQ      0.101000
     20 H5         -1.5690    0.7250    2.1160 h1        1 HSQ      0.104000
     21 H6         -1.5670   -1.9410    1.6810 h1        1 HSQ      0.103000
     22 H6A        -1.1590   -1.2990    3.0810 h1        1 HSQ      0.103000
     23 H8          1.2990   -1.8340   -3.6810 hc        1 HSQ      0.107333
     24 H8A         2.6750   -1.1070   -4.0280 hc        1 HSQ      0.107333
     25 H8B         2.5410   -1.9640   -2.6910 hc        1 HSQ      0.107333
     26 HN2         0.4720   -1.0940   -1.1730 hn        1 HSQ      0.242000
     27 HO3         1.3320    2.6510    1.5760 ho        1 HSQ      0.225000
     28 HO4         1.3470   -1.6700    1.4890 ho        1 HSQ      0.206000
     29 HO6        -3.2910   -1.7080    3.1230 ho        1 HSQ      0.210000
     30 H15        -2.2510    2.5940   -0.7460 ho        1 HSQ      0.226000
@<TRIPOS>BOND
     1    1    2 1   
     2    1   12 1   
     3    1   15 1   
     4    1   16 1   
     5    2    3 1   
     6    2    9 1   
     7    2   17 1   
     8    3    4 1   
     9    3   10 1   
    10    3   18 1   
    11    4    5 1   
    12    4   11 1   
    13    4   19 1   
    14    5    6 1   
    15    5   12 1   
    16    5   20 1   
    17    6   13 1   
    18    6   21 1   
    19    6   22 1   
    20    7    8 1   
    21    7   14 1   
    22    8   23 1   
    23    8   24 1   
    24    8   25 1   
    25    9   26 1   
    26   10   27 1   
    27   11   28 1   
    28   13   29 1   
    29   15   30 1   
@<TRIPOS>SUBSTRUCTURE
     1 HSQ         1 TEMP              0 ****  ****    0 ROOT
