@<TRIPOS>MOLECULE
HSQ
   30    30     1     0     0
SMALL
bcc


@<TRIPOS>ATOM
      1 C1          0.2970    0.5780    1.1490 c3        1 HSQ      0.324900
      2 C2         -0.7970    0.5790    0.0400 c3        1 HSQ      0.086700
      3 C3         -0.1880    0.4440   -1.3820 c3        1 HSQ      0.104100
      4 C4          0.9800   -0.5590   -1.4260 c3        1 HSQ      0.083100
      5 C5          2.0000   -0.1860   -0.3480 c3        1 HSQ      0.064100
      6 C6          3.2030   -1.1300   -0.3350 c3        1 HSQ      0.139400
      7 C8         -4.0270   -1.3300    0.7800 c3        1 HSQ     -0.175100
      8 N2         -1.7740   -0.4510    0.2850 n         1 HSQ     -0.580900
      9 O3          0.2530    1.7410   -1.7450 oh        1 HSQ     -0.571800
     10 O4          0.4760   -1.8750   -1.2680 oh        1 HSQ     -0.598800
     11 O5          1.3760   -0.3180    0.9340 os        1 HSQ     -0.474600
     12 O6          4.1310   -0.7670    0.6630 oh        1 HSQ     -0.592800
     13 O7         -3.4150    0.9930    0.9830 o         1 HSQ     -0.594100
     14 O61         0.8600    1.8630    1.1910 oh        1 HSQ     -0.598800
     15 H1         -0.1180    0.2670    2.1510 h2        1 HSQ      0.081700
     16 H2         -1.3020    1.5960    0.1010 h1        1 HSQ      0.135700
     17 H3         -0.9810    0.0990   -2.1070 h1        1 HSQ      0.055700
     18 H4          1.4610   -0.5450   -2.4430 h1        1 HSQ      0.077700
     19 H5          2.3250    0.8830   -0.4930 h1        1 HSQ      0.096700
     20 H6          2.8580   -2.1870   -0.1840 h1        1 HSQ      0.055700
     21 H6A         3.7610   -1.0430   -1.3040 h1        1 HSQ      0.055700
     22 H8         -3.6530   -2.0870    1.5110 hc        1 HSQ      0.068367
     23 H8A        -5.0190   -0.9500    1.1260 hc        1 HSQ      0.068367
     24 H8B        -4.1510   -1.8160   -0.2170 hc        1 HSQ      0.068367
     25 HN2        -1.5590   -1.3630   -0.0430 hn        1 HSQ      0.315500
     26 HO3         0.5240    1.6900   -2.6710 ho        1 HSQ      0.403000
     27 HO4         0.5160   -2.0890   -0.3260 ho        1 HSQ      0.414000
     28 HO6         3.6610   -0.7810    1.5070 ho        1 HSQ      0.412000
     29 H15         1.5330    1.8580    1.8850 ho        1 HSQ      0.416000
     30 C7         -3.0700   -0.1670    0.6870 c         1 HSQ      0.659100
@<TRIPOS>BOND
     1    1    2 1   
     2    1   11 1   
     3    1   14 1   
     4    1   15 1   
     5    2    3 1   
     6    2    8 1   
     7    2   16 1   
     8    3    4 1   
     9    3    9 1   
    10    3   17 1   
    11    4    5 1   
    12    4   10 1   
    13    4   18 1   
    14    5    6 1   
    15    5   11 1   
    16    5   19 1   
    17    6   12 1   
    18    6   20 1   
    19    6   21 1   
    20    7   22 1   
    21    7   23 1   
    22    7   24 1   
    23    7   30 1   
    24    8   25 1   
    25    8   30 1   
    26    9   26 1   
    27   10   27 1   
    28   12   28 1   
    29   13   30 2   
    30   14   29 1   
@<TRIPOS>SUBSTRUCTURE
     1 HSQ         1 TEMP              0 ****  ****    0 ROOT
