@<TRIPOS>MOLECULE
HSR
   30    30     1     0     0
SMALL
bcc


@<TRIPOS>ATOM
      1 C1          0.0060    1.0650   -0.6910 c3        1 HSR      0.333900
      2 C2          0.7290   -0.1850   -0.1010 c3        1 HSR      0.045700
      3 C3         -0.1620   -1.4020   -0.4410 c3        1 HSR      0.138100
      4 C4         -1.5510   -1.1870    0.1930 c3        1 HSR      0.077100
      5 C5         -2.1520    0.1500   -0.2630 c3        1 HSR      0.074100
      6 C6         -3.4150    0.5020    0.5330 c3        1 HSR      0.138400
      7 C7          3.1160    0.3370    0.0820 c         1 HSR      0.663100
      8 C8          4.5240    0.0050   -0.3370 c3        1 HSR     -0.172100
      9 N2          2.0820   -0.3150   -0.5770 n         1 HSR     -0.549900
     10 O3          0.4550   -2.5600    0.0900 oh        1 HSR     -0.600800
     11 O4         -2.3330   -2.2840   -0.2550 oh        1 HSR     -0.603800
     12 O5         -1.2450    1.2210   -0.0140 os        1 HSR     -0.452600
     13 O6         -4.0180    1.6740    0.0360 oh        1 HSR     -0.592800
     14 O7          2.8690    1.1940    0.9540 o         1 HSR     -0.616100
     15 H11        -0.1380    1.0030   -1.8040 h2        1 HSR      0.080700
     16 O61         0.6350    2.2760   -0.4270 oh        1 HSR     -0.569800
     17 H2          0.7480   -0.0590    1.0260 h1        1 HSR      0.088700
     18 H3         -0.2760   -1.5160   -1.5560 h1        1 HSR      0.056700
     19 H4         -1.4610   -1.2100    1.3150 h1        1 HSR      0.064700
     20 H5         -2.3890    0.1050   -1.3620 h1        1 HSR      0.067700
     21 H16        -4.1860   -0.3030    0.4020 h1        1 HSR      0.050700
     22 H26        -3.1600    0.6220    1.6190 h1        1 HSR      0.050700
     23 H18         4.6770    0.2550   -1.4150 hc        1 HSR      0.069367
     24 H28         5.2330    0.6100    0.2800 hc        1 HSR      0.069367
     25 H38         4.7360   -1.0800   -0.1780 hc        1 HSR      0.069367
     26 HN2         2.2900   -1.1280   -1.1080 hn        1 HSR      0.317500
     27 HO3        -0.1790   -3.2830   -0.0180 ho        1 HSR      0.427000
     28 HO4        -3.1940   -2.2120    0.1730 ho        1 HSR      0.415000
     29 HO6        -3.3520    2.3750    0.0730 ho        1 HSR      0.423000
     30 H15         0.9450    2.2710    0.4930 ho        1 HSR      0.439000
@<TRIPOS>BOND
     1    1    2 1   
     2    1   12 1   
     3    1   15 1   
     4    1   16 1   
     5    2    3 1   
     6    2    9 1   
     7    2   17 1   
     8    3    4 1   
     9    3   10 1   
    10    3   18 1   
    11    4    5 1   
    12    4   11 1   
    13    4   19 1   
    14    5    6 1   
    15    5   12 1   
    16    5   20 1   
    17    6   13 1   
    18    6   21 1   
    19    6   22 1   
    20    7    8 1   
    21    7    9 1   
    22    7   14 2   
    23    8   23 1   
    24    8   24 1   
    25    8   25 1   
    26    9   26 1   
    27   10   27 1   
    28   11   28 1   
    29   13   29 1   
    30   16   30 1   
@<TRIPOS>SUBSTRUCTURE
     1 HSR         1 TEMP              0 ****  ****    0 ROOT
