@<TRIPOS>MOLECULE
HSR
   30    29     1     0     0
SMALL
bcc


@<TRIPOS>ATOM
      1 C1         -1.3290    0.9130   -0.7400 c3        1 HSR      0.138000
      2 C2          0.2030    0.8030   -0.9070 c3        1 HSR     -0.026000
      3 C3          0.9640    0.9400    0.4390 c3        1 HSR     -0.001000
      4 C4          0.3330   -0.3140    1.1260 c3        1 HSR     -0.037000
      5 C5         -1.1820   -0.2020    1.2770 c3        1 HSR      0.003000
      6 C6         -1.5210    0.2100    2.7540 c3        1 HSR     -0.013000
      7 C7          1.7510   -0.6350   -2.1320 c1        1 HSR      0.303000
      8 C8          2.0690   -1.9680   -2.7710 c3        1 HSR     -0.242000
      9 N2          0.5090   -0.4410   -1.4760 n2        1 HSR     -0.388000
     10 O3          0.6560    2.0360    1.0590 oh        1 HSR     -0.313000
     11 O4          0.6260   -1.4410    0.3610 oh        1 HSR     -0.334000
     12 O5         -1.6750    0.6990    0.4570 os        1 HSR     -0.337000
     13 O6         -2.9160    0.1490    2.9510 oh        1 HSR     -0.320000
     14 O7          2.5500    0.2770   -2.2010 o         1 HSR     -0.357000
     15 H11        -1.7630    0.2590   -1.3220 h2        1 HSR      0.105000
     16 O61        -1.7610    2.2740   -1.1310 oh        1 HSR     -0.327000
     17 H2          0.5050    1.5090   -1.5120 h1        1 HSR      0.170000
     18 H3          1.9300    0.8410    0.3210 h1        1 HSR      0.123000
     19 H4          0.7310   -0.4220    2.0130 h1        1 HSR      0.105000
     20 H5         -1.5900   -1.0700    1.0840 h1        1 HSR      0.112000
     21 H16        -1.2080    1.1240    2.9190 h1        1 HSR      0.099000
     22 H26        -1.0760   -0.4040    3.3750 h1        1 HSR      0.099000
     23 H18         1.2410   -2.3810   -3.0950 hc        1 HSR      0.107667
     24 H28         2.4900   -2.5560   -2.1090 hc        1 HSR      0.107667
     25 H38         2.6810   -1.8320   -3.5230 hc        1 HSR      0.107667
     26 HN2        -0.1120   -1.1100   -1.4680 hn        1 HSR      0.239000
     27 HO3         1.4000    2.4450    1.3240 ho        1 HSR      0.227000
     28 HO4         0.9490   -2.0810    0.8880 ho        1 HSR      0.212000
     29 HO6        -3.0930    0.1610    3.8230 ho        1 HSR      0.210000
     30 H15        -2.3620    2.2180   -1.7830 ho        1 HSR      0.225000
@<TRIPOS>BOND
     1    1    2 1   
     2    1   12 1   
     3    1   15 1   
     4    1   16 1   
     5    2    3 1   
     6    2    9 1   
     7    2   17 1   
     8    3    4 1   
     9    3   10 1   
    10    3   18 1   
    11    4    5 1   
    12    4   11 1   
    13    4   19 1   
    14    5    6 1   
    15    5   12 1   
    16    5   20 1   
    17    6   13 1   
    18    6   21 1   
    19    6   22 1   
    20    7    8 1   
    21    7   14 1   
    22    8   23 1   
    23    8   24 1   
    24    8   25 1   
    25    9   26 1   
    26   10   27 1   
    27   11   28 1   
    28   13   29 1   
    29   16   30 1   
@<TRIPOS>SUBSTRUCTURE
     1 HSR         1 TEMP              0 ****  ****    0 ROOT
