@<TRIPOS>MOLECULE
HSS
   54    57     1     0     0
SMALL
bcc


@<TRIPOS>ATOM
      1 C4         -3.3500   -0.8830   -0.1080 ca        1 HSS      0.455800
      2 C5         -2.3830   -1.9600   -0.3010 ca        1 HSS     -0.225200
      3 C6         -2.8250   -3.2960   -0.0190 ca        1 HSS      0.748200
      4 C8         -1.3610   -0.1100   -0.8390 cc        1 HSS      0.425700
      5 N1         -4.1220   -3.4910    0.3940 nb        1 HSS     -0.787000
      6 N3         -4.6320   -1.0860    0.3190 nb        1 HSS     -0.735000
      7 N11         4.7370   -3.8450   -0.2370 na        1 HSS     -0.294900
      8 CE1         5.5920   -4.6670    0.5000 cc        1 HSS      0.386400
      9 N12         6.4450   -3.9420    1.2620 nd        1 HSS     -0.667000
     10 CD2         6.1300   -2.6110    1.0180 cd        1 HSS      0.298200
     11 CG          5.0660   -2.5250    0.0890 cc        1 HSS     -0.231900
     12 CB          4.4300   -1.3220   -0.4730 c3        1 HSS      0.002900
     13 CA          2.8940   -1.3660   -0.3420 c3        1 HSS      0.116500
     14 N           2.2890   -2.3190   -1.2400 n3        1 HSS     -0.909800
     15 C           2.3770    0.0790   -0.5470 c         1 HSS      0.640100
     16 O           1.8530    0.4490   -1.6080 o         1 HSS     -0.554100
     17 N1S         2.5000    0.9840    0.5130 n         1 HSS     -0.699300
     18 S           2.1380    2.5810    0.5120 s6        1 HSS      1.701100
     19 O2S         2.1620    3.0250    1.8310 o         1 HSS     -0.633300
     20 O3S         2.7680    3.2920   -0.4840 o         1 HSS     -0.633300
     21 O5'         0.5180    2.6430    0.0910 os        1 HSS     -0.553500
     22 C4'        -1.7560    3.2320    0.4270 c3        1 HSS      0.096100
     23 O4'        -2.1460    2.5630   -0.7800 os        1 HSS     -0.384600
     24 C3'        -2.9500    3.1550    1.4010 c3        1 HSS      0.085100
     25 O3'        -3.5820    4.4030    1.5630 oh        1 HSS     -0.582800
     26 C2'        -3.9130    2.1130    0.7780 c3        1 HSS      0.078100
     27 O2'        -5.1040    2.7470    0.3530 oh        1 HSS     -0.585800
     28 C1'        -3.2030    1.6330   -0.5270 c3        1 HSS      0.253800
     29 N9         -2.6620    0.2920   -0.4470 na        1 HSS     -0.296000
     30 N7         -1.1630   -1.4340   -0.7520 nd        1 HSS     -0.581100
     31 C2         -4.9100   -2.3930    0.5340 ca        1 HSS      0.684900
     32 N6         -1.9470   -4.3510   -0.1140 nh        1 HSS     -0.946500
     33 H8         -0.6200    0.6370   -1.1770 h5        1 HSS      0.110800
     34 HE1         5.5570   -5.7590    0.4440 h5        1 HSS      0.062100
     35 HD2         6.6690   -1.7970    1.5000 h4        1 HSS      0.040100
     36 HB2         4.7190   -1.1980   -1.5530 hc        1 HSS      0.068700
     37 HA          2.6330   -1.6890    0.7110 h1        1 HSS      0.086700
     38 HN1         1.3050   -2.3970   -1.0640 hn        1 HSS      0.377800
     39 HN2         2.4310   -2.0490   -2.1960 hn        1 HSS      0.377800
     40 HN1S        2.8410    0.5710    1.3560 hn        1 HSS      0.345500
     41 H4'        -1.5260    4.2840    0.1070 h1        1 HSS      0.110700
     42 H3'        -2.6300    2.8610    2.4360 h1        1 HSS      0.096700
     43 HO3'       -3.9420    4.6640    0.7020 ho        1 HSS      0.423000
     44 H2'        -4.1370    1.2820    1.4940 h1        1 HSS      0.089700
     45 HO2'       -5.6130    2.9440    1.1510 ho        1 HSS      0.425000
     46 H1'        -3.8970    1.7060   -1.4180 h2        1 HSS      0.124700
     47 H2         -5.9470   -2.6080    0.8750 h5        1 HSS      0.054100
     48 HN61       -1.1010   -4.1980   -0.6060 hn        1 HSS      0.438800
     49 HN62       -2.2940   -5.2780   -0.0550 hn        1 HSS      0.438800
     50 C5'        -0.5160    2.5820    1.0430 c3        1 HSS      0.160400
     51 HB1         4.8230   -0.4300    0.0860 hc        1 HSS      0.068700
     52 HN11        4.0080   -4.1260   -0.8410 hn        1 HSS      0.317700
     53 H5'1       -0.7140    1.5010    1.2820 h1        1 HSS      0.054700
     54 H5'2       -0.2230    3.1390    1.9750 h1        1 HSS      0.054700
@<TRIPOS>BOND
     1    1    2 ar  
     2    1    6 ar  
     3    1   29 1   
     4    2    3 ar  
     5    2   30 1   
     6    3    5 ar  
     7    3   32 1   
     8    4   29 1   
     9    4   30 2   
    10    4   33 1   
    11    5   31 ar  
    12    6   31 ar  
    13    7    8 1   
    14    7   11 1   
    15    7   52 1   
    16    8    9 2   
    17    8   34 1   
    18    9   10 1   
    19   10   11 2   
    20   10   35 1   
    21   11   12 1   
    22   12   13 1   
    23   12   36 1   
    24   12   51 1   
    25   13   14 1   
    26   13   15 1   
    27   13   37 1   
    28   14   38 1   
    29   14   39 1   
    30   15   16 2   
    31   15   17 1   
    32   17   18 1   
    33   17   40 1   
    34   18   19 2   
    35   18   20 2   
    36   18   21 1   
    37   21   50 1   
    38   22   23 1   
    39   22   24 1   
    40   22   41 1   
    41   22   50 1   
    42   23   28 1   
    43   24   25 1   
    44   24   26 1   
    45   24   42 1   
    46   25   43 1   
    47   26   27 1   
    48   26   28 1   
    49   26   44 1   
    50   27   45 1   
    51   28   29 1   
    52   28   46 1   
    53   31   47 1   
    54   32   48 1   
    55   32   49 1   
    56   50   53 1   
    57   50   54 1   
@<TRIPOS>SUBSTRUCTURE
     1 HSS         1 TEMP              0 ****  ****    0 ROOT
