@<TRIPOS>MOLECULE
HSS
   54    46     1     0     0
SMALL
bcc


@<TRIPOS>ATOM
      1 C4         -1.1730    4.9420    3.7240 c1        1 HSS      0.084000
      2 C5         -1.3640    6.2330    3.3750 c1        1 HSS     -0.248000
      3 C6         -1.5720    7.1970    4.3610 c1        1 HSS      0.242000
      4 C8         -1.2120    5.0490    1.5260 c1        1 HSS     -0.059000
      5 N1         -1.5830    6.8410    5.6570 n2        1 HSS     -0.269000
      6 N3         -1.1850    4.5830    5.0430 n1        1 HSS     -0.205000
      7 N11         1.6030   -6.6520   -5.6930 n2        1 HSS     -0.165000
      8 CE1         2.6760   -6.7400   -6.5150 c1        1 HSS     -0.092000
      9 N12         3.5000   -5.6950   -6.2440 n2        1 HSS     -0.165000
     10 CD2         2.9430   -4.9700   -5.2680 c1        1 HSS     -0.157000
     11 CG          1.7600   -5.5650   -4.9220 c1        1 HSS     -0.157000
     12 CB          0.7430   -5.0280   -3.8950 c2        1 HSS     -0.125000
     13 CA          1.3780   -5.0150   -2.5140 c3        1 HSS     -0.032000
     14 N           1.1780   -6.2690   -1.8910 n3        1 HSS     -0.346000
     15 C           0.7380   -3.9220   -1.6700 c2        1 HSS      0.338000
     16 O          -0.2450   -4.1720   -0.9940 o         1 HSS     -0.330000
     17 N1S         1.3260   -2.6170   -1.6220 n         1 HSS     -0.860000
     18 S           0.3780   -1.2890   -1.2860 s4        1 HSS      2.035800
     19 O2S        -0.2620   -0.7410   -2.5400 o         1 HSS     -0.545400
     20 O3S        -0.8360   -1.6740   -0.4820 o         1 HSS     -0.545400
     21 O5'         1.1970   -0.2240   -0.5730 o         1 HSS     -0.715000
     22 C5'         0.5530    1.0450   -0.3880 c3        1 HSS      0.013000
     23 C4'         0.3200    1.2920    1.1240 c3        1 HSS     -0.052000
     24 O4'         0.3820    2.5650    1.3910 os        1 HSS     -0.257000
     25 C3'        -1.0990    0.8700    1.5200 c3        1 HSS     -0.027000
     26 O3'        -1.0590   -0.2390    2.2860 oh        1 HSS     -0.326000
     27 C2'        -1.6790    2.0670    2.3300 c3        1 HSS      0.016000
     28 O2'        -2.2800    1.5820    3.6070 oh        1 HSS     -0.294000
     29 C1'        -0.6710    2.8250    2.5720 c3        1 HSS      0.116000
     30 N9         -1.0790    4.2050    2.5770 n2        1 HSS     -0.200000
     31 N7         -1.3890    6.3020    2.0130 n1        1 HSS     -0.108000
     32 C2         -1.3890    5.5310    6.0100 c1        1 HSS      0.026000
     33 N6         -1.6940    8.6230    4.2620 n2        1 HSS     -0.357000
     34 H8         -1.1940    4.7970    0.5840 DU        1 HSS      0.210000
     35 HN11        0.8970   -7.2300   -5.6680 DU        1 HSS      0.210000
     36 HE1         2.8330   -7.4410   -7.1910 DU        1 HSS      0.210000
     37 HD2         3.3150   -4.1580   -4.8700 DU        1 HSS      0.210000
     38 HB1         0.4800   -4.1200   -4.1410 ha        1 HSS      0.116000
     39 HB2        -0.0470   -5.6060   -3.8850 ha        1 HSS      0.116000
     40 HA          2.3380   -4.8430   -2.5980 h1        1 HSS      0.133000
     41 HN1         1.9550   -6.7550   -1.9240 hn        1 HSS      0.168500
     42 HN2         0.5160   -6.7230   -2.3250 hn        1 HSS      0.168500
     43 HN1S        2.2080   -2.5080   -1.8220 hn        1 HSS      0.286000
     44 H5'1        1.1220    1.7570   -0.7520 h1        1 HSS      0.116000
     45 H5'2       -0.3080    1.0460   -0.8550 h1        1 HSS      0.116000
     46 H4'         0.9800    0.8010    1.6540 h1        1 HSS      0.144000
     47 H3'        -1.6420    0.7090    0.7150 h1        1 HSS      0.096000
     48 HO3'       -1.6920   -0.8080    2.0180 ho        1 HSS      0.248000
     49 H2'        -2.3480    2.5480    1.7980 h1        1 HSS      0.140000
     50 HO2'       -3.1640    1.5760    3.5340 ho        1 HSS      0.228000
     51 H1'        -0.2710    2.5880    3.4370 h2        1 HSS      0.176000
     52 H2         -1.3970    5.2750    6.9490 ha        1 HSS      0.190000
     53 HN61       -1.7540    9.0220    3.4370 hn        1 HSS      0.243500
     54 HN62       -1.7330    9.1360    5.0250 hn        1 HSS      0.243500
@<TRIPOS>BOND
     1    1    6 1   
     2    2    3 1   
     3    3    5 1   
     4    4   30 1   
     5    4   31 1   
     6    5   32 1   
     7    7    8 1   
     8    7   11 1   
     9    8    9 1   
    10    9   10 1   
    11   10   11 1   
    12   12   13 1   
    13   12   38 1   
    14   12   39 1   
    15   13   14 1   
    16   13   15 1   
    17   13   40 1   
    18   14   41 1   
    19   14   42 1   
    20   15   16 1   
    21   15   17 1   
    22   17   18 1   
    23   17   43 1   
    24   18   19 1   
    25   18   20 1   
    26   21   22 1   
    27   22   23 1   
    28   22   44 1   
    29   22   45 1   
    30   23   24 1   
    31   23   25 1   
    32   23   46 1   
    33   24   29 1   
    34   25   26 1   
    35   25   27 1   
    36   25   47 1   
    37   26   48 1   
    38   27   28 1   
    39   27   29 1   
    40   27   49 1   
    41   28   50 1   
    42   29   30 1   
    43   29   51 1   
    44   32   52 1   
    45   33   53 1   
    46   33   54 1   
@<TRIPOS>SUBSTRUCTURE
     1 HSS         1 TEMP              0 ****  ****    0 ROOT
