@<TRIPOS>MOLECULE
HSS
   56    71     1     0     0
SMALL
bcc


@<TRIPOS>ATOM
      1 C4          0.0000    0.0000    0.0000 c2        1 HSS     -0.507000
      2 C5          1.4050    0.0000    0.0000 c2        1 HSS     -0.234000
      3 C6          2.0690    0.0000    1.2390 c3        1 HSS      0.246000
      4 C8          0.7590    0.0010   -2.0700 c2        1 HSS     -0.173000
      5 N1          1.3380   -0.0000    2.3490 n2        1 HSS     -0.007000
      6 N3         -0.6460   -0.0050    1.1620 n2        1 HSS      1.221000
      7 N11         4.6660   -0.7320   -9.0370 n7        1 HSS     -0.171000
      8 CE1         5.5980    0.2070   -9.3060 c2        1 HSS      0.014000
      9 N12         4.9940    1.3420   -9.5330 n2        1 HSS     -0.042000
     10 CD2         3.6700    1.1690   -9.4180 c2        1 HSS     -0.020000
     11 CG          3.4430   -0.1220   -9.1080 c3        1 HSS     -0.513000
     12 CB          2.1010   -0.7700   -8.8830 DU        1 HSS      0.214000
     13 CA          1.6700   -0.5580   -7.4310 DU        1 HSS      0.004000
     14 N           2.5960   -1.2640   -6.5360 nz        1 HSS      0.063000
     15 C           0.2760   -1.0980   -7.2370 c3        1 HSS      0.839000
     16 O           0.1120   -2.1890   -6.7330 o         1 HSS     -0.411000
     17 N1S        -0.7890   -0.3680   -7.6250 ny        1 HSS     -0.533000
     18 S          -2.3200   -0.9620   -7.4130 s6        1 HSS      2.395000
     19 O2S        -3.2090    0.0420   -7.8830 o         1 HSS     -0.807500
     20 O3S        -2.3110   -2.2900   -7.9180 o         1 HSS     -0.807500
     21 O5'        -2.5560   -1.0750   -5.9130 os        1 HSS     -0.591000
     22 C4'        -3.0110   -0.0550   -3.7690 DU        1 HSS      0.144000
     23 O4'        -1.7990   -0.5400   -3.1640 os        1 HSS     -0.155000
     24 C3'        -3.3680    1.2750   -3.0790 DU        1 HSS     -0.370000
     25 O3'        -4.6580    1.1910   -2.4680 oh        1 HSS     -0.304000
     26 C2'        -2.2690    1.4500   -2.0020 DU        1 HSS     -0.377000
     27 O2'        -2.8250    1.9450   -0.7830 oh        1 HSS     -0.381000
     28 C1'        -1.7520    0.0000   -1.8260 c3        1 HSS     -0.180000
     29 N9         -0.3780   -0.0000   -1.3180 na        1 HSS      0.354000
     30 N7          1.8050   -0.0000   -1.2950 n2        1 HSS      0.220000
     31 C2          0.0190    0.0000    2.2990 c2        1 HSS     -0.205000
     32 N6          3.4510   -0.0020    1.3020 n8        1 HSS      0.106000
     33 H8         -0.0640    0.0580   -2.7720 h5        1 HSS      0.206000
     34 HD2         3.2230    0.9880   -8.4470 DU        1 HSS      0.178000
     35 HA          2.0520    0.2090   -8.0940 DU        1 HSS      0.057000
     36 HN1         2.1610   -0.4200   -6.8520 DU        1 HSS      0.206000
     37 HN2         2.5470   -0.8620   -5.6210 hn        1 HSS      0.071000
     38 HN1S        0.0790   -0.7560   -7.3120 hn        1 HSS     -0.767000
     39 H4'        -2.5120    0.0290   -4.7270 DU        1 HSS      0.283000
     40 H3'        -3.5920    0.2550   -3.3710 DU        1 HSS      0.139000
     41 HO3'       -4.0570    1.6000   -3.0690 DU        1 HSS      0.317000
     42 H2'        -3.3030    1.5990   -2.2870 DU        1 HSS      0.375000
     43 HO2'       -2.2150    2.0160   -1.4980 DU        1 HSS      0.302000
     44 H1'        -2.0620    0.9690   -1.4540 DU        1 HSS      0.364000
     45 H2         -0.5980   -0.1420    1.4200 h5        1 HSS     -0.230000
     46 HN61        2.5500    0.0000    1.7370 DU        1 HSS      0.087000
     47 HN62        3.9490    0.8620    1.3960 hn        1 HSS      0.171000
     48 HB1         2.2950   -0.7800   -7.8180 DU        1 HSS      0.057000
     49 HN11        3.6850   -0.6100   -9.1890 hn        1 HSS      0.248000
     50 HN3         3.4100   -1.0060   -7.0580 hn        1 HSS      0.071000
     51 H1S2        0.1130   -0.5220   -7.2200 DU        1 HSS     -0.007000
     52 C5'        -2.7880    0.1770   -5.2650 DU        1 HSS      0.242000
     53 HB2         2.1740   -1.8310   -9.0880 ha        1 HSS      0.121000
     54 HE1         6.6690    0.0460   -9.3300 h5        1 HSS      0.196000
     55 H5'1       -1.9280    0.8260   -5.1560 ha        1 HSS      0.142500
     56 H5'2       -3.6400    0.8070   -5.4900 ha        1 HSS      0.142500
@<TRIPOS>BOND
     1    1    2 1   
     2    1    6 1   
     3    1   29 1   
     4    2    3 1   
     5    2   30 1   
     6    3    5 1   
     7    3   32 1   
     8    3   46 1   
     9    4   29 1   
    10    4   30 1   
    11    4   33 1   
    12    5   31 1   
    13    6   31 1   
    14    7    8 1   
    15    7   11 1   
    16    7   49 1   
    17    8    9 1   
    18    8   54 1   
    19    9   10 1   
    20   10   11 1   
    21   10   34 1   
    22   11   12 1   
    23   11   34 1   
    24   12   13 1   
    25   12   35 1   
    26   12   48 1   
    27   12   53 1   
    28   13   14 1   
    29   13   15 1   
    30   13   35 1   
    31   13   36 1   
    32   13   48 1   
    33   14   36 1   
    34   14   37 1   
    35   14   50 1   
    36   15   16 1   
    37   15   17 1   
    38   15   51 1   
    39   17   18 1   
    40   17   38 1   
    41   17   51 1   
    42   18   19 1   
    43   18   20 1   
    44   18   21 1   
    45   21   52 1   
    46   22   23 1   
    47   22   24 1   
    48   22   39 1   
    49   22   40 1   
    50   22   52 1   
    51   23   28 1   
    52   24   25 1   
    53   24   26 1   
    54   24   40 1   
    55   24   41 1   
    56   24   42 1   
    57   25   41 1   
    58   26   27 1   
    59   26   28 1   
    60   26   42 1   
    61   26   43 1   
    62   26   44 1   
    63   27   43 1   
    64   28   29 1   
    65   28   44 1   
    66   31   45 1   
    67   32   46 1   
    68   32   47 1   
    69   39   52 1   
    70   52   55 1   
    71   52   56 1   
@<TRIPOS>SUBSTRUCTURE
     1 HSS         1 TEMP              0 ****  ****    0 ROOT
