@<TRIPOS>MOLECULE
HST
   44    44     1     0     0
SMALL
bcc


@<TRIPOS>ATOM
      1 N1         -2.1150    1.3650   -0.6020 na        1 HST     -0.070600
      2 N2         -2.7830    2.2360    0.1490 nc        1 HST     -0.197800
      3 N3         -2.6380    1.9460    1.3850 nd        1 HST     -0.385000
      4 CB1        -1.4670    0.3950    0.2150 cc        1 HST     -0.206700
      5 CB2        -1.8220    0.8010    1.5250 cd        1 HST      0.366800
      6 CB3        -1.4530    0.1820    2.8700 c         1 HST      0.846100
      7 O1         -2.2520   -0.6580    3.3510 o         1 HST     -0.802800
      8 O2         -0.3690    0.5600    3.3900 o         1 HST     -0.802800
      9 S          -0.6300   -0.9010   -0.4180 ss        1 HST     -0.161000
     10 C1          3.5860   -1.1080    4.8870 c3        1 HST     -0.087100
     11 C2          2.8810   -0.2940    3.8340 c3        1 HST     -0.089900
     12 C3          2.9390   -0.9650    2.4770 c3        1 HST     -0.067900
     13 C4          2.1100   -0.1920    1.4740 c3        1 HST     -0.094400
     14 C5          2.0120   -0.9200    0.1510 c3        1 HST     -0.061400
     15 C6          1.0090   -0.2570   -0.7750 c3        1 HST     -0.018600
     16 C7          1.3220   -0.5590   -2.2270 c3        1 HST     -0.061400
     17 C8          0.6200    0.3910   -3.1750 c3        1 HST     -0.094400
     18 C9          0.9170    0.0430   -4.6180 c3        1 HST     -0.067900
     19 C10         0.2240    0.9970   -5.5680 c3        1 HST     -0.089900
     20 C11         0.5170    0.6570   -7.0070 c3        1 HST     -0.087100
     21 HN1        -2.1300    1.3850   -1.5920 hn        1 HST      0.299700
     22 H11         3.5450   -0.5850    5.8730 hc        1 HST      0.023533
     23 H12         3.1020   -2.1080    4.9990 hc        1 HST      0.023533
     24 H13         4.6590   -1.2670    4.6170 hc        1 HST      0.023533
     25 H21         1.8000   -0.1400    4.1170 hc        1 HST      0.053700
     26 H22         3.3490    0.7230    3.7660 hc        1 HST      0.053700
     27 H31         4.0020   -1.0390    2.1270 hc        1 HST      0.027450
     28 H32         2.5440   -2.0110    2.5630 hc        1 HST      0.027450
     29 H41         1.0760   -0.0300    1.9020 hc        1 HST      0.058950
     30 H42         2.5630    0.8210    1.3140 hc        1 HST      0.058950
     31 H51         3.0240   -0.9420   -0.3360 hc        1 HST      0.036700
     32 H52         1.7060   -1.9860    0.3250 hc        1 HST      0.036700
     33 H6          1.0210    0.8500   -0.6060 h1        1 HST      0.080700
     34 H71         2.4300   -0.4850   -2.3950 hc        1 HST      0.036700
     35 H72         1.0220   -1.6160   -2.4610 hc        1 HST      0.036700
     36 H81        -0.4870    0.3460   -2.9940 hc        1 HST      0.058950
     37 H82         0.9500    1.4430   -2.9660 hc        1 HST      0.058950
     38 H91         2.0240    0.0770   -4.7940 hc        1 HST      0.027450
     39 H92         0.5800   -1.0060   -4.8280 hc        1 HST      0.027450
     40 H101       -0.8830    0.9610   -5.3910 hc        1 HST      0.053700
     41 H102        0.5580    2.0460   -5.3530 hc        1 HST      0.053700
     42 H111       -0.0030    1.3710   -7.6890 hc        1 HST      0.023533
     43 H112        1.6150    0.7120   -7.2090 hc        1 HST      0.023533
     44 H113        0.1690   -0.3770   -7.2460 hc        1 HST      0.023533
@<TRIPOS>BOND
     1    1    2 1   
     2    1    4 1   
     3    1   21 1   
     4    2    3 2   
     5    3    5 1   
     6    4    5 2   
     7    4    9 1   
     8    5    6 1   
     9    6    7 1   
    10    6    8 1   
    11    9   15 1   
    12   10   11 1   
    13   10   22 1   
    14   10   23 1   
    15   10   24 1   
    16   11   12 1   
    17   11   25 1   
    18   11   26 1   
    19   12   13 1   
    20   12   27 1   
    21   12   28 1   
    22   13   14 1   
    23   13   29 1   
    24   13   30 1   
    25   14   15 1   
    26   14   31 1   
    27   14   32 1   
    28   15   16 1   
    29   15   33 1   
    30   16   17 1   
    31   16   34 1   
    32   16   35 1   
    33   17   18 1   
    34   17   36 1   
    35   17   37 1   
    36   18   19 1   
    37   18   38 1   
    38   18   39 1   
    39   19   20 1   
    40   19   40 1   
    41   19   41 1   
    42   20   42 1   
    43   20   43 1   
    44   20   44 1   
@<TRIPOS>SUBSTRUCTURE
     1 HST         1 TEMP              0 ****  ****    0 ROOT
