@<TRIPOS>MOLECULE
HST
   44    44     1     0     0
SMALL
bcc


@<TRIPOS>ATOM
      1 N1         -0.4120    2.0000    1.5260 na        1 HST     -0.070600
      2 N2          0.8500    2.3130    1.2440 nc        1 HST     -0.197800
      3 N3          1.5690    1.2580    1.2390 nd        1 HST     -0.385000
      4 CB1        -0.5440    0.5990    1.7380 cc        1 HST     -0.206700
      5 CB2         0.7770    0.1260    1.5390 cd        1 HST      0.366800
      6 CB3         1.3260   -1.2960    1.6200 c         1 HST      0.846100
      7 O1          1.7940   -1.6650    2.7240 o         1 HST     -0.802800
      8 O2          1.2590   -1.9900    0.5700 o         1 HST     -0.802800
      9 S          -1.9770   -0.1100    2.2130 ss        1 HST     -0.161000
     10 C1         -0.4650   -5.9090   -0.9590 c3        1 HST     -0.087100
     11 C2         -0.5360   -4.4050   -0.9900 c3        1 HST     -0.089900
     12 C3         -1.8310   -3.8940   -0.3930 c3        1 HST     -0.067900
     13 C4         -1.8140   -2.3830   -0.3170 c3        1 HST     -0.094400
     14 C5         -3.0200   -1.8460    0.4230 c3        1 HST     -0.061400
     15 C6         -2.8930   -0.3570    0.6860 c3        1 HST     -0.018600
     16 C7         -4.2550    0.2870    0.8520 c3        1 HST     -0.061400
     17 C8         -4.1990    1.7940    0.7050 c3        1 HST     -0.094400
     18 C9         -5.5620    2.4160    0.9150 c3        1 HST     -0.067900
     19 C10        -5.5110    3.9210    0.7590 c3        1 HST     -0.089900
     20 C11        -6.8670    4.5460    0.9650 c3        1 HST     -0.087100
     21 HN1        -1.1260    2.6790    1.6210 hn        1 HST      0.299700
     22 H11        -1.3160   -6.3610   -1.5230 hc        1 HST      0.023533
     23 H12         0.4900   -6.2610   -1.4190 hc        1 HST      0.023533
     24 H13        -0.5050   -6.2810    0.0930 hc        1 HST      0.023533
     25 H21        -0.4480   -4.0450   -2.0490 hc        1 HST      0.053700
     26 H22         0.3290   -3.9600   -0.4180 hc        1 HST      0.053700
     27 H31        -1.9570   -4.3190    0.6380 hc        1 HST      0.027450
     28 H32        -2.7030   -4.2420   -1.0060 hc        1 HST      0.027450
     29 H41        -1.7870   -1.9550   -1.3530 hc        1 HST      0.058950
     30 H42        -0.8650   -2.0540    0.2030 hc        1 HST      0.058950
     31 H51        -3.1370   -2.3860    1.4000 hc        1 HST      0.036700
     32 H52        -3.9460   -2.0490   -0.1800 hc        1 HST      0.036700
     33 H6         -2.3440    0.1270   -0.1620 h1        1 HST      0.080700
     34 H71        -4.9610   -0.1260    0.0820 hc        1 HST      0.036700
     35 H72        -4.6730    0.0210    1.8590 hc        1 HST      0.036700
     36 H81        -3.4720    2.2130    1.4510 hc        1 HST      0.058950
     37 H82        -3.8170    2.0580   -0.3170 hc        1 HST      0.058950
     38 H91        -5.9400    2.1570    1.9390 hc        1 HST      0.027450
     39 H92        -6.2900    1.9870    0.1760 hc        1 HST      0.027450
     40 H101       -4.7840    4.3480    1.4990 hc        1 HST      0.053700
     41 H102       -5.1300    4.1780   -0.2640 hc        1 HST      0.053700
     42 H111       -6.8070    5.6540    0.8470 hc        1 HST      0.023533
     43 H112       -7.6010    4.1510    0.2210 hc        1 HST      0.023533
     44 H113       -7.2530    4.3210    1.9890 hc        1 HST      0.023533
@<TRIPOS>BOND
     1    1    2 1   
     2    1    4 1   
     3    1   21 1   
     4    2    3 2   
     5    3    5 1   
     6    4    5 2   
     7    4    9 1   
     8    5    6 1   
     9    6    7 1   
    10    6    8 1   
    11    9   15 1   
    12   10   11 1   
    13   10   22 1   
    14   10   23 1   
    15   10   24 1   
    16   11   12 1   
    17   11   25 1   
    18   11   26 1   
    19   12   13 1   
    20   12   27 1   
    21   12   28 1   
    22   13   14 1   
    23   13   29 1   
    24   13   30 1   
    25   14   15 1   
    26   14   31 1   
    27   14   32 1   
    28   15   16 1   
    29   15   33 1   
    30   16   17 1   
    31   16   34 1   
    32   16   35 1   
    33   17   18 1   
    34   17   36 1   
    35   17   37 1   
    36   18   19 1   
    37   18   38 1   
    38   18   39 1   
    39   19   20 1   
    40   19   40 1   
    41   19   41 1   
    42   20   42 1   
    43   20   43 1   
    44   20   44 1   
@<TRIPOS>SUBSTRUCTURE
     1 HST         1 TEMP              0 ****  ****    0 ROOT
