@<TRIPOS>MOLECULE
HST
   44    44     1     0     0
SMALL
bcc


@<TRIPOS>ATOM
      1 N1         -0.4200    2.0040    1.5350 na        1 HST     -0.070600
      2 N2          0.8440    2.3150    1.2630 nc        1 HST     -0.197800
      3 N3          1.5630    1.2600    1.2690 nd        1 HST     -0.385000
      4 CB1        -0.5550    0.6040    1.7520 cc        1 HST     -0.206700
      5 CB2         0.7680    0.1300    1.5670 cd        1 HST      0.366800
      6 CB3         1.3150   -1.2920    1.6590 c         1 HST      0.846100
      7 O1          1.7730   -1.6560    2.7690 o         1 HST     -0.802800
      8 O2          1.2580   -1.9900    0.6120 o         1 HST     -0.802800
      9 S          -1.9930   -0.1020    2.2170 ss        1 HST     -0.161000
     10 C1         -0.4550   -5.9180   -0.9100 c3        1 HST     -0.087100
     11 C2         -0.5250   -4.4140   -0.9500 c3        1 HST     -0.089900
     12 C3         -1.8250   -3.8990   -0.3670 c3        1 HST     -0.067900
     13 C4         -1.8080   -2.3880   -0.2990 c3        1 HST     -0.094400
     14 C5         -3.0200   -1.8460    0.4270 c3        1 HST     -0.061400
     15 C6         -2.8950   -0.3560    0.6840 c3        1 HST     -0.018600
     16 C7         -4.2570    0.2900    0.8330 c3        1 HST     -0.061400
     17 C8         -4.1990    1.7960    0.6790 c3        1 HST     -0.094400
     18 C9         -5.5640    2.4200    0.8720 c3        1 HST     -0.067900
     19 C10        -5.5100    3.9240    0.7100 c3        1 HST     -0.089900
     20 C11        -6.8680    4.5510    0.8990 c3        1 HST     -0.087100
     21 HN1        -1.1360    2.6840    1.6210 hn        1 HST      0.299700
     22 H11        -1.3020   -6.3730   -1.4790 hc        1 HST      0.023533
     23 H12         0.5030   -6.2730   -1.3600 hc        1 HST      0.023533
     24 H13        -0.5040   -6.2850    0.1440 hc        1 HST      0.023533
     25 H21        -0.4280   -4.0600   -2.0100 hc        1 HST      0.053700
     26 H22         0.3350   -3.9660   -0.3730 hc        1 HST      0.053700
     27 H31        -1.9600   -4.3190    0.6650 hc        1 HST      0.027450
     28 H32        -2.6920   -4.2500   -0.9850 hc        1 HST      0.027450
     29 H41        -1.7720   -1.9660   -1.3380 hc        1 HST      0.058950
     30 H42        -0.8640   -2.0560    0.2270 hc        1 HST      0.058950
     31 H51        -3.1460   -2.3810    1.4060 hc        1 HST      0.036700
     32 H52        -3.9410   -2.0520   -0.1830 hc        1 HST      0.036700
     33 H6         -2.3370    0.1220   -0.1620 h1        1 HST      0.080700
     34 H71        -4.9560   -0.1260    0.0590 hc        1 HST      0.036700
     35 H72        -4.6850    0.0290    1.8380 hc        1 HST      0.036700
     36 H81        -3.4790    2.2180    1.4310 hc        1 HST      0.058950
     37 H82        -3.8070    2.0550   -0.3400 hc        1 HST      0.058950
     38 H91        -5.9520    2.1660    1.8940 hc        1 HST      0.027450
     39 H92        -6.2840    1.9880    0.1290 hc        1 HST      0.027450
     40 H101       -4.7900    4.3540    1.4560 hc        1 HST      0.053700
     41 H102       -5.1170    4.1760   -0.3100 hc        1 HST      0.053700
     42 H111       -6.8050    5.6590    0.7760 hc        1 HST      0.023533
     43 H112       -7.5930    4.1530    0.1490 hc        1 HST      0.023533
     44 H113       -7.2640    4.3310    1.9200 hc        1 HST      0.023533
@<TRIPOS>BOND
     1    1    2 1   
     2    1    4 1   
     3    1   21 1   
     4    2    3 2   
     5    3    5 1   
     6    4    5 2   
     7    4    9 1   
     8    5    6 1   
     9    6    7 1   
    10    6    8 1   
    11    9   15 1   
    12   10   11 1   
    13   10   22 1   
    14   10   23 1   
    15   10   24 1   
    16   11   12 1   
    17   11   25 1   
    18   11   26 1   
    19   12   13 1   
    20   12   27 1   
    21   12   28 1   
    22   13   14 1   
    23   13   29 1   
    24   13   30 1   
    25   14   15 1   
    26   14   31 1   
    27   14   32 1   
    28   15   16 1   
    29   15   33 1   
    30   16   17 1   
    31   16   34 1   
    32   16   35 1   
    33   17   18 1   
    34   17   36 1   
    35   17   37 1   
    36   18   19 1   
    37   18   38 1   
    38   18   39 1   
    39   19   20 1   
    40   19   40 1   
    41   19   41 1   
    42   20   42 1   
    43   20   43 1   
    44   20   44 1   
@<TRIPOS>SUBSTRUCTURE
     1 HST         1 TEMP              0 ****  ****    0 ROOT
