@<TRIPOS>MOLECULE
HSU
   20    20     1     0     0
SMALL
bcc


@<TRIPOS>ATOM
      1 O5'         3.2260   -0.1960   -0.2370 oh        1 HSU     -0.591800
      2 C5'         2.0640    0.0010    0.5500 c3        1 HSU      0.113400
      3 C4'         0.9450    0.4140   -0.4080 c3        1 HSU      0.136100
      4 O4'         0.3130   -0.7640   -0.9350 os        1 HSU     -0.433600
      5 C3'        -0.1410    1.2480    0.3080 c3        1 HSU      0.133100
      6 O3'        -0.4160    2.3610   -0.5170 oh        1 HSU     -0.585800
      7 C2'        -1.3350    0.2820    0.4880 c3        1 HSU      0.081100
      8 O2'        -2.5030    0.9160    0.0130 oh        1 HSU     -0.595800
      9 C1'        -0.9680   -0.9590   -0.3570 c3        1 HSU      0.298900
     10 HO3'       -1.3100    2.6690   -0.3160 ho        1 HSU      0.428000
     11 HO2'       -3.2340    0.3040    0.1600 ho        1 HSU      0.421000
     12 H5'         1.7790   -0.9440    1.0860 h1        1 HSU      0.034700
     13 H5'A        2.2600    0.8160    1.2980 h1        1 HSU      0.034700
     14 H4'         1.3640    0.9580   -1.2990 h1        1 HSU      0.118700
     15 H3'         0.2050    1.6180    1.3100 h1        1 HSU      0.055700
     16 H2'        -1.4580   -0.0090    1.5670 h1        1 HSU      0.073700
     17 O5         -0.8230   -2.0630    0.5070 oh        1 HSU     -0.632800
     18 H8          3.8670   -0.6470    0.3250 ho        1 HSU      0.402000
     19 H1'        -1.6930   -1.1760   -1.1850 h2        1 HSU      0.079700
     20 H10        -0.2230   -2.6890    0.0810 ho        1 HSU      0.431000
@<TRIPOS>BOND
     1    1    2 1   
     2    1   18 1   
     3    2    3 1   
     4    2   12 1   
     5    2   13 1   
     6    3    4 1   
     7    3    5 1   
     8    3   14 1   
     9    4    9 1   
    10    5    6 1   
    11    5    7 1   
    12    5   15 1   
    13    6   10 1   
    14    7    8 1   
    15    7    9 1   
    16    7   16 1   
    17    8   11 1   
    18    9   17 1   
    19    9   19 1   
    20   17   20 1   
@<TRIPOS>SUBSTRUCTURE
     1 HSU         1 TEMP              0 ****  ****    0 ROOT
