@<TRIPOS>MOLECULE
HSU
   20    20     1     0     0
SMALL
bcc


@<TRIPOS>ATOM
      1 O5'        -2.6730    0.8150   -1.3240 oh        1 HSU     -0.591800
      2 C5'        -1.2630    0.8150   -1.3240 c3        1 HSU      0.113400
      3 C4'        -0.7460    0.8150    0.1380 c3        1 HSU      0.136100
      4 O4'        -1.1090   -0.5300    0.8390 os        1 HSU     -0.433600
      5 C3'         0.5170    0.8660    0.1560 c3        1 HSU      0.133100
      6 O3'         0.9740    1.5770    1.3510 oh        1 HSU     -0.585800
      7 C2'         1.0400   -0.6970    0.1940 c3        1 HSU      0.081100
      8 O2'         2.3910   -0.7620    0.7530 oh        1 HSU     -0.595800
      9 C1'         0.2320   -1.3210    0.9410 c3        1 HSU      0.298900
     10 HO3'        1.4320    2.2980    1.1090 ho        1 HSU      0.428000
     11 HO2'        2.9450   -1.1010    0.1490 ho        1 HSU      0.421000
     12 H5'        -0.9380    0.0170   -1.7840 h1        1 HSU      0.034700
     13 H5'A       -0.9380    1.6110   -1.7860 h1        1 HSU      0.034700
     14 H4'        -1.1230    1.5670    0.6320 h1        1 HSU      0.118700
     15 H3'         0.8470    1.3110   -0.6480 h1        1 HSU      0.055700
     16 H2'         1.0290   -1.0780   -0.7050 h1        1 HSU      0.073700
     17 O5          0.0530   -2.6700    0.4670 oh        1 HSU     -0.632800
     18 H8         -2.9690    0.9680   -2.1470 ho        1 HSU      0.402000
     19 H1'         0.5540   -1.3240    1.8620 h2        1 HSU      0.079700
     20 H10        -0.2550   -3.1770    1.1270 ho        1 HSU      0.431000
@<TRIPOS>BOND
     1    1    2 1   
     2    1   18 1   
     3    2    3 1   
     4    2   12 1   
     5    2   13 1   
     6    3    4 1   
     7    3    5 1   
     8    3   14 1   
     9    4    9 1   
    10    5    6 1   
    11    5    7 1   
    12    5   15 1   
    13    6   10 1   
    14    7    8 1   
    15    7    9 1   
    16    7   16 1   
    17    8   11 1   
    18    9   17 1   
    19    9   19 1   
    20   17   20 1   
@<TRIPOS>SUBSTRUCTURE
     1 HSU         1 TEMP              0 ****  ****    0 ROOT
