@<TRIPOS>MOLECULE
HSW
   12    11     1     0     0
SMALL
bcc


@<TRIPOS>ATOM
      1 O3          0.0440    0.0490    0.0740 oh        1 HSW     -0.391300
      2 N2          1.3770    0.1170   -0.1320 ny        1 HSW     -0.497400
      3 S1          1.8090   -0.1340    1.7140 s6        1 HSW      1.457800
      4 O2          1.4700    1.0400    2.2990 o         1 HSW     -0.392800
      5 O1          1.5430   -1.4420    1.9460 o         1 HSW     -0.392800
      6 N1          3.6280   -0.0650    1.6050 nz        1 HSW     -0.859500
      7 HO3        -0.4780    0.1540   -0.7650 ho        1 HSW      0.546000
      8 HN2         1.6780   -0.6250   -0.7880 hn        1 HSW      0.493800
      9 HN11        4.0610   -0.9380    1.9630 hn        1 HSW      0.513800
     10 HN12        4.0500    0.0810    0.6800 hn        1 HSW      0.513800
     11 H22         1.6310    1.0280   -0.5530 hn        1 HSW      0.493800
     12 H13         4.0120    0.6960    2.1980 hn        1 HSW      0.513800
@<TRIPOS>BOND
     1    1    2 1   
     2    1    7 1   
     3    2    3 1   
     4    2    8 1   
     5    2   11 1   
     6    3    4 2   
     7    3    5 2   
     8    3    6 1   
     9    6    9 1   
    10    6   10 1   
    11    6   12 1   
@<TRIPOS>SUBSTRUCTURE
     1 HSW         1 TEMP              0 ****  ****    0 ROOT
