@<TRIPOS>MOLECULE
HSW
   12    11     1     0     0
SMALL
bcc


@<TRIPOS>ATOM
      1 O3          0.0380    0.0150    0.0890 oh        1 HSW     -0.391300
      2 N2          1.3670    0.1240   -0.1240 n4        1 HSW     -0.497400
      3 S1          1.8180   -0.1640    1.7120 s6        1 HSW      1.457800
      4 O2          1.4520    0.9850    2.3310 o         1 HSW     -0.392800
      5 O1          1.5890   -1.4830    1.9100 o         1 HSW     -0.392800
      6 N1          3.6340   -0.0430    1.5930 n4        1 HSW     -0.859500
      7 HO3        -0.4920    0.1280   -0.7450 ho        1 HSW      0.546000
      8 HN2         1.6840   -0.5910   -0.8020 hn        1 HSW      0.493800
      9 HN11        4.0920   -0.9130    1.9270 hn        1 HSW      0.513800
     10 HN12        4.0460    0.1370    0.6700 hn        1 HSW      0.513800
     11 H22         1.5940    1.0530   -0.5220 hn        1 HSW      0.493800
     12 H13         4.0030    0.7120    2.2040 hn        1 HSW      0.513800
@<TRIPOS>BOND
     1    1    2 1   
     2    1    7 1   
     3    2    3 1   
     4    2    8 1   
     5    2   11 1   
     6    3    4 2   
     7    3    5 2   
     8    3    6 1   
     9    6    9 1   
    10    6   10 1   
    11    6   12 1   
@<TRIPOS>SUBSTRUCTURE
     1 HSW         1 TEMP              0 ****  ****    0 ROOT
