@<TRIPOS>MOLECULE
HSW
   12    11     1     0     0
SMALL
bcc


@<TRIPOS>ATOM
      1 O3          0.0460    0.0050    0.0850 oh        1 HSW     -0.393300
      2 N2          1.3790   -0.0020   -0.1320 n4        1 HSW     -0.496400
      3 S1          1.8100   -0.0020    1.7370 s6        1 HSW      1.457800
      4 O2          1.5100    1.2530    2.1460 o         1 HSW     -0.390800
      5 O1          1.5020   -1.2550    2.1470 o         1 HSW     -0.390800
      6 N1          3.6260   -0.0080    1.5900 n4        1 HSW     -0.857500
      7 HO3        -0.4780    0.0060   -0.7600 ho        1 HSW      0.546000
      8 HN2         1.6520   -0.8390   -0.6760 hn        1 HSW      0.492800
      9 HN11        4.0240   -0.8380    1.1250 hn        1 HSW      0.513133
     10 HN12        4.0290    0.8190    1.1240 hn        1 HSW      0.513133
     11 H22         1.6600    0.8300   -0.6780 hn        1 HSW      0.492800
     12 H13         4.0650   -0.0090    2.5320 hn        1 HSW      0.513133
@<TRIPOS>BOND
     1    1    2 1   
     2    1    7 1   
     3    2    3 1   
     4    2    8 1   
     5    2   11 1   
     6    3    4 2   
     7    3    5 2   
     8    3    6 1   
     9    6    9 1   
    10    6   10 1   
    11    6   12 1   
@<TRIPOS>SUBSTRUCTURE
     1 HSW         1 TEMP              0 ****  ****    0 ROOT
