@<TRIPOS>MOLECULE
HSW
   10     9     1     0     0
SMALL
bcc


@<TRIPOS>ATOM
      1 O3          1.7510   -2.5400    1.9210 oh        1 HSW     -0.337300
      2 N2          0.9460   -3.0450    1.0050 n3        1 HSW     -0.703600
      3 S1         -0.5130   -2.2910    0.7250 s6        1 HSW      1.594800
      4 O2         -1.1380   -3.0660   -0.2810 o         1 HSW     -0.643300
      5 O1         -1.2280   -2.1160    1.9240 o         1 HSW     -0.643300
      6 N1         -0.1170   -0.8520    0.1440 n3        1 HSW     -1.022700
      7 HO3         2.5820   -2.2900    1.4650 ho        1 HSW      0.401000
      8 HN2         1.0960   -4.0170    0.8270 hn        1 HSW      0.447800
      9 HN11        0.0670   -0.6760   -0.8120 hn        1 HSW      0.452800
     10 HN12       -0.0430   -0.0400    0.7050 hn        1 HSW      0.452800
@<TRIPOS>BOND
     1    1    2 1   
     2    1    7 1   
     3    2    3 1   
     4    2    8 1   
     5    3    4 2   
     6    3    5 2   
     7    3    6 1   
     8    6    9 1   
     9    6   10 1   
@<TRIPOS>SUBSTRUCTURE
     1 HSW         1 TEMP              0 ****  ****    0 ROOT
