@<TRIPOS>MOLECULE
HSX
   23    23     1     0     0
SMALL
bcc


@<TRIPOS>ATOM
      1 C1'        -3.0310   -0.8830    0.9220 c3        1 HSX      0.297900
      2 O1'        -1.8930   -1.6280    0.5400 os        1 HSX     -0.462600
      3 C2'        -2.6460    0.6190    0.9410 c3        1 HSX      0.084100
      4 O2'        -3.7250    1.4240    0.5210 oh        1 HSX     -0.615800
      5 C3'        -1.3840    0.6900    0.0570 c3        1 HSX      0.090100
      6 O3'        -1.7200    1.2800   -1.1820 oh        1 HSX     -0.690800
      7 C4'        -0.9430   -0.7750   -0.1440 c3        1 HSX      0.060100
      8 C5'         0.4770   -1.0200    0.4220 c3        1 HSX      0.219400
      9 O5'         1.4360   -0.5940   -0.4560 os        1 HSX     -0.566200
     10 P'          2.0720    1.0030   -0.1890 p5        1 HSX      1.330900
     11 O1X         0.9800    1.8120   -0.8640 o         1 HSX     -0.930167
     12 O2X         2.0380    1.1090    1.3110 o         1 HSX     -0.930167
     13 O3X         3.4090    0.9590   -0.8620 o         1 HSX     -0.930167
     14 O1         -4.0150   -1.1790   -0.0460 oh        1 HSX     -0.642800
     15 H1'        -3.4160   -1.2850    1.8920 h2        1 HSX      0.066700
     16 H2'        -2.4170    0.9430    1.9890 h1        1 HSX      0.068700
     17 HO2'       -3.6520    1.5310   -0.4370 ho        1 HSX      0.419000
     18 H3'        -0.5300    1.2730    0.5300 h1        1 HSX      0.159700
     19 HO3'       -0.8800    1.6840   -1.5010 ho        1 HSX      0.501000
     20 H4'        -0.9800   -1.0520   -1.2300 h1        1 HSX      0.051700
     21 H5'         0.5760   -0.4990    1.4170 h1        1 HSX      0.006200
     22 H5'A        0.5800   -2.1340    0.5770 h1        1 HSX      0.006200
     23 HO1        -3.6690   -0.8700   -0.8930 ho        1 HSX      0.408000
@<TRIPOS>BOND
     1    1    2 1   
     2    1    3 1   
     3    1   14 1   
     4    1   15 1   
     5    2    7 1   
     6    3    4 1   
     7    3    5 1   
     8    3   16 1   
     9    4   17 1   
    10    5    6 1   
    11    5    7 1   
    12    5   18 1   
    13    6   19 1   
    14    7    8 1   
    15    7   20 1   
    16    8    9 1   
    17    8   21 1   
    18    8   22 1   
    19    9   10 1   
    20   10   11 1   
    21   10   12 1   
    22   10   13 1   
    23   14   23 1   
@<TRIPOS>SUBSTRUCTURE
     1 HSX         1 TEMP              0 ****  ****    0 ROOT
