@<TRIPOS>MOLECULE
HSX
   23    23     1     0     0
SMALL
bcc


@<TRIPOS>ATOM
      1 C1'        -1.1150    0.5110   -1.4210 c3        1 HSX      0.297900
      2 O1'         0.0290    0.9850   -1.2240 os        1 HSX     -0.458600
      3 C2'        -1.8170    0.5220   -0.0080 c3        1 HSX      0.077100
      4 O2'        -2.7600    1.5020    0.0440 oh        1 HSX     -0.613800
      5 C3'        -0.7290    0.8020    0.9750 c3        1 HSX      0.124100
      6 O3'        -0.8500    2.2160    1.5030 oh        1 HSX     -0.693800
      7 C4'         0.3890    0.6640    0.2910 c3        1 HSX      0.060100
      8 C5'         0.9090   -0.7610    0.4220 c3        1 HSX      0.237400
      9 O5'         2.1330   -0.8980   -0.3200 os        1 HSX     -0.563200
     10 P'          3.0910   -2.1240    0.0150 p5        1 HSX      1.335900
     11 O1X         2.3880   -3.4190   -0.3150 o         1 HSX     -0.933167
     12 O2X         4.3450   -2.0140   -0.8000 o         1 HSX     -0.933167
     13 O3X         3.4400   -2.1020    1.4710 o         1 HSX     -0.933167
     14 O1         -1.8450    1.3410   -2.3480 oh        1 HSX     -0.639800
     15 H1'        -1.0490   -0.4070   -1.7630 h2        1 HSX      0.065700
     16 H2'        -2.2360   -0.3770    0.1810 h1        1 HSX      0.055700
     17 HO2'       -3.4990    1.1760    0.3540 ho        1 HSX      0.422000
     18 H3'        -0.7620    0.1280    1.7410 h1        1 HSX      0.110700
     19 HO3'       -0.8000    2.2070    2.3960 ho        1 HSX      0.514000
     20 H4'         1.0570    1.2930    0.6150 h1        1 HSX      0.057700
     21 H5'         1.0700   -0.9540    1.3380 h1        1 HSX      0.001200
     22 H5'A        0.2510   -1.3790    0.0730 h1        1 HSX      0.001200
     23 HO1        -1.6390    1.0870   -3.2200 ho        1 HSX      0.407000
@<TRIPOS>BOND
     1    1    2 1   
     2    1    3 1   
     3    1   14 1   
     4    1   15 1   
     5    2    7 1   
     6    3    4 1   
     7    3    5 1   
     8    3   16 1   
     9    4   17 1   
    10    5    6 1   
    11    5    7 1   
    12    5   18 1   
    13    6   19 1   
    14    7    8 1   
    15    7   20 1   
    16    8    9 1   
    17    8   21 1   
    18    8   22 1   
    19    9   10 1   
    20   10   11 1   
    21   10   12 1   
    22   10   13 1   
    23   14   23 1   
@<TRIPOS>SUBSTRUCTURE
     1 HSX         1 TEMP              0 ****  ****    0 ROOT
