@<TRIPOS>MOLECULE
HSY
   20    20     1     0     0
SMALL
bcc


@<TRIPOS>ATOM
      1 C5         -1.4600    0.6600    0.4540 c3        1 HSY      0.292900
      2 C4         -0.8540   -0.7510    0.6040 c3        1 HSY      0.139100
      3 C3          0.4830   -0.8470   -0.1470 c3        1 HSY      0.119100
      4 C2          1.3830    0.3390    0.2440 c3        1 HSY      0.071100
      5 C1          0.6570    1.6560   -0.0230 c3        1 HSY      0.099400
      6 O4         -1.7820   -1.7120    0.1570 oh        1 HSY     -0.570800
      7 O3          1.0890   -2.0680    0.2330 oh        1 HSY     -0.585800
      8 O2          2.5450    0.2280   -0.5640 oh        1 HSY     -0.599800
      9 O5         -0.5610    1.7210    0.7070 os        1 HSY     -0.438600
     10 O51        -1.8770    0.8070   -0.8840 oh        1 HSY     -0.632800
     11 H5         -2.3060    0.8190    1.1820 h2        1 HSY      0.086700
     12 H4         -0.7010   -0.9820    1.6950 h1        1 HSY      0.103700
     13 H3          0.3030   -0.8330   -1.2580 h1        1 HSY      0.062700
     14 H2          1.6620    0.2570    1.3310 h1        1 HSY      0.060700
     15 H1          1.2490    2.5320    0.3510 h1        1 HSY      0.062700
     16 H1A         0.4500    1.7690   -1.1200 h1        1 HSY      0.062700
     17 HO4        -1.9180   -1.5640   -0.7890 ho        1 HSY      0.416000
     18 HO3         1.9420   -2.1000   -0.2220 ho        1 HSY      0.418000
     19 HO2         3.1460    0.9310   -0.2880 ho        1 HSY      0.409000
     20 H10        -2.2890    1.6760   -0.9680 ho        1 HSY      0.424000
@<TRIPOS>BOND
     1    1    2 1   
     2    1    9 1   
     3    1   10 1   
     4    1   11 1   
     5    2    3 1   
     6    2    6 1   
     7    2   12 1   
     8    3    4 1   
     9    3    7 1   
    10    3   13 1   
    11    4    5 1   
    12    4    8 1   
    13    4   14 1   
    14    5    9 1   
    15    5   15 1   
    16    5   16 1   
    17    6   17 1   
    18    7   18 1   
    19    8   19 1   
    20   10   20 1   
@<TRIPOS>SUBSTRUCTURE
     1 HSY         1 TEMP              0 ****  ****    0 ROOT
