@<TRIPOS>MOLECULE
HSY
   20    20     1     0     0
SMALL
bcc


@<TRIPOS>ATOM
      1 C5         -1.0790   -0.4560   -0.9950 c3        1 HSY      0.307900
      2 C4          0.4370   -0.4560   -0.9950 c3        1 HSY      0.051100
      3 C3          1.0010   -0.4560    0.3790 c3        1 HSY      0.082100
      4 C2          0.4260    0.6280    1.2260 c3        1 HSY      0.107100
      5 C1         -1.0960    0.6250    1.2150 c3        1 HSY      0.100400
      6 O4          0.9010    0.7150   -1.6890 oh        1 HSY     -0.584800
      7 O3          0.7200   -1.7360    1.0020 oh        1 HSY     -0.592800
      8 O2          0.8900    1.8920    0.7380 oh        1 HSY     -0.594800
      9 O5         -1.6480    0.6200   -0.1440 os        1 HSY     -0.457600
     10 O51        -1.5260   -0.2850   -2.2900 oh        1 HSY     -0.569800
     11 H5         -1.3940   -1.3190   -0.6640 h2        1 HSY      0.093700
     12 H4          0.7530   -1.2500   -1.4670 h1        1 HSY      0.092700
     13 H3          1.9690   -0.3360    0.3240 h1        1 HSY      0.070700
     14 H2          0.7360    0.5110    2.1440 h1        1 HSY      0.097700
     15 H1         -1.4130   -0.1690    1.6870 h1        1 HSY      0.073200
     16 H1A        -1.4170    1.4200    1.6830 h1        1 HSY      0.073200
     17 HO4         1.3720    0.4700   -2.4010 ho        1 HSY      0.408000
     18 HO3         1.4840   -2.1380    1.2100 ho        1 HSY      0.411000
     19 HO2         1.2180    2.3680    1.4120 ho        1 HSY      0.409000
     20 H10        -2.3320   -0.6470   -2.3750 ho        1 HSY      0.422000
@<TRIPOS>BOND
     1    1    2 1   
     2    1    9 1   
     3    1   10 1   
     4    1   11 1   
     5    2    3 1   
     6    2    6 1   
     7    2   12 1   
     8    3    4 1   
     9    3    7 1   
    10    3   13 1   
    11    4    5 1   
    12    4    8 1   
    13    4   14 1   
    14    5    9 1   
    15    5   15 1   
    16    5   16 1   
    17    6   17 1   
    18    7   18 1   
    19    8   19 1   
    20   10   20 1   
@<TRIPOS>SUBSTRUCTURE
     1 HSY         1 TEMP              0 ****  ****    0 ROOT
