@<TRIPOS>MOLECULE
HSZ
   20    20     1     0     0
SMALL
bcc


@<TRIPOS>ATOM
      1 C1         -1.1680    0.4490   -1.2990 c3        1 HSZ      0.138400
      2 C2          0.3540    0.4490   -1.2990 c3        1 HSZ      0.114100
      3 C3          0.9160    0.4490    0.0710 c3        1 HSZ      0.108100
      4 C4          0.3420   -0.6300    0.9140 c3        1 HSZ      0.053100
      5 C5         -1.1800   -0.6250    0.9020 c3        1 HSZ      0.308900
      6 O5         -1.7320   -0.6180   -0.4570 os        1 HSZ     -0.445600
      7 H1         -1.4840    1.3110   -0.9680 h1        1 HSZ      0.071200
      8 H1A        -1.4840    0.3270   -2.2150 h1        1 HSZ      0.071200
      9 O2          0.8190    1.6200   -1.9920 oh        1 HSZ     -0.593800
     10 O3          2.3590    0.2640   -0.0120 oh        1 HSZ     -0.606800
     11 H4          0.6580   -1.4920    0.5820 h1        1 HSZ      0.061700
     12 O4          0.7960   -0.4560    2.2650 oh        1 HSZ     -0.601800
     13 O51        -1.6380   -1.7540    1.5670 oh        1 HSZ     -0.597800
     14 H5         -1.4960    0.1690    1.3740 h2        1 HSZ      0.086700
     15 H2          0.6700   -0.3450   -1.7700 h1        1 HSZ      0.060700
     16 H3          0.7310    1.3110    0.4900 h1        1 HSZ      0.064700
     17 HO2         1.0240    1.4060   -2.8290 ho        1 HSZ      0.425000
     18 HO3         2.7680    0.9790    0.3170 ho        1 HSZ      0.427000
     19 H9          1.2190   -1.1890    2.5310 ho        1 HSZ      0.424000
     20 H10        -2.4760   -1.6240    1.8270 ho        1 HSZ      0.429000
@<TRIPOS>BOND
     1    1    2 1   
     2    1    6 1   
     3    1    7 1   
     4    1    8 1   
     5    2    3 1   
     6    2    9 1   
     7    2   15 1   
     8    3    4 1   
     9    3   10 1   
    10    3   16 1   
    11    4    5 1   
    12    4   11 1   
    13    4   12 1   
    14    5    6 1   
    15    5   13 1   
    16    5   14 1   
    17    9   17 1   
    18   10   18 1   
    19   12   19 1   
    20   13   20 1   
@<TRIPOS>SUBSTRUCTURE
     1 HSZ         1 TEMP              0 ****  ****    0 ROOT
