@<TRIPOS>MOLECULE
HSZ
   20    20     1     0     0
SMALL
bcc


@<TRIPOS>ATOM
      1 C1         -0.6040    1.7270   -0.2990 c3        1 HSZ      0.110400
      2 C2         -1.3910    0.5430    0.2630 c3        1 HSZ      0.065100
      3 C3         -0.7720   -0.7940   -0.1860 c3        1 HSZ      0.153100
      4 C4          0.7270   -0.8200    0.1450 c3        1 HSZ      0.124100
      5 C5          1.4150    0.4800   -0.3280 c3        1 HSZ      0.305900
      6 O5          0.7550    1.6630    0.1040 os        1 HSZ     -0.449600
      7 H1         -0.6760    1.7470   -1.4190 h1        1 HSZ      0.060200
      8 H1A        -0.9740    2.6980    0.1240 h1        1 HSZ      0.060200
      9 O2         -2.7170    0.5400   -0.2420 oh        1 HSZ     -0.598800
     10 O3         -1.3700   -1.8550    0.5390 oh        1 HSZ     -0.584800
     11 H4          0.8750   -0.9520    1.2520 h1        1 HSZ      0.077700
     12 O4          1.2860   -1.9070   -0.5700 oh        1 HSZ     -0.582800
     13 O51         2.6600    0.5640    0.3220 oh        1 HSZ     -0.606800
     14 H5          1.5450    0.4870   -1.4470 h2        1 HSZ      0.054700
     15 H2         -1.4040    0.5860    1.3870 h1        1 HSZ      0.064700
     16 H3         -0.9290   -0.9410   -1.2900 h1        1 HSZ      0.068700
     17 HO2        -3.1570    1.3180    0.1210 ho        1 HSZ      0.409000
     18 HO3        -2.2980   -1.8730    0.2720 ho        1 HSZ      0.417000
     19 H9          2.1890   -2.0100   -0.2410 ho        1 HSZ      0.417000
     20 H10         2.8840    1.5000    0.4230 ho        1 HSZ      0.434000
@<TRIPOS>BOND
     1    1    2 1   
     2    1    6 1   
     3    1    7 1   
     4    1    8 1   
     5    2    3 1   
     6    2    9 1   
     7    2   15 1   
     8    3    4 1   
     9    3   10 1   
    10    3   16 1   
    11    4    5 1   
    12    4   11 1   
    13    4   12 1   
    14    5    6 1   
    15    5   13 1   
    16    5   14 1   
    17    9   17 1   
    18   10   18 1   
    19   12   19 1   
    20   13   20 1   
@<TRIPOS>SUBSTRUCTURE
     1 HSZ         1 TEMP              0 ****  ****    0 ROOT
