@<TRIPOS>MOLECULE
HT
   56    61     1     0     0
SMALL
bcc


@<TRIPOS>ATOM
      1 O1          0.0070    0.6580   -0.1070 oh        1 HT      -0.492100
      2 C1          1.3670    0.4750   -0.1470 ca        1 HT       0.142100
      3 C4          4.1260    0.0840   -0.0780 ca        1 HT      -0.157900
      4 C2          1.9870    0.1180    1.0640 ca        1 HT      -0.190500
      5 C3          3.3620   -0.0770    1.0880 ca        1 HT      -0.061500
      6 C6          2.1200    0.6290   -1.3200 ca        1 HT      -0.190500
      7 C5          3.4970    0.4320   -1.2810 ca        1 HT      -0.061500
      8 C7          5.5750   -0.1200   -0.0580 cc        1 HT       0.483400
      9 N1          6.3560    0.1810    1.0840 na        1 HT      -0.276300
     10 C8          7.6790   -0.1210    0.7560 ca        1 HT      -0.080200
     11 C9          7.6450   -0.6130   -0.6120 ca        1 HT       0.080400
     12 N2          6.3210   -0.5960   -1.0850 nd        1 HT      -0.566100
     13 C10         8.8420   -1.0140   -1.2230 ca        1 HT      -0.074000
     14 C11        10.0190   -0.9180   -0.5000 ca        1 HT      -0.142000
     15 C12        10.0430   -0.4270    0.8250 ca        1 HT      -0.100900
     16 C13         8.8750   -0.0270    1.4740 ca        1 HT      -0.086000
     17 C14        11.3150   -0.3380    1.5480 cc        1 HT       0.462400
     18 N3         12.5320   -0.0400    0.8830 na        1 HT      -0.282300
     19 C15        13.5280   -0.0260    1.8610 ca        1 HT      -0.045200
     20 C16        12.8570   -0.3240    3.1130 ca        1 HT       0.042400
     21 N4         11.4820   -0.5100    2.8800 nd        1 HT      -0.556100
     22 C17        13.6200   -0.3810    4.2860 ca        1 HT      -0.048000
     23 C18        14.9810   -0.1460    4.2130 ca        1 HT      -0.196000
     24 C19        15.6460    0.1420    2.9840 ca        1 HT       0.155600
     25 C20        14.9040    0.2030    1.7900 ca        1 HT      -0.172000
     26 N5         17.0550    0.2950    2.9140 nh        1 HT      -0.639000
     27 C21        17.8090   -0.0650    4.1030 c3        1 HT       0.186300
     28 C22        19.3310   -0.0690    3.8480 c3        1 HT       0.165300
     29 N6         19.8080    1.1680    3.2470 n3        1 HT      -0.732600
     30 C23        19.0400    1.5400    2.0680 c3        1 HT       0.165300
     31 C24        17.5180    1.5390    2.3170 c3        1 HT       0.186300
     32 C25        21.2310    1.1470    2.9940 c3        1 HT       0.157100
     33 HO1        -0.2940    0.8810   -1.0000 ho        1 HT       0.424000
     34 H2          1.3770   -0.0070    1.9690 ha        1 HT       0.148500
     35 H3          3.8400   -0.3770    2.0330 ha        1 HT       0.147000
     36 H5          4.0910    0.5460   -2.2020 ha        1 HT       0.147000
     37 H6          1.6270    0.9020   -2.2640 ha        1 HT       0.148500
     38 HN1         6.0310    0.5530    1.9360 hn        1 HT       0.309700
     39 H10         8.8360   -1.4020   -2.2520 ha        1 HT       0.151000
     40 H11        10.9550   -1.2560   -0.9700 ha        1 HT       0.132000
     41 H13         8.8940    0.3410    2.5100 ha        1 HT       0.160000
     42 HN3        12.6450    0.1290   -0.0790 hn        1 HT       0.306700
     43 H17        13.1380   -0.6060    5.2490 ha        1 HT       0.147000
     44 H18        15.5580   -0.1840    5.1500 ha        1 HT       0.135000
     45 H20        15.3830    0.4070    0.8230 ha        1 HT       0.140000
     46 H211       17.5930    0.6350    4.9620 h1        1 HT       0.044450
     47 H212       17.5110   -1.1060    4.4090 h1        1 HT       0.044450
     48 H221       19.8420   -0.1860    4.8440 h1        1 HT       0.038700
     49 H222       19.5900   -0.9680    3.2160 h1        1 HT       0.038700
     50 H231       19.3370    2.5870    1.7810 h1        1 HT       0.038700
     51 H232       19.2640    0.8630    1.1920 h1        1 HT       0.038700
     52 H241       17.0090    1.6760    1.3230 h1        1 HT       0.044450
     53 H242       17.2570    2.4240    2.9670 h1        1 HT       0.044450
     54 H253       21.7650    0.9400    3.9590 h1        1 HT       0.033033
     55 H252       21.5400    0.3700    2.2420 h1        1 HT       0.033033
     56 H251       21.5450    2.1540    2.6160 h1        1 HT       0.033033
@<TRIPOS>BOND
     1    1    2 1   
     2    1   33 1   
     3    2    4 ar  
     4    2    6 ar  
     5    3    5 ar  
     6    3    7 ar  
     7    3    8 1   
     8    4    5 ar  
     9    4   34 1   
    10    5   35 1   
    11    6    7 ar  
    12    6   37 1   
    13    7   36 1   
    14    8    9 1   
    15    8   12 2   
    16    9   10 1   
    17    9   38 1   
    18   10   11 ar  
    19   10   16 ar  
    20   11   12 1   
    21   11   13 ar  
    22   13   14 ar  
    23   13   39 1   
    24   14   15 ar  
    25   14   40 1   
    26   15   16 ar  
    27   15   17 1   
    28   16   41 1   
    29   17   18 1   
    30   17   21 2   
    31   18   19 1   
    32   18   42 1   
    33   19   20 ar  
    34   19   25 ar  
    35   20   21 1   
    36   20   22 ar  
    37   22   23 ar  
    38   22   43 1   
    39   23   24 ar  
    40   23   44 1   
    41   24   25 ar  
    42   24   26 1   
    43   25   45 1   
    44   26   27 1   
    45   26   31 1   
    46   27   28 1   
    47   27   46 1   
    48   27   47 1   
    49   28   29 1   
    50   28   48 1   
    51   28   49 1   
    52   29   30 1   
    53   29   32 1   
    54   30   31 1   
    55   30   50 1   
    56   30   51 1   
    57   31   52 1   
    58   31   53 1   
    59   32   54 1   
    60   32   55 1   
    61   32   56 1   
@<TRIPOS>SUBSTRUCTURE
     1 HT          1 TEMP              0 ****  ****    0 ROOT
