@<TRIPOS>MOLECULE
HT
   56    61     1     0     0
SMALL
bcc


@<TRIPOS>ATOM
      1 O1         10.7790    0.7860    0.9300 oh        1 HT      -0.492100
      2 C1          9.4650    0.4710    0.6810 ca        1 HT       0.142100
      3 C4          6.7700   -0.0180    0.1670 ca        1 HT      -0.157900
      4 C2          8.6120    1.5450    0.3720 ca        1 HT      -0.190500
      5 C3          7.2710    1.2920    0.1150 ca        1 HT      -0.061500
      6 C6          8.9770   -0.8430    0.7270 ca        1 HT      -0.190500
      7 C5          7.6310   -1.0820    0.4680 ca        1 HT      -0.061500
      8 C7          5.3580   -0.2910   -0.1030 cc        1 HT       0.483400
      9 N1          4.3400    0.6350    0.2320 na        1 HT      -0.276300
     10 C8          3.1300    0.0560   -0.1520 ca        1 HT      -0.080200
     11 C9          3.4730   -1.2350   -0.7260 ca        1 HT       0.080400
     12 N2          4.8650   -1.4160   -0.6770 nd        1 HT      -0.566100
     13 C10         2.4480   -2.0550   -1.2210 ca        1 HT      -0.074000
     14 C11         1.1410   -1.6060   -1.1350 ca        1 HT      -0.142000
     15 C12         0.8170   -0.3550   -0.5630 ca        1 HT      -0.100900
     16 C13         1.8050    0.4970   -0.0700 ca        1 HT      -0.086000
     17 C14        -0.5830    0.0750   -0.4890 cc        1 HT       0.462400
     18 N3         -1.6380   -0.8530   -0.2910 na        1 HT      -0.282300
     19 C15        -2.8210   -0.1120   -0.2630 ca        1 HT      -0.045200
     20 C16        -2.4240    1.2720   -0.4500 ca        1 HT       0.042400
     21 N4         -1.0260    1.3490   -0.5850 nd        1 HT      -0.556100
     22 C17        -3.4180    2.2580   -0.4690 ca        1 HT      -0.048000
     23 C18        -4.7390    1.8810   -0.3020 ca        1 HT      -0.196000
     24 C19        -5.1340    0.5230   -0.1240 ca        1 HT       0.155600
     25 C20        -4.1550   -0.4890   -0.1030 ca        1 HT      -0.172000
     26 N5         -6.5000    0.1450   -0.0420 nh        1 HT      -0.639000
     27 C21        -7.4790    1.1700   -0.3620 c3        1 HT       0.186300
     28 C22        -8.9090    0.5990   -0.4530 c3        1 HT       0.165300
     29 N6         -9.2870   -0.1760    0.7200 n3        1 HT      -0.732600
     30 C23        -8.2960   -1.1890    1.0530 c3        1 HT       0.165300
     31 C24        -6.8640   -0.6240    1.1390 c3        1 HT       0.186300
     32 C25       -10.6210   -0.7220    0.6160 c3        1 HT       0.157100
     33 HO1        11.2570   -0.0380    1.1110 ho        1 HT       0.424000
     34 H2          9.0180    2.5660    0.3330 ha        1 HT       0.148500
     35 H3          6.6120    2.1330   -0.1480 ha        1 HT       0.147000
     36 H5          7.2450   -2.1140    0.4960 ha        1 HT       0.147000
     37 H6          9.6520   -1.6780    0.9630 ha        1 HT       0.148500
     38 HN1         4.4630    1.5080    0.6710 hn        1 HT       0.309700
     39 H10         2.6870   -3.0290   -1.6720 ha        1 HT       0.151000
     40 H11         0.3390   -2.2390   -1.5450 ha        1 HT       0.132000
     41 H13         1.5520    1.4760    0.3610 ha        1 HT       0.160000
     42 HN3        -1.5470   -1.8270   -0.1880 hn        1 HT       0.306700
     43 H17        -3.1470    3.3140   -0.6090 ha        1 HT       0.147000
     44 H18        -5.5020    2.6750   -0.3090 ha        1 HT       0.135000
     45 H20        -4.4230   -1.5470    0.0170 ha        1 HT       0.140000
     46 H211       -7.4750    2.0030    0.4010 h1        1 HT       0.044450
     47 H212       -7.2200    1.6060   -1.3660 h1        1 HT       0.044450
     48 H221       -9.6180    1.4700   -0.5310 h1        1 HT       0.038700
     49 H222       -8.9980   -0.0070   -1.4010 h1        1 HT       0.038700
     50 H231       -8.5590   -1.6060    2.0650 h1        1 HT       0.038700
     51 H232       -8.3050   -2.0420    0.3130 h1        1 HT       0.038700
     52 H241       -6.1590   -1.4950    1.2380 h1        1 HT       0.044450
     53 H242       -6.7770    0.0020    2.0740 h1        1 HT       0.044450
     54 H253      -10.7360   -1.4650   -0.2200 h1        1 HT       0.033033
     55 H252      -10.8790   -1.2290    1.5820 h1        1 HT       0.033033
     56 H251      -11.3420    0.1200    0.4460 h1        1 HT       0.033033
@<TRIPOS>BOND
     1    1    2 1   
     2    1   33 1   
     3    2    4 ar  
     4    2    6 ar  
     5    3    5 ar  
     6    3    7 ar  
     7    3    8 1   
     8    4    5 ar  
     9    4   34 1   
    10    5   35 1   
    11    6    7 ar  
    12    6   37 1   
    13    7   36 1   
    14    8    9 1   
    15    8   12 2   
    16    9   10 1   
    17    9   38 1   
    18   10   11 ar  
    19   10   16 ar  
    20   11   12 1   
    21   11   13 ar  
    22   13   14 ar  
    23   13   39 1   
    24   14   15 ar  
    25   14   40 1   
    26   15   16 ar  
    27   15   17 1   
    28   16   41 1   
    29   17   18 1   
    30   17   21 2   
    31   18   19 1   
    32   18   42 1   
    33   19   20 ar  
    34   19   25 ar  
    35   20   21 1   
    36   20   22 ar  
    37   22   23 ar  
    38   22   43 1   
    39   23   24 ar  
    40   23   44 1   
    41   24   25 ar  
    42   24   26 1   
    43   25   45 1   
    44   26   27 1   
    45   26   31 1   
    46   27   28 1   
    47   27   46 1   
    48   27   47 1   
    49   28   29 1   
    50   28   48 1   
    51   28   49 1   
    52   29   30 1   
    53   29   32 1   
    54   30   31 1   
    55   30   50 1   
    56   30   51 1   
    57   31   52 1   
    58   31   53 1   
    59   32   54 1   
    60   32   55 1   
    61   32   56 1   
@<TRIPOS>SUBSTRUCTURE
     1 HT          1 TEMP              0 ****  ****    0 ROOT
