@<TRIPOS>MOLECULE
HT
   56    61     1     0     0
SMALL
bcc


@<TRIPOS>ATOM
      1 O1          0.0080    0.6830   -0.1130 oh        1 HT      -0.492100
      2 C1          1.3690    0.4960   -0.1510 ca        1 HT       0.142100
      3 C4          4.1260    0.0970   -0.0770 ca        1 HT      -0.157900
      4 C2          1.9870    0.1500    1.0630 ca        1 HT      -0.190500
      5 C3          3.3610   -0.0490    1.0900 ca        1 HT      -0.061500
      6 C6          2.1210    0.6350   -1.3260 ca        1 HT      -0.190500
      7 C5          3.4980    0.4330   -1.2840 ca        1 HT      -0.061500
      8 C7          5.5740   -0.1120   -0.0550 cc        1 HT       0.483400
      9 N1          6.3560    0.1990    1.0840 na        1 HT      -0.276300
     10 C8          7.6780   -0.1120    0.7580 ca        1 HT      -0.080200
     11 C9          7.6420   -0.6170   -0.6040 ca        1 HT       0.080400
     12 N2          6.3190   -0.6010   -1.0770 nd        1 HT      -0.566100
     13 C10         8.8380   -1.0290   -1.2110 ca        1 HT      -0.074000
     14 C11        10.0150   -0.9290   -0.4890 ca        1 HT      -0.142000
     15 C12        10.0410   -0.4240    0.8310 ca        1 HT      -0.100900
     16 C13         8.8740   -0.0140    1.4760 ca        1 HT      -0.086000
     17 C14        11.3130   -0.3320    1.5540 cc        1 HT       0.462400
     18 N3         12.5310   -0.0440    0.8860 na        1 HT      -0.282300
     19 C15        13.5280   -0.0240    1.8630 ca        1 HT      -0.045200
     20 C16        12.8550   -0.3070    3.1180 ca        1 HT       0.042400
     21 N4         11.4800   -0.4910    2.8870 nd        1 HT      -0.556100
     22 C17        13.6170   -0.3550    4.2920 ca        1 HT      -0.048000
     23 C18        14.9790   -0.1240    4.2170 ca        1 HT      -0.196000
     24 C19        15.6450    0.1490    2.9850 ca        1 HT       0.155600
     25 C20        14.9040    0.2000    1.7900 ca        1 HT      -0.172000
     26 N5         17.0550    0.2960    2.9140 nh        1 HT      -0.639000
     27 C21        17.8080   -0.0530    4.1060 c3        1 HT       0.186300
     28 C22        19.3290   -0.0640    3.8520 c3        1 HT       0.165300
     29 N6         19.8110    1.1650    3.2380 n3        1 HT      -0.732600
     30 C23        19.0440    1.5270    2.0560 c3        1 HT       0.165300
     31 C24        17.5220    1.5330    2.3040 c3        1 HT       0.186300
     32 C25        21.2340    1.1370    2.9860 c3        1 HT       0.157100
     33 HO1        -0.2910    0.8980   -1.0090 ho        1 HT       0.424000
     34 H2          1.3760    0.0370    1.9700 ha        1 HT       0.148500
     35 H3          3.8380   -0.3410    2.0380 ha        1 HT       0.147000
     36 H5          4.0930    0.5360   -2.2070 ha        1 HT       0.147000
     37 H6          1.6290    0.8990   -2.2730 ha        1 HT       0.148500
     38 HN1         6.0330    0.5800    1.9310 hn        1 HT       0.309700
     39 H10         8.8310   -1.4280   -2.2360 ha        1 HT       0.151000
     40 H11        10.9500   -1.2750   -0.9550 ha        1 HT       0.132000
     41 H13         8.8950    0.3650    2.5080 ha        1 HT       0.160000
     42 HN3        12.6450    0.1140   -0.0780 hn        1 HT       0.306700
     43 H17        13.1350   -0.5680    5.2570 ha        1 HT       0.147000
     44 H18        15.5560   -0.1540    5.1540 ha        1 HT       0.135000
     45 H20        15.3840    0.3930    0.8220 ha        1 HT       0.140000
     46 H211       17.5060   -1.0910    4.4230 h1        1 HT       0.044450
     47 H212       17.5940    0.6560    4.9580 h1        1 HT       0.044450
     48 H221       19.5860   -0.9710    3.2290 h1        1 HT       0.038700
     49 H222       19.8400   -0.1730    4.8490 h1        1 HT       0.038700
     50 H231       19.2660    0.8410    1.1870 h1        1 HT       0.038700
     51 H232       19.3440    2.5710    1.7580 h1        1 HT       0.038700
     52 H241       17.2630    2.4250    2.9460 h1        1 HT       0.044450
     53 H242       17.0140    1.6620    1.3090 h1        1 HT       0.044450
     54 H253       21.5410    0.3510    2.2420 h1        1 HT       0.033033
     55 H252       21.7670    0.9390    3.9530 h1        1 HT       0.033033
     56 H251       21.5510    2.1390    2.5980 h1        1 HT       0.033033
@<TRIPOS>BOND
     1    1    2 1   
     2    1   33 1   
     3    2    4 ar  
     4    2    6 ar  
     5    3    5 ar  
     6    3    7 ar  
     7    3    8 1   
     8    4    5 ar  
     9    4   34 1   
    10    5   35 1   
    11    6    7 ar  
    12    6   37 1   
    13    7   36 1   
    14    8    9 1   
    15    8   12 2   
    16    9   10 1   
    17    9   38 1   
    18   10   11 ar  
    19   10   16 ar  
    20   11   12 1   
    21   11   13 ar  
    22   13   14 ar  
    23   13   39 1   
    24   14   15 ar  
    25   14   40 1   
    26   15   16 ar  
    27   15   17 1   
    28   16   41 1   
    29   17   18 1   
    30   17   21 2   
    31   18   19 1   
    32   18   42 1   
    33   19   20 ar  
    34   19   25 ar  
    35   20   21 1   
    36   20   22 ar  
    37   22   23 ar  
    38   22   43 1   
    39   23   24 ar  
    40   23   44 1   
    41   24   25 ar  
    42   24   26 1   
    43   25   45 1   
    44   26   27 1   
    45   26   31 1   
    46   27   28 1   
    47   27   46 1   
    48   27   47 1   
    49   28   29 1   
    50   28   48 1   
    51   28   49 1   
    52   29   30 1   
    53   29   32 1   
    54   30   31 1   
    55   30   50 1   
    56   30   51 1   
    57   31   52 1   
    58   31   53 1   
    59   32   54 1   
    60   32   55 1   
    61   32   56 1   
@<TRIPOS>SUBSTRUCTURE
     1 HT          1 TEMP              0 ****  ****    0 ROOT
