@<TRIPOS>MOLECULE
HT1
   62    67     1     0     0
SMALL
bcc


@<TRIPOS>ATOM
      1 C1         -0.2480   -0.1840    0.1170 ca        1 HT1      0.148100
      2 O1         -0.8880   -0.2290   -1.1010 os        1 HT1     -0.326900
      3 C2          1.1460   -0.3810    0.0580 ca        1 HT1     -0.189000
      4 C3          1.8900   -0.3510    1.2280 ca        1 HT1     -0.064500
      5 C4          1.2620   -0.1220    2.4640 ca        1 HT1     -0.159900
      6 C5         -0.1240    0.0640    2.5130 ca        1 HT1     -0.064500
      7 C6         -0.8840    0.0360    1.3450 ca        1 HT1     -0.189000
      8 C7          2.0680   -0.0940    3.6850 cc        1 HT1      0.486400
      9 N1          1.7230    0.7260    4.7880 na        1 HT1     -0.277300
     10 C8          2.7030    0.5210    5.7610 ca        1 HT1     -0.081200
     11 C9          3.6210   -0.4560    5.1980 ca        1 HT1      0.081400
     12 N2          3.1930   -0.8150    3.9090 nd        1 HT1     -0.565100
     13 C10         4.7240   -0.8720    5.9580 ca        1 HT1     -0.075000
     14 C11         4.8960   -0.3370    7.2240 ca        1 HT1     -0.142000
     15 C12         3.9920    0.6050    7.7650 ca        1 HT1     -0.101900
     16 C13         2.8870    1.0510    7.0420 ca        1 HT1     -0.086000
     17 C14         4.2130    1.1400    9.1120 cc        1 HT1      0.463400
     18 N3          4.8030    0.3560   10.1380 na        1 HT1     -0.282300
     19 C15         4.8420    1.1590   11.2800 ca        1 HT1     -0.046200
     20 C16         4.2780    2.4360   10.8850 ca        1 HT1      0.043400
     21 N4          3.8980    2.3870    9.5310 nd        1 HT1     -0.556100
     22 C17         4.2010    3.4590   11.8370 ca        1 HT1     -0.048000
     23 C18         4.6640    3.2190   13.1180 ca        1 HT1     -0.196000
     24 C19         5.2110    1.9620   13.5140 ca        1 HT1      0.155600
     25 C20         5.3020    0.9170   12.5760 ca        1 HT1     -0.172000
     26 N5          5.5990    1.7040   14.8550 nh        1 HT1     -0.639000
     27 C21         5.2200    2.6970   15.8450 c3        1 HT1      0.185800
     28 C22         5.4970    2.2180   17.2850 c3        1 HT1      0.165300
     29 N6          6.8620    1.7470   17.4730 n3        1 HT1     -0.732600
     30 C23         7.2510    0.7690   16.4680 c3        1 HT1      0.165300
     31 C24         6.9690    1.2410   15.0270 c3        1 HT1      0.185800
     32 C25         7.1060    1.2830   18.8200 c3        1 HT1      0.157100
     33 C26        -2.3120   -0.0550   -1.0750 c3        1 HT1      0.127400
     34 C27        -2.7690   -0.1580   -2.5120 c3        1 HT1     -0.101100
     35 H2          1.6250   -0.5580   -0.9160 ha        1 HT1      0.148500
     36 H3          2.9800   -0.5100    1.1880 ha        1 HT1      0.146000
     37 H5         -0.6360    0.2180    3.4750 ha        1 HT1      0.146000
     38 H6         -1.9710    0.1820    1.4050 ha        1 HT1      0.148500
     39 HN1         0.9890    1.3810    4.8220 hn        1 HT1      0.308700
     40 H10         5.4350   -1.6040    5.5480 ha        1 HT1      0.151000
     41 H11         5.7750   -0.6440    7.8110 ha        1 HT1      0.132000
     42 H13         2.1920    1.7930    7.4600 ha        1 HT1      0.159000
     43 HN3         5.0440   -0.5950   10.0770 hn        1 HT1      0.306700
     44 H17         3.7840    4.4400   11.5640 ha        1 HT1      0.146000
     45 H18         4.6050    4.0420   13.8470 ha        1 HT1      0.134000
     46 H20         5.7050   -0.0680   12.8470 ha        1 HT1      0.140000
     47 H211        5.7600    3.6750   15.6850 h1        1 HT1      0.044450
     48 H212        4.1130    2.8830   15.7530 h1        1 HT1      0.044450
     49 H221        4.7400    1.4250   17.5550 h1        1 HT1      0.038200
     50 H222        5.3390    3.0960   17.9720 h1        1 HT1      0.038200
     51 H231        8.3610    0.6040   16.5610 h1        1 HT1      0.038200
     52 H232        6.7370   -0.2240   16.6300 h1        1 HT1      0.038200
     53 H241        7.7080    2.0520   14.7610 h1        1 HT1      0.044450
     54 H242        7.1470    0.3680   14.3410 h1        1 HT1      0.044450
     55 H251        8.1910    1.0190   18.9190 h1        1 HT1      0.033033
     56 H252        6.4920    0.3820   19.1000 h1        1 HT1      0.033033
     57 H253        6.8680    2.1120   19.5360 h1        1 HT1      0.033033
     58 H261       -2.5550    0.9510   -0.6420 h1        1 HT1      0.039700
     59 H262       -2.7730   -0.8590   -0.4430 h1        1 HT1      0.039700
     60 H271       -3.8760   -0.0290   -2.5530 hc        1 HT1      0.051033
     61 H272       -2.4990   -1.1550   -2.9370 hc        1 HT1      0.051033
     62 H273       -2.2830    0.6310   -3.1340 hc        1 HT1      0.051033
@<TRIPOS>BOND
     1    1    2 1   
     2    1    3 ar  
     3    1    7 ar  
     4    2   33 1   
     5    3    4 ar  
     6    3   35 1   
     7    4    5 ar  
     8    4   36 1   
     9    5    6 ar  
    10    5    8 1   
    11    6    7 ar  
    12    6   37 1   
    13    7   38 1   
    14    8    9 1   
    15    8   12 2   
    16    9   10 1   
    17    9   39 1   
    18   10   11 ar  
    19   10   16 ar  
    20   11   12 1   
    21   11   13 ar  
    22   13   14 ar  
    23   13   40 1   
    24   14   15 ar  
    25   14   41 1   
    26   15   16 ar  
    27   15   17 1   
    28   16   42 1   
    29   17   18 1   
    30   17   21 2   
    31   18   19 1   
    32   18   43 1   
    33   19   20 ar  
    34   19   25 ar  
    35   20   21 1   
    36   20   22 ar  
    37   22   23 ar  
    38   22   44 1   
    39   23   24 ar  
    40   23   45 1   
    41   24   25 ar  
    42   24   26 1   
    43   25   46 1   
    44   26   27 1   
    45   26   31 1   
    46   27   28 1   
    47   27   47 1   
    48   27   48 1   
    49   28   29 1   
    50   28   49 1   
    51   28   50 1   
    52   29   30 1   
    53   29   32 1   
    54   30   31 1   
    55   30   51 1   
    56   30   52 1   
    57   31   53 1   
    58   31   54 1   
    59   32   55 1   
    60   32   56 1   
    61   32   57 1   
    62   33   34 1   
    63   33   58 1   
    64   33   59 1   
    65   34   60 1   
    66   34   61 1   
    67   34   62 1   
@<TRIPOS>SUBSTRUCTURE
     1 HT1         1 TEMP              0 ****  ****    0 ROOT
