@<TRIPOS>MOLECULE
HT1
   62    67     1     0     0
SMALL
bcc


@<TRIPOS>ATOM
      1 C1          0.3100   -0.1780    8.7380 ca        1 HT1      0.148100
      2 O1          0.4900   -0.1700   10.1030 os        1 HT1     -0.326900
      3 C2         -0.9060    0.3860    8.3010 ca        1 HT1     -0.189000
      4 C3         -1.1880    0.4330    6.9430 ca        1 HT1     -0.064500
      5 C4         -0.2680   -0.0740    6.0090 ca        1 HT1     -0.159900
      6 C5          0.9310   -0.6390    6.4540 ca        1 HT1     -0.064500
      7 C6          1.2280   -0.6930    7.8140 ca        1 HT1     -0.189000
      8 C7         -0.5880   -0.0130    4.5820 cc        1 HT1      0.486400
      9 N1          0.4200    0.1420    3.5990 na        1 HT1     -0.277300
     10 C8         -0.2290    0.1780    2.3630 ca        1 HT1     -0.081200
     11 C9         -1.6450    0.0230    2.6550 ca        1 HT1      0.081400
     12 N2         -1.8290   -0.0940    4.0430 nd        1 HT1     -0.565100
     13 C10        -2.5630    0.0150    1.5950 ca        1 HT1     -0.075000
     14 C11        -2.0840    0.1520    0.3030 ca        1 HT1     -0.142000
     15 C12        -0.7050    0.2920    0.0290 ca        1 HT1     -0.101900
     16 C13         0.2420    0.3120    1.0530 ca        1 HT1     -0.086000
     17 C14        -0.2440    0.4290   -1.3560 cc        1 HT1      0.463400
     18 N3         -0.9110   -0.2160   -2.4300 na        1 HT1     -0.282300
     19 C15        -0.2040    0.1060   -3.5900 ca        1 HT1     -0.046200
     20 C16         0.8800    0.9720   -3.1630 ca        1 HT1      0.043400
     21 N4          0.8230    1.1500   -1.7690 nd        1 HT1     -0.556100
     22 C17         1.7600    1.4720   -4.1300 ca        1 HT1     -0.048000
     23 C18         1.5680    1.1250   -5.4550 ca        1 HT1     -0.196000
     24 C19         0.5100    0.2670   -5.8780 ca        1 HT1      0.155600
     25 C20        -0.3900   -0.2480   -4.9270 ca        1 HT1     -0.172000
     26 N5          0.3800   -0.1500   -7.2290 nh        1 HT1     -0.639000
     27 C21         1.4880    0.1600   -8.1160 c3        1 HT1      0.185800
     28 C22         1.3400   -0.5220   -9.4920 c3        1 HT1      0.165300
     29 N6          0.0490   -0.2690  -10.1150 n3        1 HT1     -0.732600
     30 C23        -1.0610   -0.5580   -9.2190 c3        1 HT1      0.165300
     31 C24        -0.9140    0.1160   -7.8410 c3        1 HT1      0.185800
     32 C25        -0.0860   -0.9280  -11.3940 c3        1 HT1      0.157100
     33 C26         1.7080   -0.7580   10.5840 c3        1 HT1      0.127400
     34 C27         1.6590   -0.6380   12.0900 c3        1 HT1     -0.101100
     35 H2         -1.6160    0.7790    9.0430 ha        1 HT1      0.148500
     36 H3         -2.1390    0.8670    6.5980 ha        1 HT1      0.146000
     37 H5          1.6510   -1.0650    5.7380 ha        1 HT1      0.146000
     38 H6          2.1740   -1.1430    8.1430 ha        1 HT1      0.148500
     39 HN1         1.3790    0.2890    3.7630 hn        1 HT1      0.308700
     40 H10        -3.6390   -0.0920    1.7950 ha        1 HT1      0.151000
     41 H11        -2.8060    0.1710   -0.5280 ha        1 HT1      0.132000
     42 H13         1.3130    0.4330    0.8390 ha        1 HT1      0.159000
     43 HN3        -1.6640   -0.8440   -2.3540 hn        1 HT1      0.306700
     44 H17         2.5870    2.1360   -3.8370 ha        1 HT1      0.146000
     45 H18         2.2650    1.5400   -6.2000 ha        1 HT1      0.134000
     46 H20        -1.2090   -0.9210   -5.2140 ha        1 HT1      0.140000
     47 H211        1.5940    1.2720   -8.2790 h1        1 HT1      0.044450
     48 H212        2.4360   -0.2220   -7.6440 h1        1 HT1      0.044450
     49 H221        2.1360   -0.1010  -10.1670 h1        1 HT1      0.038200
     50 H222        1.5360   -1.6280   -9.3710 h1        1 HT1      0.038200
     51 H231       -2.0000   -0.1580   -9.6960 h1        1 HT1      0.038200
     52 H232       -1.1960   -1.6690   -9.0660 h1        1 HT1      0.038200
     53 H241       -1.7230   -0.2910   -7.1730 h1        1 HT1      0.044450
     54 H242       -1.0860    1.2260   -7.9600 h1        1 HT1      0.044450
     55 H251       -1.0620   -0.6220  -11.8560 h1        1 HT1      0.033033
     56 H252        0.7500   -0.5940  -12.0620 h1        1 HT1      0.033033
     57 H253       -0.0620   -2.0500  -11.3240 h1        1 HT1      0.033033
     58 H261        2.5830   -0.1990   10.1590 h1        1 HT1      0.039700
     59 H262        1.7540   -1.8320   10.2630 h1        1 HT1      0.039700
     60 H271        2.5880   -1.0810   12.5210 hc        1 HT1      0.051033
     61 H272        1.5880    0.4340   12.3940 hc        1 HT1      0.051033
     62 H273        0.7710   -1.1780   12.4960 hc        1 HT1      0.051033
@<TRIPOS>BOND
     1    1    2 1   
     2    1    3 ar  
     3    1    7 ar  
     4    2   33 1   
     5    3    4 ar  
     6    3   35 1   
     7    4    5 ar  
     8    4   36 1   
     9    5    6 ar  
    10    5    8 1   
    11    6    7 ar  
    12    6   37 1   
    13    7   38 1   
    14    8    9 1   
    15    8   12 2   
    16    9   10 1   
    17    9   39 1   
    18   10   11 ar  
    19   10   16 ar  
    20   11   12 1   
    21   11   13 ar  
    22   13   14 ar  
    23   13   40 1   
    24   14   15 ar  
    25   14   41 1   
    26   15   16 ar  
    27   15   17 1   
    28   16   42 1   
    29   17   18 1   
    30   17   21 2   
    31   18   19 1   
    32   18   43 1   
    33   19   20 ar  
    34   19   25 ar  
    35   20   21 1   
    36   20   22 ar  
    37   22   23 ar  
    38   22   44 1   
    39   23   24 ar  
    40   23   45 1   
    41   24   25 ar  
    42   24   26 1   
    43   25   46 1   
    44   26   27 1   
    45   26   31 1   
    46   27   28 1   
    47   27   47 1   
    48   27   48 1   
    49   28   29 1   
    50   28   49 1   
    51   28   50 1   
    52   29   30 1   
    53   29   32 1   
    54   30   31 1   
    55   30   51 1   
    56   30   52 1   
    57   31   53 1   
    58   31   54 1   
    59   32   55 1   
    60   32   56 1   
    61   32   57 1   
    62   33   34 1   
    63   33   58 1   
    64   33   59 1   
    65   34   60 1   
    66   34   61 1   
    67   34   62 1   
@<TRIPOS>SUBSTRUCTURE
     1 HT1         1 TEMP              0 ****  ****    0 ROOT
