@<TRIPOS>MOLECULE
HT1
   62    52     1     0     0
SMALL
bcc


@<TRIPOS>ATOM
      1 C1         -3.9180   -5.6220   -4.2220 c1        1 HT1      0.103000
      2 O1         -4.7040   -5.6690   -5.3890 o         1 HT1     -0.211000
      3 C2         -4.5220   -5.7050   -2.9770 c2        1 HT1     -0.163000
      4 C3         -3.7520   -5.6260   -1.8260 c1        1 HT1     -0.083000
      5 C4         -2.3790   -5.4640   -1.9210 c1        1 HT1     -0.062000
      6 C5         -1.7750   -5.3810   -3.1660 c1        1 HT1     -0.077750
      7 C6         -2.5450   -5.4610   -4.3170 c1        1 HT1     -0.214000
      8 C7         -1.6190   -5.3050   -0.7710 c1        1 HT1      0.065000
      9 N1         -1.9820   -4.1310   -0.1890 n2        1 HT1     -0.236500
     10 C8         -0.8510   -3.4510    0.1220 c1        1 HT1     -0.019500
     11 C9          0.2160   -4.2070   -0.2680 c1        1 HT1     -0.062000
     12 N2         -0.2620   -5.3500   -0.8190 n1        1 HT1     -0.135000
     13 C10         1.5240   -3.7000   -0.1360 c1        1 HT1     -0.077750
     14 C11         1.7280   -2.4330    0.3900 c1        1 HT1     -0.077750
     15 C12         0.6440   -1.6650    0.7870 c1        1 HT1     -0.062000
     16 C13        -0.6440   -2.1630    0.6570 c1        1 HT1     -0.125500
     17 C14         0.8840   -0.3600    1.2070 c1        1 HT1      0.065000
     18 N3          1.8380    0.5660    0.9190 n2        1 HT1     -0.236500
     19 C15         1.6410    1.6380    1.7290 c1        1 HT1     -0.019500
     20 C16         0.5610    1.3730    2.5210 c1        1 HT1     -0.062000
     21 N4          0.0970    0.1400    2.1970 n1        1 HT1     -0.135000
     22 C17         0.1470    2.3150    3.4840 c1        1 HT1     -0.077750
     23 C18         0.8360    3.5090    3.6270 c1        1 HT1     -0.195000
     24 C19         1.9330    3.7780    2.8230 c1        1 HT1      0.062000
     25 C20         2.3410    2.8520    1.8750 c1        1 HT1     -0.125500
     26 N5          2.9920    4.2200    3.6670 n3        1 HT1     -0.231000
     27 C21         4.1190    4.5660    2.8730 c3        1 HT1     -0.056000
     28 C22         3.8920    5.8290    2.0690 c3        1 HT1     -0.101500
     29 N6          3.4380    6.9080    2.8740 n3        1 HT1     -0.255000
     30 C23         2.3110    6.5620    3.6690 c3        1 HT1     -0.101500
     31 C24         2.5380    5.2990    4.4720 c3        1 HT1     -0.056000
     32 C25         3.1090    8.0160    2.0410 c3        1 HT1     -0.119000
     33 C26        -4.7850   -4.4380   -6.0730 c3        1 HT1     -0.023000
     34 C27        -5.4620   -4.6480   -7.4120 c3        1 HT1     -0.219000
     35 H2         -5.4890   -5.8190   -2.9100 ha        1 HT1      0.154000
     36 H3         -4.1780   -5.6840   -0.9490 ha        1 HT1      0.134000
     37 H5         -0.8080   -5.2680   -3.2330 ha        1 HT1      0.146500
     38 H6         -2.1200   -5.4030   -5.1930 ha        1 HT1      0.143000
     39 HN1        -2.8360   -3.8540   -0.0260 DU        1 HT1      0.258500
     40 H10         2.2870   -4.2410   -0.4150 ha        1 HT1      0.146500
     41 H11         2.6340   -2.0820    0.4810 ha        1 HT1      0.146500
     42 H13        -1.4070   -1.6220    0.9360 ha        1 HT1      0.150500
     43 HN3         2.4850    0.4890    0.2810 DU        1 HT1      0.258500
     44 H17        -0.6260    2.1260    4.0500 ha        1 HT1      0.146500
     45 H18         0.5490    4.1610    4.2940 ha        1 HT1      0.133000
     46 H20         3.1120    3.0410    1.3090 ha        1 HT1      0.150500
     47 H211        4.3110    3.8300    2.2570 h1        1 HT1      0.101250
     48 H212        4.8920    4.6990    3.4600 h1        1 HT1      0.101250
     49 H221        4.7340    6.0870    1.6400 h1        1 HT1      0.076250
     50 H222        3.2240    5.6470    1.3760 h1        1 HT1      0.076250
     51 H231        1.5380    6.4290    3.0820 h1        1 HT1      0.076250
     52 H232        2.1190    7.2990    4.2850 h1        1 HT1      0.076250
     53 H241        1.6970    5.0420    4.9010 h1        1 HT1      0.101250
     54 H242        3.2060    5.4810    5.1650 h1        1 HT1      0.101250
     55 H251        3.1270    8.8420    2.5730 h1        1 HT1      0.072333
     56 H252        2.2110    7.8890    1.6650 h1        1 HT1      0.072333
     57 H253        3.7630    8.0830    1.3120 h1        1 HT1      0.072333
     58 H261       -3.8840   -4.0830   -6.2150 h1        1 HT1      0.080000
     59 H262       -5.3060   -3.8030   -5.5400 h1        1 HT1      0.080000
     60 H271       -5.1850   -3.9410   -8.0320 hc        1 HT1      0.090333
     61 H272       -6.4350   -4.6180   -7.2950 hc        1 HT1      0.090333
     62 H273       -5.2030   -5.5210   -7.7750 hc        1 HT1      0.090333
@<TRIPOS>BOND
     1    1    3 1   
     2    1    7 1   
     3    2   33 1   
     4    3    4 1   
     5    3   35 1   
     6    4   36 1   
     7    5    6 1   
     8    6   37 1   
     9    7   38 1   
    10    8    9 1   
    11    8   12 1   
    12    9   10 1   
    13   10   16 1   
    14   11   13 1   
    15   13   40 1   
    16   14   15 1   
    17   14   41 1   
    18   16   42 1   
    19   17   18 1   
    20   17   21 1   
    21   18   19 1   
    22   19   25 1   
    23   20   22 1   
    24   22   44 1   
    25   23   24 1   
    26   23   45 1   
    27   24   26 1   
    28   25   46 1   
    29   26   27 1   
    30   26   31 1   
    31   27   28 1   
    32   27   47 1   
    33   27   48 1   
    34   28   29 1   
    35   28   49 1   
    36   28   50 1   
    37   29   30 1   
    38   29   32 1   
    39   30   31 1   
    40   30   51 1   
    41   30   52 1   
    42   31   53 1   
    43   31   54 1   
    44   32   55 1   
    45   32   56 1   
    46   32   57 1   
    47   33   34 1   
    48   33   58 1   
    49   33   59 1   
    50   34   60 1   
    51   34   61 1   
    52   34   62 1   
@<TRIPOS>SUBSTRUCTURE
     1 HT1         1 TEMP              0 ****  ****    0 ROOT
