@<TRIPOS>MOLECULE
HT1
   62    67     1     0     0
SMALL
bcc


@<TRIPOS>ATOM
      1 C1         -0.2470   -0.1820    0.1160 ca        1 HT1      0.148100
      2 O1         -0.8870   -0.2280   -1.1020 os        1 HT1     -0.326900
      3 C2          1.1490   -0.3700    0.0560 ca        1 HT1     -0.189000
      4 C3          1.8930   -0.3380    1.2260 ca        1 HT1     -0.064000
      5 C4          1.2640   -0.1170    2.4620 ca        1 HT1     -0.159900
      6 C5         -0.1230    0.0590    2.5130 ca        1 HT1     -0.064000
      7 C6         -0.8830    0.0300    1.3460 ca        1 HT1     -0.189000
      8 C7          2.0700   -0.0880    3.6830 cc        1 HT1      0.486400
      9 N1          1.7210    0.7270    4.7890 na        1 HT1     -0.277300
     10 C8          2.7030    0.5250    5.7600 ca        1 HT1     -0.081200
     11 C9          3.6270   -0.4450    5.1940 ca        1 HT1      0.081400
     12 N2          3.2000   -0.8030    3.9040 nd        1 HT1     -0.565100
     13 C10         4.7330   -0.8560    5.9520 ca        1 HT1     -0.075000
     14 C11         4.9030   -0.3240    7.2190 ca        1 HT1     -0.142000
     15 C12         3.9930    0.6120    7.7640 ca        1 HT1     -0.101900
     16 C13         2.8840    1.0520    7.0430 ca        1 HT1     -0.086000
     17 C14         4.2120    1.1440    9.1120 cc        1 HT1      0.463400
     18 N3          4.8070    0.3610   10.1360 na        1 HT1     -0.282300
     19 C15         4.8420    1.1600   11.2800 ca        1 HT1     -0.046200
     20 C16         4.2690    2.4350   10.8890 ca        1 HT1      0.043400
     21 N4          3.8890    2.3880    9.5350 nd        1 HT1     -0.556100
     22 C17         4.1870    3.4550   11.8440 ca        1 HT1     -0.048000
     23 C18         4.6530    3.2140   13.1240 ca        1 HT1     -0.196000
     24 C19         5.2070    1.9600   13.5160 ca        1 HT1      0.155600
     25 C20         5.3030    0.9180   12.5750 ca        1 HT1     -0.172000
     26 N5          5.5980    1.7010   14.8560 nh        1 HT1     -0.639000
     27 C21         5.2130    2.6890   15.8490 c3        1 HT1      0.185800
     28 C22         5.4950    2.2080   17.2880 c3        1 HT1      0.165300
     29 N6          6.8620    1.7440   17.4730 n3        1 HT1     -0.732600
     30 C23         7.2560    0.7710   16.4650 c3        1 HT1      0.165300
     31 C24         6.9700    1.2450   15.0260 c3        1 HT1      0.185800
     32 C25         7.1100    1.2780   18.8190 c3        1 HT1      0.157100
     33 C26        -2.3130   -0.0640   -1.0740 c3        1 HT1      0.127400
     34 C27        -2.7690   -0.1660   -2.5110 c3        1 HT1     -0.101100
     35 H2          1.6290   -0.5410   -0.9190 ha        1 HT1      0.148500
     36 H3          2.9840   -0.4900    1.1840 ha        1 HT1      0.146000
     37 H5         -0.6350    0.2060    3.4760 ha        1 HT1      0.146000
     38 H6         -1.9710    0.1680    1.4060 ha        1 HT1      0.148500
     39 HN1         0.9830    1.3770    4.8250 hn        1 HT1      0.308700
     40 H10         5.4490   -1.5820    5.5400 ha        1 HT1      0.151000
     41 H11         5.7840   -0.6260    7.8050 ha        1 HT1      0.132000
     42 H13         2.1850    1.7890    7.4630 ha        1 HT1      0.159000
     43 HN3         5.0540   -0.5890   10.0720 hn        1 HT1      0.306700
     44 H17         3.7640    4.4340   11.5740 ha        1 HT1      0.146000
     45 H18         4.5890    4.0350   13.8550 ha        1 HT1      0.134000
     46 H20         5.7130   -0.0650   12.8430 ha        1 HT1      0.140000
     47 H211        5.7480    3.6710   15.6900 h1        1 HT1      0.044450
     48 H212        4.1060    2.8690   15.7590 h1        1 HT1      0.044450
     49 H221        5.3320    3.0830   17.9770 h1        1 HT1      0.038200
     50 H222        4.7430    1.4100   17.5560 h1        1 HT1      0.038200
     51 H231        6.7480   -0.2250   16.6260 h1        1 HT1      0.038200
     52 H232        8.3670    0.6120   16.5570 h1        1 HT1      0.038200
     53 H241        7.7050    2.0600   14.7610 h1        1 HT1      0.044450
     54 H242        7.1530    0.3750   14.3380 h1        1 HT1      0.044450
     55 H251        8.1970    1.0200   18.9160 h1        1 HT1      0.033033
     56 H252        6.8690    2.1050   19.5370 h1        1 HT1      0.033033
     57 H253        6.5020    0.3740   19.0980 h1        1 HT1      0.033033
     58 H261       -2.7670   -0.8730   -0.4440 h1        1 HT1      0.039700
     59 H262       -2.5620    0.9390   -0.6380 h1        1 HT1      0.039700
     60 H271       -2.2900    0.6290   -3.1310 hc        1 HT1      0.051033
     61 H272       -2.4930   -1.1590   -2.9390 hc        1 HT1      0.051033
     62 H273       -3.8780   -0.0450   -2.5500 hc        1 HT1      0.051033
@<TRIPOS>BOND
     1    1    2 1   
     2    1    3 ar  
     3    1    7 ar  
     4    2   33 1   
     5    3    4 ar  
     6    3   35 1   
     7    4    5 ar  
     8    4   36 1   
     9    5    6 ar  
    10    5    8 1   
    11    6    7 ar  
    12    6   37 1   
    13    7   38 1   
    14    8    9 1   
    15    8   12 2   
    16    9   10 1   
    17    9   39 1   
    18   10   11 ar  
    19   10   16 ar  
    20   11   12 1   
    21   11   13 ar  
    22   13   14 ar  
    23   13   40 1   
    24   14   15 ar  
    25   14   41 1   
    26   15   16 ar  
    27   15   17 1   
    28   16   42 1   
    29   17   18 1   
    30   17   21 2   
    31   18   19 1   
    32   18   43 1   
    33   19   20 ar  
    34   19   25 ar  
    35   20   21 1   
    36   20   22 ar  
    37   22   23 ar  
    38   22   44 1   
    39   23   24 ar  
    40   23   45 1   
    41   24   25 ar  
    42   24   26 1   
    43   25   46 1   
    44   26   27 1   
    45   26   31 1   
    46   27   28 1   
    47   27   47 1   
    48   27   48 1   
    49   28   29 1   
    50   28   49 1   
    51   28   50 1   
    52   29   30 1   
    53   29   32 1   
    54   30   31 1   
    55   30   51 1   
    56   30   52 1   
    57   31   53 1   
    58   31   54 1   
    59   32   55 1   
    60   32   56 1   
    61   32   57 1   
    62   33   34 1   
    63   33   58 1   
    64   33   59 1   
    65   34   60 1   
    66   34   61 1   
    67   34   62 1   
@<TRIPOS>SUBSTRUCTURE
     1 HT1         1 TEMP              0 ****  ****    0 ROOT
