@<TRIPOS>MOLECULE
HT1
   62    67     1     0     0
SMALL
bcc


@<TRIPOS>ATOM
      1 C1         -0.2460   -0.1830    0.1150 ca        1 HT1      0.148100
      2 O1         -0.8850   -0.2270   -1.1030 os        1 HT1     -0.326900
      3 C2          1.1490   -0.3770    0.0570 ca        1 HT1     -0.189000
      4 C3          1.8930   -0.3460    1.2280 ca        1 HT1     -0.064000
      5 C4          1.2630   -0.1210    2.4630 ca        1 HT1     -0.159900
      6 C5         -0.1230    0.0620    2.5120 ca        1 HT1     -0.064000
      7 C6         -0.8830    0.0340    1.3440 ca        1 HT1     -0.189000
      8 C7          2.0680   -0.0930    3.6850 cc        1 HT1      0.486400
      9 N1          1.7210    0.7250    4.7880 na        1 HT1     -0.277300
     10 C8          2.7020    0.5210    5.7610 ca        1 HT1     -0.081200
     11 C9          3.6220   -0.4540    5.1980 ca        1 HT1      0.081400
     12 N2          3.1950   -0.8120    3.9080 nd        1 HT1     -0.565100
     13 C10         4.7260   -0.8680    5.9570 ca        1 HT1     -0.075000
     14 C11         4.8960   -0.3340    7.2230 ca        1 HT1     -0.142000
     15 C12         3.9900    0.6060    7.7660 ca        1 HT1     -0.101900
     16 C13         2.8840    1.0500    7.0430 ca        1 HT1     -0.086000
     17 C14         4.2100    1.1390    9.1130 cc        1 HT1      0.463400
     18 N3          4.8030    0.3570   10.1380 na        1 HT1     -0.282300
     19 C15         4.8400    1.1580   11.2810 ca        1 HT1     -0.046200
     20 C16         4.2710    2.4340   10.8870 ca        1 HT1      0.043400
     21 N4          3.8900    2.3850    9.5340 nd        1 HT1     -0.557100
     22 C17         4.1910    3.4560   11.8410 ca        1 HT1     -0.048000
     23 C18         4.6570    3.2160   13.1210 ca        1 HT1     -0.196000
     24 C19         5.2080    1.9610   13.5150 ca        1 HT1      0.155600
     25 C20         5.3010    0.9170   12.5760 ca        1 HT1     -0.172000
     26 N5          5.5980    1.7030   14.8560 nh        1 HT1     -0.639000
     27 C21         5.2160    2.6940   15.8480 c3        1 HT1      0.185800
     28 C22         5.4970    2.2140   17.2870 c3        1 HT1      0.165300
     29 N6          6.8630    1.7480   17.4730 n3        1 HT1     -0.732600
     30 C23         7.2550    0.7720   16.4660 c3        1 HT1      0.165300
     31 C24         6.9700    1.2440   15.0270 c3        1 HT1      0.185800
     32 C25         7.1100    1.2830   18.8190 c3        1 HT1      0.157100
     33 C26        -2.3100   -0.0570   -1.0770 c3        1 HT1      0.127400
     34 C27        -2.7660   -0.1580   -2.5140 c3        1 HT1     -0.101100
     35 H2          1.6290   -0.5510   -0.9170 ha        1 HT1      0.148500
     36 H3          2.9830   -0.5030    1.1870 ha        1 HT1      0.146000
     37 H5         -0.6360    0.2130    3.4740 ha        1 HT1      0.146000
     38 H6         -1.9700    0.1770    1.4030 ha        1 HT1      0.148500
     39 HN1         0.9860    1.3780    4.8240 hn        1 HT1      0.308700
     40 H10         5.4390   -1.5970    5.5460 ha        1 HT1      0.151000
     41 H11         5.7760   -0.6390    7.8100 ha        1 HT1      0.132000
     42 H13         2.1870    1.7900    7.4620 ha        1 HT1      0.159000
     43 HN3         5.0480   -0.5940   10.0760 hn        1 HT1      0.306700
     44 H17         3.7710    4.4350   11.5690 ha        1 HT1      0.146000
     45 H18         4.5950    4.0380   13.8510 ha        1 HT1      0.134000
     46 H20         5.7090   -0.0670   12.8460 ha        1 HT1      0.140000
     47 H211        4.1090    2.8760   15.7570 h1        1 HT1      0.044450
     48 H212        5.7540    3.6740   15.6870 h1        1 HT1      0.044450
     49 H221        5.3370    3.0910   17.9740 h1        1 HT1      0.038200
     50 H222        4.7430    1.4180   17.5570 h1        1 HT1      0.038200
     51 H231        8.3650    0.6100   16.5580 h1        1 HT1      0.038200
     52 H232        6.7450   -0.2230   16.6290 h1        1 HT1      0.038200
     53 H241        7.1500    0.3720   14.3390 h1        1 HT1      0.044450
     54 H242        7.7060    2.0570   14.7600 h1        1 HT1      0.044450
     55 H251        8.1970    1.0230   18.9170 h1        1 HT1      0.033033
     56 H252        6.8710    2.1110   19.5360 h1        1 HT1      0.033033
     57 H253        6.5000    0.3800   19.0990 h1        1 HT1      0.033033
     58 H261       -2.7690   -0.8620   -0.4460 h1        1 HT1      0.039700
     59 H262       -2.5550    0.9480   -0.6420 h1        1 HT1      0.039700
     60 H271       -2.4940   -1.1530   -2.9410 hc        1 HT1      0.051033
     61 H272       -2.2820    0.6340   -3.1350 hc        1 HT1      0.051033
     62 H273       -3.8730   -0.0310   -2.5550 hc        1 HT1      0.051033
@<TRIPOS>BOND
     1    1    2 1   
     2    1    3 ar  
     3    1    7 ar  
     4    2   33 1   
     5    3    4 ar  
     6    3   35 1   
     7    4    5 ar  
     8    4   36 1   
     9    5    6 ar  
    10    5    8 1   
    11    6    7 ar  
    12    6   37 1   
    13    7   38 1   
    14    8    9 1   
    15    8   12 2   
    16    9   10 1   
    17    9   39 1   
    18   10   11 ar  
    19   10   16 ar  
    20   11   12 1   
    21   11   13 ar  
    22   13   14 ar  
    23   13   40 1   
    24   14   15 ar  
    25   14   41 1   
    26   15   16 ar  
    27   15   17 1   
    28   16   42 1   
    29   17   18 1   
    30   17   21 2   
    31   18   19 1   
    32   18   43 1   
    33   19   20 ar  
    34   19   25 ar  
    35   20   21 1   
    36   20   22 ar  
    37   22   23 ar  
    38   22   44 1   
    39   23   24 ar  
    40   23   45 1   
    41   24   25 ar  
    42   24   26 1   
    43   25   46 1   
    44   26   27 1   
    45   26   31 1   
    46   27   28 1   
    47   27   47 1   
    48   27   48 1   
    49   28   29 1   
    50   28   49 1   
    51   28   50 1   
    52   29   30 1   
    53   29   32 1   
    54   30   31 1   
    55   30   51 1   
    56   30   52 1   
    57   31   53 1   
    58   31   54 1   
    59   32   55 1   
    60   32   56 1   
    61   32   57 1   
    62   33   34 1   
    63   33   58 1   
    64   33   59 1   
    65   34   60 1   
    66   34   61 1   
    67   34   62 1   
@<TRIPOS>SUBSTRUCTURE
     1 HT1         1 TEMP              0 ****  ****    0 ROOT
