@<TRIPOS>MOLECULE
HT2
   48    52     1     0     0
SMALL
bcc


@<TRIPOS>ATOM
      1 N1          0.4700    0.4960   -9.5560 nh        1 HT2     -0.960800
      2 N2          0.1470   -1.8260   -8.9190 n2        1 HT2     -0.830100
      3 C1          0.3450   -0.5720   -8.6410 ce        1 HT2      0.653800
      4 C2          0.5380   -0.1800   -7.2060 ca        1 HT2     -0.127900
      5 C3         -0.3770   -0.6260   -6.2590 ca        1 HT2     -0.091000
      6 C4         -0.1650   -0.2340   -4.9320 ca        1 HT2     -0.081200
      7 C5          0.9640    0.6000   -4.5540 ca        1 HT2      0.077400
      8 C6          1.8670    1.0170   -5.5430 ca        1 HT2     -0.078000
      9 C7          1.6440    0.6220   -6.8520 ca        1 HT2     -0.134000
     10 N3         -0.8720   -0.4770   -3.7530 na        1 HT2     -0.274300
     11 C8         -0.1650    0.1790   -2.7160 cc        1 HT2      0.473400
     12 N4          0.9300    0.8360   -3.1690 nd        1 HT2     -0.564100
     13 C9         -0.6110    0.1230   -1.3190 ca        1 HT2     -0.103900
     14 C10         0.3510    0.1400   -0.3100 ca        1 HT2     -0.083000
     15 C11        -0.1070    0.0840    1.0100 ca        1 HT2     -0.079200
     16 C12        -1.5250    0.0130    1.3260 ca        1 HT2      0.079400
     17 C13        -2.4580    0.0050    0.2790 ca        1 HT2     -0.072000
     18 C14        -1.9920    0.0620   -1.0240 ca        1 HT2     -0.141000
     19 N5          0.5580    0.0690    2.2380 na        1 HT2     -0.272300
     20 C15        -0.4420    0.0060    3.2380 cc        1 HT2      0.470400
     21 N6         -1.6940   -0.0340    2.7200 nd        1 HT2     -0.557100
     22 C16        -0.1090   -0.0130    4.6650 ca        1 HT2     -0.105900
     23 C17        -0.9830    0.5830    5.5850 ca        1 HT2     -0.105000
     24 C18        -0.6760    0.5710    6.9440 ca        1 HT2     -0.109000
     25 C19         0.4990   -0.0380    7.3940 ca        1 HT2     -0.181900
     26 C20         1.3680   -0.6390    6.4780 ca        1 HT2     -0.109000
     27 C21         1.0670   -0.6260    5.1180 ca        1 HT2     -0.105000
     28 C22         0.8230   -0.0210    8.8570 ce        1 HT2      0.635800
     29 N7          1.2020   -1.2750    9.3810 nh        1 HT2     -0.891800
     30 N8          0.8240    1.0540    9.5890 n2        1 HT2     -0.828100
     31 HN11        0.3650    1.4050   -9.1710 hn        1 HT2      0.399800
     32 HN12        0.0500    0.3750  -10.4480 hn        1 HT2      0.399800
     33 HN2         0.0230   -2.0540   -9.8820 hn        1 HT2      0.382400
     34 H3         -1.2220   -1.2710   -6.5380 ha        1 HT2      0.152000
     35 H6          2.7330    1.6410   -5.2770 ha        1 HT2      0.150000
     36 H7          2.3570    0.9290   -7.6340 ha        1 HT2      0.145000
     37 HN3        -1.6460   -1.0750   -3.6430 hn        1 HT2      0.309700
     38 H10         1.4240    0.2000   -0.5430 ha        1 HT2      0.161000
     39 H13        -3.5350   -0.0410    0.4960 ha        1 HT2      0.153000
     40 H14        -2.7240    0.0810   -1.8460 ha        1 HT2      0.134000
     41 HN5         1.5260    0.1680    2.3830 hn        1 HT2      0.311700
     42 H17        -1.9140    1.0570    5.2350 ha        1 HT2      0.149500
     43 H18        -1.3660    1.0410    7.6620 ha        1 HT2      0.150500
     44 H20         2.2940   -1.1210    6.8300 ha        1 HT2      0.150500
     45 H21         1.7530   -1.1170    4.4120 ha        1 HT2      0.149500
     46 HN71        1.2750   -1.3170   10.3760 hn        1 HT2      0.399800
     47 HN72        0.6890   -2.0340    8.9900 hn        1 HT2      0.399800
     48 HN8         0.6390    1.8940    9.0850 hn        1 HT2      0.396400
@<TRIPOS>BOND
     1    1    3 1   
     2    1   31 1   
     3    1   32 1   
     4    2    3 2   
     5    2   33 1   
     6    3    4 1   
     7    4    5 ar  
     8    4    9 ar  
     9    5    6 ar  
    10    5   34 1   
    11    6    7 ar  
    12    6   10 1   
    13    7    8 ar  
    14    7   12 1   
    15    8    9 ar  
    16    8   35 1   
    17    9   36 1   
    18   10   11 1   
    19   10   37 1   
    20   11   12 2   
    21   11   13 1   
    22   13   14 ar  
    23   13   18 ar  
    24   14   15 ar  
    25   14   38 1   
    26   15   16 ar  
    27   15   19 1   
    28   16   17 ar  
    29   16   21 1   
    30   17   18 ar  
    31   17   39 1   
    32   18   40 1   
    33   19   20 1   
    34   19   41 1   
    35   20   21 2   
    36   20   22 1   
    37   22   23 ar  
    38   22   27 ar  
    39   23   24 ar  
    40   23   42 1   
    41   24   25 ar  
    42   24   43 1   
    43   25   26 ar  
    44   25   28 1   
    45   26   27 ar  
    46   26   44 1   
    47   27   45 1   
    48   28   29 1   
    49   28   30 2   
    50   29   46 1   
    51   29   47 1   
    52   30   48 1   
@<TRIPOS>SUBSTRUCTURE
     1 HT2         1 TEMP              0 ****  ****    0 ROOT
