@<TRIPOS>MOLECULE
HT2
   50    54     1     0     0
SMALL
bcc


@<TRIPOS>ATOM
      1 N1          0.4380   -1.1310   -0.1490 n4        1 HT2     -0.892600
      2 N2          1.4680    0.9880   -0.9520 n2        1 HT2     -0.677100
      3 C1          1.3480    0.1040   -0.0550 ce        1 HT2      0.636800
      4 C2          2.0720    0.0990    1.2370 ca        1 HT2     -0.213900
      5 C3          3.4670    0.1260    1.2170 ca        1 HT2     -0.050000
      6 C4          4.1150    0.1540    2.4540 ca        1 HT2     -0.087200
      7 C5          3.3680    0.1600    3.7070 ca        1 HT2      0.120400
      8 C6          1.9640    0.1490    3.6730 ca        1 HT2     -0.053000
      9 C7          1.3330    0.1220    2.4410 ca        1 HT2     -0.142000
     10 N3          5.4620    0.1790    2.8150 na        1 HT2     -0.262300
     11 C8          5.5030    0.2060    4.2290 cc        1 HT2      0.515400
     12 N4          4.2620    0.1910    4.7840 nd        1 HT2     -0.556100
     13 C9          6.7660    0.2470    4.9750 ca        1 HT2     -0.114900
     14 C10         6.7920    0.9010    6.2050 ca        1 HT2     -0.069000
     15 C11         8.0100    0.9120    6.8960 ca        1 HT2     -0.073200
     16 C12         9.1980    0.2700    6.3580 ca        1 HT2      0.085400
     17 C13         9.1250   -0.3800    5.1140 ca        1 HT2     -0.055000
     18 C14         7.9160   -0.3850    4.4440 ca        1 HT2     -0.134000
     19 N5          8.3940    1.4700    8.1180 na        1 HT2     -0.259300
     20 C15         9.7570    1.1370    8.2970 cc        1 HT2      0.437400
     21 N6         10.2630    0.4290    7.2560 nd        1 HT2     -0.531100
     22 C16        10.5240    1.5360    9.4810 ca        1 HT2     -0.047900
     23 C17        11.5730    0.7130    9.9230 ca        1 HT2     -0.094000
     24 C18        12.3290    1.0840   11.0320 ca        1 HT2     -0.093500
     25 C19        12.0390    2.2760   11.7060 ca        1 HT2     -0.256900
     26 C20        10.9930    3.0980   11.2720 ca        1 HT2     -0.093500
     27 C21        10.2390    2.7280   10.1600 ca        1 HT2     -0.094000
     28 C22        12.8090    2.6540   12.9090 ce        1 HT2      0.587800
     29 N7         14.2340    3.0130   12.5710 n4        1 HT2     -0.824600
     30 N8         12.4810    2.7280   14.1400 n2        1 HT2     -0.701100
     31 HN11        1.0270   -1.9650   -0.2200 hn        1 HT2      0.458133
     32 HN12       -0.1970   -1.0990   -0.9490 hn        1 HT2      0.458133
     33 HN2         0.9890    0.9760   -1.8250 hn        1 HT2      0.465400
     34 H3          4.0300    0.1410    0.2720 ha        1 HT2      0.160000
     35 H6          1.3850    0.1720    4.6100 ha        1 HT2      0.177000
     36 H7          0.2330    0.1630    2.4110 ha        1 HT2      0.133000
     37 HN3         6.2370    0.2370    2.2050 hn        1 HT2      0.324700
     38 H10         5.8940    1.3830    6.6220 ha        1 HT2      0.169000
     39 H13        10.0140   -0.8760    4.6940 ha        1 HT2      0.168000
     40 H14         7.8510   -0.9170    3.4820 ha        1 HT2      0.140000
     41 HN5         7.8000    1.8970    8.7790 hn        1 HT2      0.316700
     42 H17        11.8020   -0.2280    9.3920 ha        1 HT2      0.175000
     43 H18        13.1340    0.4180   11.3830 ha        1 HT2      0.152000
     44 H20        10.7590    4.0360   11.8010 ha        1 HT2      0.152000
     45 H21         9.4300    3.3940    9.8170 ha        1 HT2      0.175000
     46 HN71       14.8020    3.1790   13.4120 hn        1 HT2      0.472467
     47 HN72       14.2250    3.8610   11.9940 hn        1 HT2      0.472467
     48 HN8        11.5480    2.4900   14.4080 hn        1 HT2      0.493400
     49 H131       -0.1130   -1.1980    0.7140 hn        1 HT2      0.458133
     50 H73        14.6380    2.2410   12.0290 hn        1 HT2      0.472467
@<TRIPOS>BOND
     1    1    3 1   
     2    1   31 1   
     3    1   32 1   
     4    1   49 1   
     5    2    3 2   
     6    2   33 1   
     7    3    4 1   
     8    4    5 ar  
     9    4    9 ar  
    10    5    6 ar  
    11    5   34 1   
    12    6    7 ar  
    13    6   10 1   
    14    7    8 ar  
    15    7   12 1   
    16    8    9 ar  
    17    8   35 1   
    18    9   36 1   
    19   10   11 1   
    20   10   37 1   
    21   11   12 2   
    22   11   13 1   
    23   13   14 ar  
    24   13   18 ar  
    25   14   15 ar  
    26   14   38 1   
    27   15   16 ar  
    28   15   19 1   
    29   16   17 ar  
    30   16   21 1   
    31   17   18 ar  
    32   17   39 1   
    33   18   40 1   
    34   19   20 1   
    35   19   41 1   
    36   20   21 2   
    37   20   22 1   
    38   22   23 ar  
    39   22   27 ar  
    40   23   24 ar  
    41   23   42 1   
    42   24   25 ar  
    43   24   43 1   
    44   25   26 ar  
    45   25   28 1   
    46   26   27 ar  
    47   26   44 1   
    48   27   45 1   
    49   28   29 1   
    50   28   30 2   
    51   29   46 1   
    52   29   47 1   
    53   29   50 1   
    54   30   48 1   
@<TRIPOS>SUBSTRUCTURE
     1 HT2         1 TEMP              0 ****  ****    0 ROOT
