@<TRIPOS>MOLECULE
HT2
   50    54     1     0     0
SMALL
bcc


@<TRIPOS>ATOM
      1 N1          0.4310   -1.1190   -0.1450 nz        1 HT2     -0.892600
      2 N2          1.4740    0.9890   -0.9570 n2        1 HT2     -0.677100
      3 C1          1.3490    0.1110   -0.0560 ce        1 HT2      0.636800
      4 C2          2.0710    0.1070    1.2360 ca        1 HT2     -0.213900
      5 C3          3.4660    0.1260    1.2170 ca        1 HT2     -0.050000
      6 C4          4.1140    0.1560    2.4540 ca        1 HT2     -0.087200
      7 C5          3.3660    0.1720    3.7070 ca        1 HT2      0.120400
      8 C6          1.9620    0.1680    3.6720 ca        1 HT2     -0.053000
      9 C7          1.3320    0.1390    2.4390 ca        1 HT2     -0.142000
     10 N3          5.4610    0.1750    2.8170 na        1 HT2     -0.262300
     11 C8          5.5010    0.2080    4.2300 cc        1 HT2      0.515400
     12 N4          4.2590    0.2020    4.7840 nd        1 HT2     -0.556100
     13 C9          6.7630    0.2450    4.9770 ca        1 HT2     -0.114900
     14 C10         6.7920    0.9030    6.2050 ca        1 HT2     -0.069000
     15 C11         8.0100    0.9110    6.8970 ca        1 HT2     -0.073200
     16 C12         9.1950    0.2610    6.3610 ca        1 HT2      0.085400
     17 C13         9.1200   -0.3940    5.1200 ca        1 HT2     -0.055000
     18 C14         7.9100   -0.3950    4.4490 ca        1 HT2     -0.134000
     19 N5          8.3960    1.4710    8.1160 na        1 HT2     -0.259300
     20 C15         9.7570    1.1310    8.2980 cc        1 HT2      0.437400
     21 N6         10.2610    0.4180    7.2590 nd        1 HT2     -0.531100
     22 C16        10.5250    1.5310    9.4800 ca        1 HT2     -0.046900
     23 C17        11.5700    0.7050    9.9260 ca        1 HT2     -0.094000
     24 C18        12.3270    1.0750   11.0340 ca        1 HT2     -0.093500
     25 C19        12.0430    2.2720   11.7040 ca        1 HT2     -0.256900
     26 C20        11.0010    3.0970   11.2670 ca        1 HT2     -0.093500
     27 C21        10.2450    2.7270   10.1550 ca        1 HT2     -0.094000
     28 C22        12.8130    2.6500   12.9070 ce        1 HT2      0.587800
     29 N7         14.2400    3.0020   12.5670 nz        1 HT2     -0.824600
     30 N8         12.4860    2.7290   14.1370 n2        1 HT2     -0.701100
     31 HN11        1.0160   -1.9570   -0.2110 hn        1 HT2      0.458133
     32 HN12       -0.2030   -1.0870   -0.9460 hn        1 HT2      0.458133
     33 HN2         0.9950    0.9760   -1.8310 hn        1 HT2      0.465400
     34 H3          4.0300    0.1340    0.2730 ha        1 HT2      0.160000
     35 H6          1.3830    0.1990    4.6090 ha        1 HT2      0.177000
     36 H7          0.2320    0.1870    2.4090 ha        1 HT2      0.133000
     37 HN3         6.2360    0.2250    2.2070 hn        1 HT2      0.324700
     38 H10         5.8970    1.3910    6.6190 ha        1 HT2      0.169000
     39 H13        10.0060   -0.8960    4.7030 ha        1 HT2      0.168000
     40 H14         7.8440   -0.9300    3.4890 ha        1 HT2      0.140000
     41 HN5         7.8040    1.9030    8.7750 hn        1 HT2      0.316700
     42 H17        11.7950   -0.2390    9.3990 ha        1 HT2      0.175000
     43 H18        13.1290    0.4080   11.3880 ha        1 HT2      0.152000
     44 H20        10.7710    4.0380   11.7920 ha        1 HT2      0.152000
     45 H21         9.4400    3.3950    9.8100 ha        1 HT2      0.175000
     46 HN71       14.8090    3.1690   13.4080 hn        1 HT2      0.472467
     47 HN72       14.2350    3.8490   11.9880 hn        1 HT2      0.472467
     48 HN8        11.5520    2.4960   14.4050 hn        1 HT2      0.493400
     49 H131       -0.1210   -1.1790    0.7180 hn        1 HT2      0.458133
     50 H73        14.6410    2.2270   12.0280 hn        1 HT2      0.472467
@<TRIPOS>BOND
     1    1    3 1   
     2    1   31 1   
     3    1   32 1   
     4    1   49 1   
     5    2    3 2   
     6    2   33 1   
     7    3    4 1   
     8    4    5 ar  
     9    4    9 ar  
    10    5    6 ar  
    11    5   34 1   
    12    6    7 ar  
    13    6   10 1   
    14    7    8 ar  
    15    7   12 1   
    16    8    9 ar  
    17    8   35 1   
    18    9   36 1   
    19   10   11 1   
    20   10   37 1   
    21   11   12 2   
    22   11   13 1   
    23   13   14 ar  
    24   13   18 ar  
    25   14   15 ar  
    26   14   38 1   
    27   15   16 ar  
    28   15   19 1   
    29   16   17 ar  
    30   16   21 1   
    31   17   18 ar  
    32   17   39 1   
    33   18   40 1   
    34   19   20 1   
    35   19   41 1   
    36   20   21 2   
    37   20   22 1   
    38   22   23 ar  
    39   22   27 ar  
    40   23   24 ar  
    41   23   42 1   
    42   24   25 ar  
    43   24   43 1   
    44   25   26 ar  
    45   25   28 1   
    46   26   27 ar  
    47   26   44 1   
    48   27   45 1   
    49   28   29 1   
    50   28   30 2   
    51   29   46 1   
    52   29   47 1   
    53   29   50 1   
    54   30   48 1   
@<TRIPOS>SUBSTRUCTURE
     1 HT2         1 TEMP              0 ****  ****    0 ROOT
