@<TRIPOS>MOLECULE
HT2
   50    54     1     0     0
SMALL
bcc


@<TRIPOS>ATOM
      1 N1          0.4330   -1.1300   -0.1450 n4        1 HT2     -0.892600
      2 N2          1.4640    0.9880   -0.9490 n2        1 HT2     -0.677100
      3 C1          1.3450    0.1040   -0.0520 ce        1 HT2      0.636800
      4 C2          2.0690    0.0980    1.2400 ca        1 HT2     -0.213900
      5 C3          3.4640    0.1250    1.2190 ca        1 HT2     -0.050000
      6 C4          4.1130    0.1530    2.4550 ca        1 HT2     -0.087200
      7 C5          3.3660    0.1600    3.7090 ca        1 HT2      0.120400
      8 C6          1.9620    0.1490    3.6760 ca        1 HT2     -0.053000
      9 C7          1.3310    0.1220    2.4440 ca        1 HT2     -0.142000
     10 N3          5.4610    0.1780    2.8160 na        1 HT2     -0.262300
     11 C8          5.5020    0.2060    4.2300 cc        1 HT2      0.515400
     12 N4          4.2610    0.1900    4.7850 nd        1 HT2     -0.556100
     13 C9          6.7650    0.2470    4.9750 ca        1 HT2     -0.114900
     14 C10         6.7910    0.8990    6.2060 ca        1 HT2     -0.069000
     15 C11         8.0100    0.9120    6.8960 ca        1 HT2     -0.073200
     16 C12         9.1980    0.2700    6.3570 ca        1 HT2      0.085400
     17 C13         9.1250   -0.3800    5.1130 ca        1 HT2     -0.055000
     18 C14         7.9150   -0.3850    4.4430 ca        1 HT2     -0.134000
     19 N5          8.3950    1.4690    8.1170 na        1 HT2     -0.259300
     20 C15         9.7580    1.1360    8.2960 cc        1 HT2      0.437400
     21 N6         10.2640    0.4300    7.2540 nd        1 HT2     -0.531100
     22 C16        10.5250    1.5360    9.4790 ca        1 HT2     -0.046900
     23 C17        11.5760    0.7140    9.9200 ca        1 HT2     -0.094000
     24 C18        12.3330    1.0840   11.0280 ca        1 HT2     -0.093500
     25 C19        12.0420    2.2760   11.7040 ca        1 HT2     -0.256900
     26 C20        10.9950    3.0970   11.2710 ca        1 HT2     -0.093500
     27 C21        10.2400    2.7270   10.1590 ca        1 HT2     -0.094000
     28 C22        12.8130    2.6550   12.9060 ce        1 HT2      0.587800
     29 N7         14.2370    3.0170   12.5660 n4        1 HT2     -0.824600
     30 N8         12.4870    2.7260   14.1370 n2        1 HT2     -0.701100
     31 HN11       -0.2010   -1.0980   -0.9450 hn        1 HT2      0.458133
     32 HN12       -0.1170   -1.1970    0.7180 hn        1 HT2      0.458133
     33 HN2         0.9850    0.9760   -1.8220 hn        1 HT2      0.465400
     34 H3          4.0270    0.1400    0.2740 ha        1 HT2      0.160000
     35 H6          1.3840    0.1720    4.6140 ha        1 HT2      0.177000
     36 H7          0.2310    0.1640    2.4150 ha        1 HT2      0.133000
     37 HN3         6.2340    0.2350    2.2060 hn        1 HT2      0.324700
     38 H10         5.8940    1.3810    6.6230 ha        1 HT2      0.169000
     39 H13        10.0140   -0.8760    4.6920 ha        1 HT2      0.168000
     40 H14         7.8500   -0.9170    3.4820 ha        1 HT2      0.140000
     41 HN5         7.8010    1.8950    8.7790 hn        1 HT2      0.316700
     42 H17        11.8060   -0.2270    9.3880 ha        1 HT2      0.175000
     43 H18        13.1390    0.4200   11.3780 ha        1 HT2      0.152000
     44 H20        10.7600    4.0350   11.8010 ha        1 HT2      0.152000
     45 H21         9.4300    3.3920    9.8180 ha        1 HT2      0.175000
     46 HN71       14.2260    3.8650   11.9900 hn        1 HT2      0.472467
     47 HN72       14.6420    2.2460   12.0230 hn        1 HT2      0.472467
     48 HN8        11.5540    2.4860   14.4060 hn        1 HT2      0.493400
     49 H131        1.0230   -1.9650   -0.2160 hn        1 HT2      0.458133
     50 H73        14.8060    3.1830   13.4060 hn        1 HT2      0.472467
@<TRIPOS>BOND
     1    1    3 1   
     2    1   31 1   
     3    1   32 1   
     4    1   49 1   
     5    2    3 2   
     6    2   33 1   
     7    3    4 1   
     8    4    5 ar  
     9    4    9 ar  
    10    5    6 ar  
    11    5   34 1   
    12    6    7 ar  
    13    6   10 1   
    14    7    8 ar  
    15    7   12 1   
    16    8    9 ar  
    17    8   35 1   
    18    9   36 1   
    19   10   11 1   
    20   10   37 1   
    21   11   12 2   
    22   11   13 1   
    23   13   14 ar  
    24   13   18 ar  
    25   14   15 ar  
    26   14   38 1   
    27   15   16 ar  
    28   15   19 1   
    29   16   17 ar  
    30   16   21 1   
    31   17   18 ar  
    32   17   39 1   
    33   18   40 1   
    34   19   20 1   
    35   19   41 1   
    36   20   21 2   
    37   20   22 1   
    38   22   23 ar  
    39   22   27 ar  
    40   23   24 ar  
    41   23   42 1   
    42   24   25 ar  
    43   24   43 1   
    44   25   26 ar  
    45   25   28 1   
    46   26   27 ar  
    47   26   44 1   
    48   27   45 1   
    49   28   29 1   
    50   28   30 2   
    51   29   46 1   
    52   29   47 1   
    53   29   50 1   
    54   30   48 1   
@<TRIPOS>SUBSTRUCTURE
     1 HT2         1 TEMP              0 ****  ****    0 ROOT
