@<TRIPOS>MOLECULE
HT3
   26    25     1     0     0
SMALL
bcc


@<TRIPOS>ATOM
      1 C1          0.0120    0.0920    0.0140 c3        1 HT3      0.095400
      2 O1         -0.3240    1.2470    0.7690 oh        1 HT3     -0.618800
      3 C2          1.5410    0.0180    0.0050 c3        1 HT3      0.147100
      4 O2          2.0510   -0.1030    1.3250 oh        1 HT3     -0.607800
      5 C3          2.0130   -1.2320   -0.7630 c3        1 HT3      0.143100
      6 O3          1.3740   -1.1700   -2.0340 oh        1 HT3     -0.610800
      7 C4          3.5320   -1.2420   -0.8840 c3        1 HT3     -0.118400
      8 C5          4.0570   -2.6000   -1.2950 c3        1 HT3     -0.080400
      9 C6          5.5670   -2.5910   -1.4070 c3        1 HT3     -0.079400
     10 C7          6.0990   -3.9400   -1.8150 c3        1 HT3     -0.093100
     11 H1         -0.4190   -0.8210    0.5020 h1        1 HT3      0.045200
     12 H1A        -0.3700    0.1780   -1.0370 h1        1 HT3      0.045200
     13 HO1        -1.2840    1.3200    0.7510 ho        1 HT3      0.408000
     14 H2          1.9600    0.9450   -0.4750 h1        1 HT3      0.056700
     15 HO2         1.6370    0.6010    1.8410 ho        1 HT3      0.424000
     16 H3          1.6610   -2.1550   -0.2220 h1        1 HT3      0.049700
     17 HO3         1.8240   -1.8040   -2.6040 ho        1 HT3      0.408000
     18 H4          3.8470   -0.4670   -1.6310 hc        1 HT3      0.064200
     19 H4A         3.9650   -0.9550    0.1110 hc        1 HT3      0.064200
     20 H5          3.7420   -3.3690   -0.5410 hc        1 HT3      0.037200
     21 H5A         3.6140   -2.9020   -2.2810 hc        1 HT3      0.037200
     22 H6          6.0110   -2.2920   -0.4200 hc        1 HT3      0.041700
     23 H6A         5.8820   -1.8180   -2.1570 hc        1 HT3      0.041700
     24 H7          5.6880   -4.2440   -2.8080 hc        1 HT3      0.033367
     25 H7A         5.8150   -4.7190   -1.0660 hc        1 HT3      0.033367
     26 H7B         7.2130   -3.9120   -1.8880 hc        1 HT3      0.033367
@<TRIPOS>BOND
     1    1    2 1   
     2    1    3 1   
     3    1   11 1   
     4    1   12 1   
     5    2   13 1   
     6    3    4 1   
     7    3    5 1   
     8    3   14 1   
     9    4   15 1   
    10    5    6 1   
    11    5    7 1   
    12    5   16 1   
    13    6   17 1   
    14    7    8 1   
    15    7   18 1   
    16    7   19 1   
    17    8    9 1   
    18    8   20 1   
    19    8   21 1   
    20    9   10 1   
    21    9   22 1   
    22    9   23 1   
    23   10   24 1   
    24   10   25 1   
    25   10   26 1   
@<TRIPOS>SUBSTRUCTURE
     1 HT3         1 TEMP              0 ****  ****    0 ROOT
