@<TRIPOS>MOLECULE
HT3
   26    25     1     0     0
SMALL
bcc


@<TRIPOS>ATOM
      1 C1         -2.9170   -0.1650    0.4680 c3        1 HT3      0.108400
      2 O1         -3.2780   -1.1930   -0.4250 oh        1 HT3     -0.598800
      3 C2         -1.6550    0.5710    0.0030 c3        1 HT3      0.065100
      4 O2         -1.5520    1.8250    0.6500 oh        1 HT3     -0.582800
      5 C3         -0.3880   -0.2730    0.2410 c3        1 HT3      0.105100
      6 O3         -0.5210   -1.5370   -0.3900 oh        1 HT3     -0.602800
      7 C4          0.8510    0.4740   -0.2380 c3        1 HT3     -0.110400
      8 C5          2.1190   -0.2380    0.1760 c3        1 HT3     -0.079400
      9 C6          3.3450    0.4470   -0.3890 c3        1 HT3     -0.079400
     10 C7          4.6110   -0.2490    0.0360 c3        1 HT3     -0.093100
     11 H1         -3.7880    0.5450    0.4640 h1        1 HT3      0.049700
     12 H1A        -2.7670   -0.5690    1.5040 h1        1 HT3      0.049700
     13 HO1        -2.6170   -1.8940   -0.3440 ho        1 HT3      0.417000
     14 H2         -1.7450    0.8230   -1.0910 h1        1 HT3      0.089700
     15 HO2        -1.5050    1.6550    1.5990 ho        1 HT3      0.398000
     16 H3         -0.2950   -0.5240    1.3360 h1        1 HT3      0.073700
     17 HO3        -0.4720   -1.3920   -1.3430 ho        1 HT3      0.407000
     18 H4          0.8160    0.5720   -1.3550 hc        1 HT3      0.056200
     19 H4A         0.8290    1.5110    0.1910 hc        1 HT3      0.056200
     20 H5          2.1870   -0.2680    1.2950 hc        1 HT3      0.045700
     21 H5A         2.0780   -1.3020   -0.1800 hc        1 HT3      0.045700
     22 H6          3.2820    0.4630   -1.5100 hc        1 HT3      0.039200
     23 H6A         3.3670    1.5150   -0.0450 hc        1 HT3      0.039200
     24 H7          4.7070   -0.2490    1.1490 hc        1 HT3      0.033367
     25 H7A         4.6150   -1.3100   -0.3150 hc        1 HT3      0.033367
     26 H7B         5.5020    0.2690   -0.3940 hc        1 HT3      0.033367
@<TRIPOS>BOND
     1    1    2 1   
     2    1    3 1   
     3    1   11 1   
     4    1   12 1   
     5    2   13 1   
     6    3    4 1   
     7    3    5 1   
     8    3   14 1   
     9    4   15 1   
    10    5    6 1   
    11    5    7 1   
    12    5   16 1   
    13    6   17 1   
    14    7    8 1   
    15    7   18 1   
    16    7   19 1   
    17    8    9 1   
    18    8   20 1   
    19    8   21 1   
    20    9   10 1   
    21    9   22 1   
    22    9   23 1   
    23   10   24 1   
    24   10   25 1   
    25   10   26 1   
@<TRIPOS>SUBSTRUCTURE
     1 HT3         1 TEMP              0 ****  ****    0 ROOT
