@<TRIPOS>MOLECULE
HT3
   26    25     1     0     0
SMALL
bcc


@<TRIPOS>ATOM
      1 C1         -2.9290    1.3950    0.7880 c3        1 HT3      0.095400
      2 O1         -3.3990    2.4660    1.5760 oh        1 HT3     -0.618800
      3 C2         -1.4170    1.3950    0.7880 c3        1 HT3      0.147100
      4 O2         -0.9480    1.3950    2.1160 oh        1 HT3     -0.607800
      5 C3         -0.9130    0.1610    0.0760 c3        1 HT3      0.143100
      6 O3         -1.5590    0.0410   -1.1690 oh        1 HT3     -0.610800
      7 C4          0.5790    0.2770   -0.1400 c3        1 HT3     -0.118400
      8 C5          1.1410   -1.0750   -0.5190 c3        1 HT3     -0.080400
      9 C6          2.6350   -0.9600   -0.7280 c3        1 HT3     -0.079400
     10 C7          3.1950   -2.3100   -1.1190 c3        1 HT3     -0.093100
     11 H1         -3.2540    1.4960   -0.1260 h1        1 HT3      0.045200
     12 H1A        -3.2540    0.5520    1.1580 h1        1 HT3      0.045200
     13 HO1        -4.2830    2.5170    1.5100 ho        1 HT3      0.408000
     14 H2         -1.0920    2.1920    0.3280 h1        1 HT3      0.056700
     15 HO2        -0.7310    2.2220    2.3530 ho        1 HT3      0.424000
     16 H3         -1.1030   -0.6280    0.6180 h1        1 HT3      0.049700
     17 HO3        -1.9240   -0.7660   -1.2370 ho        1 HT3      0.408000
     18 H4          0.7550    0.9160   -0.8570 hc        1 HT3      0.064200
     19 H4A         1.0040    0.5870    0.6830 hc        1 HT3      0.064200
     20 H5          0.7200   -1.3830   -1.3450 hc        1 HT3      0.037200
     21 H5A         0.9600   -1.7150    0.1960 hc        1 HT3      0.037200
     22 H6          3.0570   -0.6610    0.1000 hc        1 HT3      0.041700
     23 H6A         2.8160   -0.3150   -1.4370 hc        1 HT3      0.041700
     24 H7          2.7340   -2.6350   -1.9160 hc        1 HT3      0.033367
     25 H7A         4.1490   -2.2240   -1.3080 hc        1 HT3      0.033367
     26 H7B         3.0630   -2.9420   -0.3870 hc        1 HT3      0.033367
@<TRIPOS>BOND
     1    1    2 1   
     2    1    3 1   
     3    1   11 1   
     4    1   12 1   
     5    2   13 1   
     6    3    4 1   
     7    3    5 1   
     8    3   14 1   
     9    4   15 1   
    10    5    6 1   
    11    5    7 1   
    12    5   16 1   
    13    6   17 1   
    14    7    8 1   
    15    7   18 1   
    16    7   19 1   
    17    8    9 1   
    18    8   20 1   
    19    8   21 1   
    20    9   10 1   
    21    9   22 1   
    22    9   23 1   
    23   10   24 1   
    24   10   25 1   
    25   10   26 1   
@<TRIPOS>SUBSTRUCTURE
     1 HT3         1 TEMP              0 ****  ****    0 ROOT
