@<TRIPOS>MOLECULE
HT3
   26    25     1     0     0
SMALL
bcc


@<TRIPOS>ATOM
      1 C1          0.0030    0.0670    0.0300 c3        1 HT3      0.095400
      2 O1         -0.3380    1.2210    0.7850 oh        1 HT3     -0.618800
      3 C2          1.5330    0.0060    0.0110 c3        1 HT3      0.147100
      4 O2          2.0530   -0.1070    1.3280 oh        1 HT3     -0.607800
      5 C3          2.0110   -1.2400   -0.7580 c3        1 HT3      0.143100
      6 O3          1.3630   -1.1880   -2.0240 oh        1 HT3     -0.610800
      7 C4          3.5290   -1.2370   -0.8890 c3        1 HT3     -0.118400
      8 C5          4.0640   -2.5910   -1.2990 c3        1 HT3     -0.080400
      9 C6          5.5730   -2.5680   -1.4230 c3        1 HT3     -0.079400
     10 C7          6.1140   -3.9140   -1.8300 c3        1 HT3     -0.093100
     11 H1         -0.4170   -0.8490    0.5220 h1        1 HT3      0.045200
     12 H1A        -0.3860    0.1480   -1.0180 h1        1 HT3      0.045200
     13 HO1        -1.2990    1.2850    0.7730 ho        1 HT3      0.408000
     14 H2          1.9400    0.9370   -0.4730 h1        1 HT3      0.056700
     15 HO2         1.6360    0.5940    1.8450 ho        1 HT3      0.424000
     16 H3          1.6710   -2.1650   -0.2120 h1        1 HT3      0.049700
     17 HO3         1.8150   -1.8180   -2.5960 ho        1 HT3      0.408000
     18 H4          3.8320   -0.4620   -1.6400 hc        1 HT3      0.064200
     19 H4A         3.9660   -0.9430    0.1020 hc        1 HT3      0.064200
     20 H5          3.7620   -3.3610   -0.5400 hc        1 HT3      0.037200
     21 H5A         3.6160   -2.9010   -2.2800 hc        1 HT3      0.037200
     22 H6          6.0220   -2.2610   -0.4410 hc        1 HT3      0.041700
     23 H6A         5.8740   -1.7960   -2.1790 hc        1 HT3      0.041700
     24 H7          5.6980   -4.2250   -2.8180 hc        1 HT3      0.033367
     25 H7A         5.8450   -4.6920   -1.0750 hc        1 HT3      0.033367
     26 H7B         7.2270   -3.8750   -1.9130 hc        1 HT3      0.033367
@<TRIPOS>BOND
     1    1    2 1   
     2    1    3 1   
     3    1   11 1   
     4    1   12 1   
     5    2   13 1   
     6    3    4 1   
     7    3    5 1   
     8    3   14 1   
     9    4   15 1   
    10    5    6 1   
    11    5    7 1   
    12    5   16 1   
    13    6   17 1   
    14    7    8 1   
    15    7   18 1   
    16    7   19 1   
    17    8    9 1   
    18    8   20 1   
    19    8   21 1   
    20    9   10 1   
    21    9   22 1   
    22    9   23 1   
    23   10   24 1   
    24   10   25 1   
    25   10   26 1   
@<TRIPOS>SUBSTRUCTURE
     1 HT3         1 TEMP              0 ****  ****    0 ROOT
