@<TRIPOS>MOLECULE
HT4
   17    17     1     0     0
SMALL
bcc


@<TRIPOS>ATOM
      1 O1         -0.0090   -0.1140    0.2030 oh        1 HT4     -0.495100
      2 C1          1.3540   -0.0830    0.0750 ca        1 HT4      0.175100
      3 C6          2.0840    0.0730    1.2700 ca        1 HT4     -0.169000
      4 C5          3.4680    0.1110    1.2220 ca        1 HT4     -0.071000
      5 C4          4.1490   -0.0000   -0.0010 ca        1 HT4     -0.126300
      6 C7          5.6290    0.0560   -0.0290 c3        1 HT4     -0.047800
      7 C3          3.4160   -0.1510   -1.1770 ca        1 HT4     -0.052000
      8 C2          2.0170   -0.1980   -1.1600 ca        1 HT4     -0.107100
      9 S1          1.1350   -0.3090   -2.6170 sh        1 HT4     -0.309700
     10 H1         -0.3910   -0.2160   -0.6900 ho        1 HT4      0.440000
     11 H2          1.5390    0.1620    2.2210 ha        1 HT4      0.154000
     12 H3          4.0440    0.2320    2.1530 ha        1 HT4      0.137000
     13 H4          5.9790    1.0960    0.1910 hc        1 HT4      0.044033
     14 H5          6.0270   -0.2430   -1.0300 hc        1 HT4      0.044033
     15 H6          6.0620   -0.6290    0.7420 hc        1 HT4      0.044033
     16 H7          3.9400   -0.2310   -2.1430 ha        1 HT4      0.143000
     17 H8          1.3200   -1.5940   -2.8820 hs        1 HT4      0.194800
@<TRIPOS>BOND
     1    1    2 1   
     2    1   10 1   
     3    2    3 ar  
     4    2    8 ar  
     5    3    4 ar  
     6    3   11 1   
     7    4    5 ar  
     8    4   12 1   
     9    5    6 1   
    10    5    7 ar  
    11    6   13 1   
    12    6   14 1   
    13    6   15 1   
    14    7    8 ar  
    15    7   16 1   
    16    8    9 1   
    17    9   17 1   
@<TRIPOS>SUBSTRUCTURE
     1 HT4         1 TEMP              0 ****  ****    0 ROOT
