@<TRIPOS>MOLECULE
HT5
   45    45     1     0     0
SMALL
bcc


@<TRIPOS>ATOM
      1 O1          2.3170   -1.9920    1.1240 o         1 HT5     -0.153000
      2 C10         2.0550   -1.2630    0.1890 c2        1 HT5      0.287000
      3 N2          1.2860    0.0350    0.5830 n4        1 HT5     -0.128000
      4 SD         -0.0330    1.8480    3.7650 ss        1 HT5      0.895000
      5 C11         0.9200    0.0980    2.0230 c3        1 HT5     -0.081000
      6 C12        -0.1940    1.0990    2.3660 c2        1 HT5     -0.203000
      7 O2         -1.1460    1.1460    1.4270 oh        1 HT5     -0.157000
      8 C13         2.0940    0.4410    2.9650 c3        1 HT5     -0.184000
      9 C14         1.5280    1.1370    4.1830 c3        1 HT5     -0.420000
     10 C9          2.3710   -1.4090   -1.2630 c3        1 HT5     -0.191000
     11 C2          1.5770   -0.5540   -2.2250 c3        1 HT5     -0.179000
     12 C1          1.9480   -0.9140   -3.6550 c3        1 HT5     -0.160000
     13 C50         1.1780   -0.0580   -4.6400 c3        1 HT5     -0.158000
     14 C8          0.7410    0.5800  -10.8910 c3        1 HT5     -0.214000
     15 C6          0.3800    0.9320   -9.4710 c3        1 HT5     -0.157000
     16 C3          1.5450   -0.4160   -6.0650 c3        1 HT5     -0.159000
     17 C4          0.7790    0.4380   -7.0540 c3        1 HT5     -0.157000
     18 C5          1.1450    0.0810   -8.4790 c3        1 HT5     -0.159000
     19 H2         -1.9040    1.7200    1.6900 ho        1 HT5      0.318000
     20 H11         0.5180   -0.9380    2.2960 hx        1 HT5      0.218000
     21 H141        2.2200    1.9460    4.5540 h1        1 HT5      0.212000
     22 H142        1.4000    0.4220    5.0450 h1        1 HT5      0.212000
     23 H131        2.6230   -0.5110    3.2610 hc        1 HT5      0.171500
     24 H132        2.8570    1.0970    2.4620 hc        1 HT5      0.171500
     25 HA          1.8740    0.8370    0.3250 hn        1 HT5      0.270500
     26 H9C1        3.4780   -1.2030   -1.3790 hc        1 HT5      0.190000
     27 H9C2        2.2170   -2.5050   -1.5080 hc        1 HT5      0.190000
     28 H2C1        1.7940    0.5350   -2.0650 hc        1 HT5      0.084500
     29 H2C2        0.4760   -0.7230   -2.0880 hc        1 HT5      0.084500
     30 H1C1        1.7240   -1.9970   -3.8430 hc        1 HT5      0.106500
     31 H1C2        3.0500   -0.7660   -3.8080 hc        1 HT5      0.106500
     32 H501        1.4020    1.0260   -4.4570 hc        1 HT5      0.082000
     33 H502        0.0760   -0.2040   -4.4890 hc        1 HT5      0.082000
     34 H3C1        1.3220   -1.4990   -6.2520 hc        1 HT5      0.090500
     35 H3C2        2.6470   -0.2720   -6.2200 hc        1 HT5      0.090500
     36 H4C1       -0.3240    0.2940   -6.9020 hc        1 HT5      0.080500
     37 H4C2        1.0010    1.5220   -6.8700 hc        1 HT5      0.080500
     38 H5C1        0.9220   -1.0030   -8.6660 hc        1 HT5      0.085000
     39 H5C2        2.2470    0.2240   -8.6330 hc        1 HT5      0.085000
     40 H6C1        0.6020    2.0160   -9.2830 hc        1 HT5      0.079000
     41 H6C2       -0.7220    0.7890   -9.3160 hc        1 HT5      0.079000
     42 H8C1        0.1670    1.2190  -11.6050 hc        1 HT5      0.079667
     43 H8C2        1.8310    0.7410  -11.0730 hc        1 HT5      0.079667
     44 H8C3        0.5040   -0.4900  -11.1060 hc        1 HT5      0.079667
     45 H22         0.4280    0.0720    0.0100 hn        1 HT5      0.270500
@<TRIPOS>BOND
     1    1    2 1   
     2    2    3 1   
     3    2   10 1   
     4    3    5 1   
     5    3   25 1   
     6    3   45 1   
     7    4    6 1   
     8    4    9 1   
     9    5    6 1   
    10    5    8 1   
    11    5   20 1   
    12    6    7 1   
    13    7   19 1   
    14    8    9 1   
    15    8   23 1   
    16    8   24 1   
    17    9   21 1   
    18    9   22 1   
    19   10   11 1   
    20   10   26 1   
    21   10   27 1   
    22   11   12 1   
    23   11   28 1   
    24   11   29 1   
    25   12   13 1   
    26   12   30 1   
    27   12   31 1   
    28   13   16 1   
    29   13   32 1   
    30   13   33 1   
    31   14   15 1   
    32   14   42 1   
    33   14   43 1   
    34   14   44 1   
    35   15   18 1   
    36   15   40 1   
    37   15   41 1   
    38   16   17 1   
    39   16   34 1   
    40   16   35 1   
    41   17   18 1   
    42   17   36 1   
    43   17   37 1   
    44   18   38 1   
    45   18   39 1   
@<TRIPOS>SUBSTRUCTURE
     1 HT5         1 TEMP              0 ****  ****    0 ROOT
