@<TRIPOS>MOLECULE
HT5
   45    45     1     0     0
SMALL
bcc


@<TRIPOS>ATOM
      1 O1          2.1590   -2.0390    1.1340 o         1 HT5     -0.153000
      2 C10         1.9560   -1.2920    0.1990 c2        1 HT5      0.287000
      3 N2          1.2590    0.0480    0.5860 n4        1 HT5     -0.128000
      4 SD          0.0010    1.9240    3.7560 ss        1 HT5      0.895000
      5 C11         0.8740    0.1270    2.0210 c3        1 HT5     -0.081000
      6 C12        -0.1820    1.1920    2.3510 c2        1 HT5     -0.203000
      7 O2         -1.1150    1.3000    1.3980 oh        1 HT5     -0.157000
      8 C13         2.0530    0.3960    2.9830 c3        1 HT5     -0.184000
      9 C14         1.5100    1.1200    4.1950 c3        1 HT5     -0.420000
     10 C9          2.2870   -1.4500   -1.2500 c3        1 HT5     -0.191000
     11 C2          1.5390   -0.5640   -2.2200 c3        1 HT5     -0.179000
     12 C1          1.9080   -0.9420   -3.6470 c3        1 HT5     -0.160000
     13 C50         1.1830   -0.0570   -4.6390 c3        1 HT5     -0.158000
     14 C8          0.8300    0.5870  -10.8950 c3        1 HT5     -0.214000
     15 C6          0.4700    0.9560   -9.4790 c3        1 HT5     -0.157000
     16 C3          1.5480   -0.4320   -6.0610 c3        1 HT5     -0.159000
     17 C4          0.8270    0.4500   -7.0580 c3        1 HT5     -0.157000
     18 C5          1.1900    0.0760   -8.4790 c3        1 HT5     -0.159000
     19 H2         -1.8410    1.9180    1.6510 ho        1 HT5      0.318000
     20 H11         0.4070   -0.8840    2.2830 hx        1 HT5      0.218000
     21 H141        2.2430    1.8840    4.5810 h1        1 HT5      0.212000
     22 H142        1.3250    0.4100    5.0510 h1        1 HT5      0.212000
     23 H131        2.8610    1.0060    2.4940 hc        1 HT5      0.171500
     24 H132        2.5180   -0.5880    3.2820 hc        1 HT5      0.171500
     25 HA          0.4140    0.1370    0.0010 hn        1 HT5      0.270500
     26 H9C1        2.0930   -2.5390   -1.4980 hc        1 HT5      0.189500
     27 H9C2        3.4020   -1.2870   -1.3500 hc        1 HT5      0.189500
     28 H2C1        1.8000    0.5150   -2.0600 hc        1 HT5      0.084500
     29 H2C2        0.4300   -0.6860   -2.0940 hc        1 HT5      0.084500
     30 H1C1        1.6400   -2.0150   -3.8350 hc        1 HT5      0.106500
     31 H1C2        3.0160   -0.8410   -3.7900 hc        1 HT5      0.106500
     32 H501        1.4500    1.0180   -4.4560 hc        1 HT5      0.082500
     33 H502        0.0750   -0.1570   -4.4990 hc        1 HT5      0.082500
     34 H3C1        1.2820   -1.5060   -6.2480 hc        1 HT5      0.090500
     35 H3C2        2.6570   -0.3330   -6.2050 hc        1 HT5      0.090500
     36 H4C1       -0.2820    0.3520   -6.9160 hc        1 HT5      0.080500
     37 H4C2        1.0910    1.5250   -6.8730 hc        1 HT5      0.080500
     38 H5C1        0.9260   -0.9980   -8.6660 hc        1 HT5      0.085000
     39 H5C2        2.2990    0.1740   -8.6230 hc        1 HT5      0.085000
     40 H6C1       -0.6380    0.8580   -9.3340 hc        1 HT5      0.079000
     41 H6C2        0.7350    2.0300   -9.2910 hc        1 HT5      0.079000
     42 H8C1        0.5510   -0.4730  -11.1110 hc        1 HT5      0.079667
     43 H8C2        1.9270    0.7020  -11.0680 hc        1 HT5      0.079667
     44 H8C3        0.2880    1.2460  -11.6160 hc        1 HT5      0.079667
     45 H22         1.8980    0.8140    0.3410 hn        1 HT5      0.270500
@<TRIPOS>BOND
     1    1    2 1   
     2    2    3 1   
     3    2   10 1   
     4    3    5 1   
     5    3   25 1   
     6    3   45 1   
     7    4    6 1   
     8    4    9 1   
     9    5    6 1   
    10    5    8 1   
    11    5   20 1   
    12    6    7 1   
    13    7   19 1   
    14    8    9 1   
    15    8   23 1   
    16    8   24 1   
    17    9   21 1   
    18    9   22 1   
    19   10   11 1   
    20   10   26 1   
    21   10   27 1   
    22   11   12 1   
    23   11   28 1   
    24   11   29 1   
    25   12   13 1   
    26   12   30 1   
    27   12   31 1   
    28   13   16 1   
    29   13   32 1   
    30   13   33 1   
    31   14   15 1   
    32   14   42 1   
    33   14   43 1   
    34   14   44 1   
    35   15   18 1   
    36   15   40 1   
    37   15   41 1   
    38   16   17 1   
    39   16   34 1   
    40   16   35 1   
    41   17   18 1   
    42   17   36 1   
    43   17   37 1   
    44   18   38 1   
    45   18   39 1   
@<TRIPOS>SUBSTRUCTURE
     1 HT5         1 TEMP              0 ****  ****    0 ROOT
