@<TRIPOS>MOLECULE
HT5
   44    44     1     0     0
SMALL
bcc


@<TRIPOS>ATOM
      1 O1         -1.5710   -0.2830    1.3700 o         1 HT5     -0.322000
      2 C10        -1.5050    0.2840    0.2700 c2        1 HT5      0.317000
      3 N2         -2.7050    0.6640   -0.3620 n         1 HT5     -0.394000
      4 SD         -6.3420   -0.6430   -0.3300 ss        1 HT5      0.608000
      5 C11        -3.9620    0.4420    0.2510 c3        1 HT5      0.044000
      6 C12        -4.7340   -0.8140   -0.2370 c2        1 HT5     -0.123000
      7 O2         -3.9690   -1.8690   -0.4750 oh        1 HT5     -0.092000
      8 C13        -4.9700    1.6050    0.1060 c3        1 HT5     -0.192000
      9 C14        -6.3780    1.0660    0.1660 c3        1 HT5     -0.348000
     10 C9         -0.2250    0.6150   -0.4590 c3        1 HT5     -0.170000
     11 C2          0.9780    0.1030    0.3070 c3        1 HT5     -0.156000
     12 C1          2.2600    0.4480   -0.4220 c3        1 HT5     -0.159000
     13 C50         3.4670   -0.0630    0.3370 c3        1 HT5     -0.157000
     14 C8          9.7340   -0.0620   -0.3130 c3        1 HT5     -0.212000
     15 C6          8.4520   -0.4000    0.4040 c3        1 HT5     -0.158000
     16 C3          4.7510    0.2790   -0.3870 c3        1 HT5     -0.158000
     17 C4          5.9590   -0.2310    0.3700 c3        1 HT5     -0.158000
     18 C5          7.2440    0.1100   -0.3530 c3        1 HT5     -0.158000
     19 H2         -4.5030   -2.6540   -0.7260 ho        1 HT5      0.275000
     20 H11        -3.7780    0.2300    1.3610 h1        1 HT5      0.193000
     21 H141       -7.0670    1.6220   -0.5210 h1        1 HT5      0.173000
     22 H142       -6.8050    1.1330    1.2000 h1        1 HT5      0.173000
     23 H131       -4.7940    2.3370    0.9410 hc        1 HT5      0.147000
     24 H132       -4.8090    2.1610   -0.8570 hc        1 HT5      0.147000
     25 HA         -2.6790    1.1090   -1.2480 hn        1 HT5      0.243000
     26 H9C1       -0.2490    0.1560   -1.4830 hc        1 HT5      0.117500
     27 H9C2       -0.1530    1.7300   -0.5820 hc        1 HT5      0.117500
     28 H2C1        0.9880    0.5520    1.3350 hc        1 HT5      0.103000
     29 H2C2        0.8960   -1.0080    0.4360 hc        1 HT5      0.103000
     30 H1C1        2.2450   -0.0020   -1.4500 hc        1 HT5      0.082000
     31 H1C2        2.3380    1.5600   -0.5460 hc        1 HT5      0.082000
     32 H501        3.4830    0.3870    1.3650 hc        1 HT5      0.085000
     33 H502        3.3900   -1.1750    0.4630 hc        1 HT5      0.085000
     34 H3C1        4.7360   -0.1700   -1.4150 hc        1 HT5      0.080500
     35 H3C2        4.8290    1.3910   -0.5120 hc        1 HT5      0.080500
     36 H4C1        5.9750    0.2180    1.3990 hc        1 HT5      0.081000
     37 H4C2        5.8820   -1.3430    0.4960 hc        1 HT5      0.081000
     38 H5C1        7.3220    1.2220   -0.4790 hc        1 HT5      0.079500
     39 H5C2        7.2280   -0.3390   -1.3810 hc        1 HT5      0.079500
     40 H6C1        8.3720   -1.5120    0.5300 hc        1 HT5      0.079000
     41 H6C2        8.4660    0.0490    1.4320 hc        1 HT5      0.079000
     42 H8C1        9.8440    1.0430   -0.4260 hc        1 HT5      0.074333
     43 H8C2       10.6120   -0.4470    0.2620 hc        1 HT5      0.074333
     44 H8C3        9.7510   -0.5220   -1.3310 hc        1 HT5      0.074333
@<TRIPOS>BOND
     1    1    2 1   
     2    2    3 1   
     3    2   10 1   
     4    3    5 1   
     5    3   25 1   
     6    4    6 1   
     7    4    9 1   
     8    5    6 1   
     9    5    8 1   
    10    5   20 1   
    11    6    7 1   
    12    7   19 1   
    13    8    9 1   
    14    8   23 1   
    15    8   24 1   
    16    9   21 1   
    17    9   22 1   
    18   10   11 1   
    19   10   26 1   
    20   10   27 1   
    21   11   12 1   
    22   11   28 1   
    23   11   29 1   
    24   12   13 1   
    25   12   30 1   
    26   12   31 1   
    27   13   16 1   
    28   13   32 1   
    29   13   33 1   
    30   14   15 1   
    31   14   42 1   
    32   14   43 1   
    33   14   44 1   
    34   15   18 1   
    35   15   40 1   
    36   15   41 1   
    37   16   17 1   
    38   16   34 1   
    39   16   35 1   
    40   17   18 1   
    41   17   36 1   
    42   17   37 1   
    43   18   38 1   
    44   18   39 1   
@<TRIPOS>SUBSTRUCTURE
     1 HT5         1 TEMP              0 ****  ****    0 ROOT
