@<TRIPOS>MOLECULE
HT5
   45    45     1     0     0
SMALL
bcc


@<TRIPOS>ATOM
      1 O1          2.2120   -2.0700    1.1080 o         1 HT5     -0.153000
      2 C10         1.9920   -1.3190    0.1800 c2        1 HT5      0.287000
      3 N2          1.2950    0.0150    0.5850 ny        1 HT5     -0.128000
      4 SD          0.0730    1.8670    3.7830 ss        1 HT5      0.895000
      5 C11         0.9300    0.0850    2.0250 c3        1 HT5     -0.081000
      6 C12        -0.1270    1.1420    2.3760 c2        1 HT5     -0.203000
      7 O2         -1.0750    1.2500    1.4370 oh        1 HT5     -0.157000
      8 C13         2.1200    0.3540    2.9720 c3        1 HT5     -0.184000
      9 C14         1.5910    1.0690    4.1950 c3        1 HT5     -0.420000
     10 C9          2.3020   -1.4680   -1.2740 c3        1 HT5     -0.191000
     11 C2          1.5460   -0.5720   -2.2290 c3        1 HT5     -0.179000
     12 C1          1.8980   -0.9390   -3.6620 c3        1 HT5     -0.160000
     13 C50         1.1660   -0.0430   -4.6390 c3        1 HT5     -0.158000
     14 C8          0.7470    0.6530  -10.8850 c3        1 HT5     -0.214000
     15 C6          0.4040    1.0120   -9.4630 c3        1 HT5     -0.157000
     16 C3          1.5130   -0.4080   -6.0680 c3        1 HT5     -0.159000
     17 C4          0.7840    0.4850   -7.0500 c3        1 HT5     -0.157000
     18 C5          1.1310    0.1210   -8.4780 c3        1 HT5     -0.159000
     19 H2         -1.8000    1.8630    1.7040 ho        1 HT5      0.318000
     20 H11         0.4720   -0.9310    2.2880 hx        1 HT5      0.218000
     21 H141        1.4230    0.3530    5.0500 h1        1 HT5      0.212000
     22 H142        2.3260    1.8340    4.5750 h1        1 HT5      0.212000
     23 H131        2.5950   -0.6290    3.2590 hc        1 HT5      0.171500
     24 H132        2.9180    0.9710    2.4750 hc        1 HT5      0.171500
     25 HA          0.4410    0.1040    0.0120 hn        1 HT5      0.270500
     26 H9C1        3.4170   -1.3100   -1.3880 hc        1 HT5      0.190000
     27 H9C2        2.1000   -2.5540   -1.5270 hc        1 HT5      0.190000
     28 H2C1        0.4390   -0.6910   -2.0900 hc        1 HT5      0.084500
     29 H2C2        1.8120    0.5050   -2.0620 hc        1 HT5      0.084500
     30 H1C1        1.6240   -2.0100   -3.8560 hc        1 HT5      0.106500
     31 H1C2        3.0050   -0.8410   -3.8170 hc        1 HT5      0.106500
     32 H501        1.4380    1.0280   -4.4500 hc        1 HT5      0.082500
     33 H502        0.0590   -0.1410   -4.4870 hc        1 HT5      0.082500
     34 H3C1        2.6200   -0.3120   -6.2230 hc        1 HT5      0.090500
     35 H3C2        1.2410   -1.4790   -6.2610 hc        1 HT5      0.090500
     36 H4C1        1.0550    1.5570   -6.8590 hc        1 HT5      0.080500
     37 H4C2       -0.3230    0.3890   -6.8970 hc        1 HT5      0.080500
     38 H5C1        0.8610   -0.9500   -8.6710 hc        1 HT5      0.085000
     39 H5C2        2.2380    0.2170   -8.6330 hc        1 HT5      0.085000
     40 H6C1       -0.7040    0.9160   -9.3060 hc        1 HT5      0.079000
     41 H6C2        0.6740    2.0840   -9.2680 hc        1 HT5      0.079000
     42 H8C1        0.4610   -0.4040  -11.1070 hc        1 HT5      0.079667
     43 H8C2        1.8430    0.7660  -11.0690 hc        1 HT5      0.079667
     44 H8C3        0.2000    1.3210  -11.5940 hc        1 HT5      0.079667
     45 H22         1.9260    0.7860    0.3350 hn        1 HT5      0.270500
@<TRIPOS>BOND
     1    1    2 1   
     2    2    3 1   
     3    2   10 1   
     4    3    5 1   
     5    3   25 1   
     6    3   45 1   
     7    4    6 1   
     8    4    9 1   
     9    5    6 1   
    10    5    8 1   
    11    5   20 1   
    12    6    7 1   
    13    7   19 1   
    14    8    9 1   
    15    8   23 1   
    16    8   24 1   
    17    9   21 1   
    18    9   22 1   
    19   10   11 1   
    20   10   26 1   
    21   10   27 1   
    22   11   12 1   
    23   11   28 1   
    24   11   29 1   
    25   12   13 1   
    26   12   30 1   
    27   12   31 1   
    28   13   16 1   
    29   13   32 1   
    30   13   33 1   
    31   14   15 1   
    32   14   42 1   
    33   14   43 1   
    34   14   44 1   
    35   15   18 1   
    36   15   40 1   
    37   15   41 1   
    38   16   17 1   
    39   16   34 1   
    40   16   35 1   
    41   17   18 1   
    42   17   36 1   
    43   17   37 1   
    44   18   38 1   
    45   18   39 1   
@<TRIPOS>SUBSTRUCTURE
     1 HT5         1 TEMP              0 ****  ****    0 ROOT
