@<TRIPOS>MOLECULE
HT5
   44    41     1     0     0
SMALL
bcc


@<TRIPOS>ATOM
      1 O1         -1.0510   -0.5680    3.1090 o         1 HT5     -0.322000
      2 C10        -0.0030    0.0350    3.0620 c1        1 HT5      0.317000
      3 N2          0.6150    0.4860    4.2660 n2        1 HT5     -0.394000
      4 SD          0.1840    1.3420    7.6940 s         1 HT5      0.608000
      5 C11         0.0550    0.2520    5.4070 c3        1 HT5      0.044000
      6 C12        -0.0730    1.4040    6.0940 c1        1 HT5     -0.123000
      7 O2         -0.8050    2.4980    5.5280 o         1 HT5     -0.092000
      8 C13         1.1850   -0.6930    6.4560 c3        1 HT5     -0.192000
      9 C14         1.0570   -0.0830    7.9680 c2        1 HT5     -0.348000
     10 C9          0.6130    0.3820    1.7200 c3        1 HT5     -0.170000
     11 C2         -0.2100   -0.2550    0.5980 c3        1 HT5     -0.156000
     12 C1          0.3160    0.2270   -0.7550 c3        1 HT5     -0.159000
     13 C50        -0.3850   -0.5330   -1.8750 c3        1 HT5     -0.157000
     14 C8         -0.7280   -0.2050   -8.1330 c3        1 HT5     -0.212000
     15 C6         -0.6760   -0.9690   -6.8490 c3        1 HT5     -0.158000
     16 C3         -0.1070    0.1590   -3.2090 c3        1 HT5     -0.158000
     17 C4         -0.5140   -0.7630   -4.3550 c3        1 HT5     -0.158000
     18 C5         -0.3920   -0.0060   -5.6930 c3        1 HT5     -0.158000
     19 H2         -0.8980    3.1420    6.1390 ho        1 HT5      0.275000
     20 H11        -0.7740   -0.1950    5.1190 h1        1 HT5      0.193000
     21 H141        0.7020   -0.5930    8.7270 ha        1 HT5      0.173000
     22 H142        1.9730    0.0900    8.2700 ha        1 HT5      0.173000
     23 H131        0.9300   -1.6380    6.4540 hc        1 HT5      0.147000
     24 H132        2.1100   -0.5930    6.1300 hc        1 HT5      0.147000
     25 HA          1.3860    0.9700    4.2290 hn        1 HT5      0.243000
     26 H9C1        0.6210    1.3540    1.6060 hc        1 HT5      0.117500
     27 H9C2        1.5250    0.0430    1.6850 hc        1 HT5      0.117500
     28 H2C1       -1.1600    0.0050    0.6950 hc        1 HT5      0.103000
     29 H2C2       -0.1310   -1.2360    0.6490 hc        1 HT5      0.103000
     30 H1C1        0.1400    1.1790   -0.8500 hc        1 HT5      0.082000
     31 H1C2        1.2730    0.0690   -0.8060 hc        1 HT5      0.082000
     32 H501       -0.0490   -1.4450   -1.9070 hc        1 HT5      0.084500
     33 H502       -1.3510   -0.5450   -1.7070 hc        1 HT5      0.084500
     34 H3C1        0.8500    0.3650   -3.2780 hc        1 HT5      0.080500
     35 H3C2       -0.6240    0.9900   -3.2590 hc        1 HT5      0.080500
     36 H4C1       -1.4350   -1.0510   -4.2280 hc        1 HT5      0.081000
     37 H4C2        0.0730   -1.5440   -4.3680 hc        1 HT5      0.081000
     38 H5C1        0.5230    0.3580   -5.7850 hc        1 HT5      0.079500
     39 H5C2       -1.0430    0.7320   -5.7140 hc        1 HT5      0.079500
     40 H6C1       -1.5300   -1.4120   -6.7000 hc        1 HT5      0.079000
     41 H6C2        0.0320   -1.6370   -6.8960 hc        1 HT5      0.079000
     42 H8C1       -1.4870    0.4160   -8.1140 hc        1 HT5      0.074333
     43 H8C2        0.0960    0.2950   -8.2460 hc        1 HT5      0.074333
     44 H8C3       -0.8370   -0.8280   -8.8790 hc        1 HT5      0.074333
@<TRIPOS>BOND
     1    1    2 1   
     2    2   10 1   
     3    3    5 1   
     4    3   25 1   
     5    4    6 1   
     6    5    6 1   
     7    5    8 1   
     8    5   20 1   
     9    7   19 1   
    10    8    9 1   
    11    8   23 1   
    12    8   24 1   
    13    9   21 1   
    14    9   22 1   
    15   10   11 1   
    16   10   26 1   
    17   10   27 1   
    18   11   12 1   
    19   11   28 1   
    20   11   29 1   
    21   12   13 1   
    22   12   30 1   
    23   12   31 1   
    24   13   16 1   
    25   13   32 1   
    26   13   33 1   
    27   14   15 1   
    28   14   42 1   
    29   14   43 1   
    30   14   44 1   
    31   15   18 1   
    32   15   40 1   
    33   15   41 1   
    34   16   17 1   
    35   16   34 1   
    36   16   35 1   
    37   17   18 1   
    38   17   36 1   
    39   17   37 1   
    40   18   38 1   
    41   18   39 1   
@<TRIPOS>SUBSTRUCTURE
     1 HT5         1 TEMP              0 ****  ****    0 ROOT
