@<TRIPOS>MOLECULE
HT7
   29    24     1     0     0
SMALL
bcc


@<TRIPOS>ATOM
      1 N           1.4170   -0.4580   -2.9700 n3        1 HT7     -0.349000
      2 CB          0.5410    0.2950   -2.1410 c3        1 HT7     -0.022000
      3 CG          1.0440    0.2630   -0.7150 c3        1 HT7     -0.095000
      4 CD          0.0880   -0.5400    0.1390 c2        1 HT7     -0.120000
      5 CE2        -0.0320   -0.3430    1.4970 c1        1 HT7     -0.079000
      6 CZ3         0.4690    0.6550    2.3520 c1        1 HT7     -0.081000
      7 CH3         0.1900    0.6100    3.7100 c1        1 HT7     -0.150500
      8 CT2        -0.5840   -0.4210    4.2260 c1        1 HT7     -0.150500
      9 CH2        -1.0790   -1.4060    3.3830 c1        1 HT7     -0.156000
     10 CZ2        -0.7960   -1.3610    2.0070 c1        1 HT7     -0.006000
     11 NZ1        -1.1520   -2.1930    0.9610 n1        1 HT7     -0.231000
     12 CE1        -0.6080   -1.6870   -0.1870 c1        1 HT7     -0.054000
     13 CA          0.4940    1.7260   -2.6270 c3        1 HT7     -0.260000
     14 C          -0.9010    2.0460   -3.1170 c2        1 HT7      0.326000
     15 O          -1.7270    2.6010   -2.3450 o         1 HT7     -0.584500
     16 OXT        -1.2360    1.7570   -4.2950 o         1 HT7     -0.584500
     17 HN1         1.1450   -0.3920   -3.8420 hn        1 HT7      0.151000
     18 HA2         1.4020   -1.3370   -2.7110 hn        1 HT7      0.151000
     19 HA         -0.3560   -0.0920   -2.1790 h1        1 HT7      0.090000
     20 HA1         1.9300   -0.1520   -0.6910 hc        1 HT7      0.079500
     21 HB2         1.1030    1.1750   -0.3700 hc        1 HT7      0.079500
     22 HB1         0.7270    2.3270   -1.8920 hc        1 HT7      0.067000
     23 HC2         1.1310    1.8430   -3.3590 hc        1 HT7      0.067000
     24 HE1        -0.6970   -2.0690   -1.0810 DU        1 HT7      0.215500
     25 HZ3         1.0130    1.3800    1.9890 ha        1 HT7      0.133000
     26 HH3         0.5390    1.3020    4.3040 ha        1 HT7      0.115500
     27 HT2        -0.7810   -0.4520    5.1810 ha        1 HT7      0.115500
     28 HH2        -1.6230   -2.1300    3.7460 ha        1 HT7      0.119000
     29 HZ1        -1.6610   -2.9470    1.0250 DU        1 HT7      0.215500
@<TRIPOS>BOND
     1    1    2 1   
     2    1   17 1   
     3    1   18 1   
     4    2    3 1   
     5    2   13 1   
     6    2   19 1   
     7    3    4 1   
     8    3   20 1   
     9    3   21 1   
    10    4    5 1   
    11    4   12 1   
    12    5    6 1   
    13    6   25 1   
    14    7    8 1   
    15    7   26 1   
    16    8   27 1   
    17    9   10 1   
    18    9   28 1   
    19   11   12 1   
    20   13   14 1   
    21   13   22 1   
    22   13   23 1   
    23   14   15 1   
    24   14   16 1   
@<TRIPOS>SUBSTRUCTURE
     1 HT7         1 TEMP              0 ****  ****    0 ROOT
