@<TRIPOS>MOLECULE
HT7
   29    30     1     0     0
SMALL
bcc


@<TRIPOS>ATOM
      1 N           2.0370   -0.1580    1.3930 n3        1 HT7     -0.916800
      2 CB          1.7980   -0.3540   -0.0300 c3        1 HT7      0.175500
      3 CG          0.5420    0.3910   -0.5210 c3        1 HT7     -0.012200
      4 CD         -0.7210   -0.0940    0.0500 cc        1 HT7     -0.112400
      5 CE2        -2.0430    0.3160   -0.3890 ca        1 HT7     -0.090800
      6 CZ3        -2.5140    1.1850   -1.3710 ca        1 HT7     -0.081000
      7 CH3        -3.8840    1.3530   -1.5260 ca        1 HT7     -0.174000
      8 CT2        -4.7990    0.6620   -0.7150 ca        1 HT7     -0.127000
      9 CH2        -4.3750   -0.2170    0.2720 ca        1 HT7     -0.156000
     10 CZ2        -2.9950   -0.3960    0.4410 ca        1 HT7     -0.051200
     11 NZ1        -2.2750   -1.2120    1.3140 na        1 HT7     -0.208400
     12 CE1        -0.9070   -1.0060    1.0870 cd        1 HT7     -0.081100
     13 CA          2.9670    0.0420   -0.9390 c3        1 HT7     -0.231400
     14 C           4.2650   -0.6940   -0.5680 c         1 HT7      0.906600
     15 O           4.7560   -0.5070    0.5870 o         1 HT7     -0.849800
     16 OXT         4.7930   -1.4400   -1.4390 o         1 HT7     -0.849800
     17 HN1         2.8890   -0.6440    1.6350 hn        1 HT7      0.355800
     18 HA2         2.2000    0.8170    1.5660 hn        1 HT7      0.355800
     19 HA          1.6170   -1.4630   -0.1690 h1        1 HT7      0.050700
     20 HA1         0.6470    1.4890   -0.3020 hc        1 HT7      0.040200
     21 HB2         0.4940    0.2820   -1.6400 hc        1 HT7      0.040200
     22 HB1         2.7070   -0.1970   -2.0000 hc        1 HT7      0.027700
     23 HC2         3.1530    1.1430   -0.8610 hc        1 HT7      0.027700
     24 HE1        -0.1560   -1.5330    1.6830 h4        1 HT7      0.194000
     25 HZ3        -1.8010    1.7250   -2.0110 ha        1 HT7      0.133000
     26 HH3        -4.2660    2.0370   -2.2970 ha        1 HT7      0.117000
     27 HT2        -5.8760    0.8220   -0.8680 ha        1 HT7      0.114000
     28 HH2        -5.0970   -0.7550    0.9000 ha        1 HT7      0.119000
     29 HZ1        -2.6610   -1.7240    2.0590 hn        1 HT7      0.286700
@<TRIPOS>BOND
     1    1    2 1   
     2    1   17 1   
     3    1   18 1   
     4    2    3 1   
     5    2   13 1   
     6    2   19 1   
     7    3    4 1   
     8    3   20 1   
     9    3   21 1   
    10    4    5 1   
    11    4   12 2   
    12    5    6 ar  
    13    5   10 ar  
    14    6    7 ar  
    15    6   25 1   
    16    7    8 ar  
    17    7   26 1   
    18    8    9 ar  
    19    8   27 1   
    20    9   10 ar  
    21    9   28 1   
    22   10   11 1   
    23   11   12 1   
    24   11   29 1   
    25   12   24 1   
    26   13   14 1   
    27   13   22 1   
    28   13   23 1   
    29   14   15 1   
    30   14   16 1   
@<TRIPOS>SUBSTRUCTURE
     1 HT7         1 TEMP              0 ****  ****    0 ROOT
