@<TRIPOS>MOLECULE
HTA
   56    53     1     0     0
SMALL
bcc


@<TRIPOS>ATOM
      1 C1         -3.9220   -1.3990   -1.2200 c1        1 HTA      0.236000
      2 C2         -2.3850   -1.6760   -1.1730 c2        1 HTA     -0.177000
      3 C3         -1.9210   -1.7040    0.2650 c3        1 HTA     -0.116000
      4 C4         -0.4930   -1.1590    0.3510 c2        1 HTA      0.307000
      5 C5         -1.9560   -3.1160    0.7750 c3        1 HTA     -0.156000
      6 C6         -3.3020   -3.3520    1.5750 c3        1 HTA     -0.116000
      7 C7         -3.9930   -4.5480    1.0390 c3        1 HTA     -0.207000
      8 C8         -2.9800   -3.5710    3.0910 c3        1 HTA     -0.207000
      9 C9          1.0310    0.7940    0.5800 c3        1 HTA      0.012000
     10 C10         1.9740    0.0530    1.4630 c2        1 HTA      0.282000
     11 C11         0.9920    2.2750    1.0010 c3        1 HTA     -0.120000
     12 C12         1.8660    3.1320   -0.0010 c2        1 HTA     -0.122000
     13 C13         3.2500    2.9320   -0.0740 c2        1 HTA     -0.084000
     14 C14         1.2650    4.0940   -0.7930 c1        1 HTA     -0.090000
     15 C15         4.0190    3.6990   -0.9390 c1        1 HTA     -0.158000
     16 C16         2.0390    4.8670   -1.6650 c1        1 HTA     -0.207000
     17 C17         3.4130    4.6680   -1.7360 c1        1 HTA      0.082000
     18 C18         4.1760   -1.0490    1.8210 c3        1 HTA     -0.078000
     19 C19         4.7020    5.4370   -3.5860 c3        1 HTA     -0.076000
     20 N1         -4.7020   -1.8720   -2.3270 n3        1 HTA     -0.192000
     21 N2         -0.2700    0.2290    0.6970 n         1 HTA     -0.372000
     22 N3          3.2970   -0.2180    1.0190 n         1 HTA     -0.375000
     23 O1         -6.0670   -1.6250   -2.3660 oh        1 HTA     -0.241000
     24 O2         -4.4680   -0.8620   -0.2830 o         1 HTA     -0.331000
     25 O3          0.4680   -1.9060    0.1460 o         1 HTA     -0.392000
     26 O4          1.6280   -0.2870    2.5570 o         1 HTA     -0.384000
     27 O5          4.6320    5.2630   -2.1880 os        1 HTA     -0.210000
     28 H21        -2.1930   -2.5480   -1.5990 ha        1 HTA      0.129500
     29 H22        -1.9100   -0.9630   -1.6560 ha        1 HTA      0.129500
     30 H3         -2.4960   -1.1650    0.7930 hc        1 HTA      0.138000
     31 H51        -1.9120   -3.7400    0.0160 hc        1 HTA      0.092000
     32 H52        -1.2000   -3.2680    1.3610 hc        1 HTA      0.092000
     33 H6         -3.8770   -2.5760    1.4760 hc        1 HTA      0.105000
     34 H71        -4.0480   -4.4820    0.0650 hc        1 HTA      0.074333
     35 H72        -3.4960   -5.3450    1.2820 hc        1 HTA      0.074333
     36 H73        -4.8930   -4.5980    1.4120 hc        1 HTA      0.074333
     37 H81        -3.7620   -3.9970    3.5390 hc        1 HTA      0.074333
     38 H82        -2.7920   -2.7030    3.5150 hc        1 HTA      0.074333
     39 H83        -2.2020   -4.1500    3.1780 hc        1 HTA      0.074333
     40 H9          1.3380    0.7250   -0.3630 h1        1 HTA      0.134000
     41 H111        0.0720    2.5930    0.9820 hc        1 HTA      0.107500
     42 H112        1.3480    2.3650    1.9020 hc        1 HTA      0.107500
     43 H13         3.6790    2.2450    0.4900 ha        1 HTA      0.161000
     44 H14         0.2710    4.2380   -0.7420 ha        1 HTA      0.131000
     45 H15         4.9990    3.5570   -0.9900 ha        1 HTA      0.151000
     46 H16         1.6050    5.5610   -2.2360 ha        1 HTA      0.137000
     47 H181        5.1020   -0.8370    1.6130 h1        1 HTA      0.082667
     48 H182        4.0050   -1.9880    1.6240 h1        1 HTA      0.082667
     49 H183        4.0060   -0.8780    2.7850 h1        1 HTA      0.082667
     50 H191        4.0570    6.1220   -3.8620 h1        1 HTA      0.083333
     51 H192        5.6000    5.7180   -3.8350 h1        1 HTA      0.083333
     52 H193        4.4920    4.5930   -4.0280 h1        1 HTA      0.083333
     53 HN1        -4.3180   -2.3680   -2.9640 hn        1 HTA      0.212000
     54 HN2        -0.9380    0.7170    1.0180 hn        1 HTA      0.236000
     55 HN3         3.5980    0.1380    0.2340 hn        1 HTA      0.251000
     56 HO1        -6.4280   -2.0670   -3.0400 ho        1 HTA      0.235000
@<TRIPOS>BOND
     1    1   20 1   
     2    1   24 1   
     3    2    3 1   
     4    2   28 1   
     5    2   29 1   
     6    3    4 1   
     7    3    5 1   
     8    3   30 1   
     9    4   21 1   
    10    4   25 1   
    11    5    6 1   
    12    5   31 1   
    13    5   32 1   
    14    6    7 1   
    15    6    8 1   
    16    6   33 1   
    17    7   34 1   
    18    7   35 1   
    19    7   36 1   
    20    8   37 1   
    21    8   38 1   
    22    8   39 1   
    23    9   10 1   
    24    9   11 1   
    25    9   21 1   
    26    9   40 1   
    27   10   22 1   
    28   10   26 1   
    29   11   12 1   
    30   11   41 1   
    31   11   42 1   
    32   12   13 1   
    33   12   14 1   
    34   13   15 1   
    35   13   43 1   
    36   14   44 1   
    37   15   45 1   
    38   16   17 1   
    39   16   46 1   
    40   17   27 1   
    41   18   22 1   
    42   18   47 1   
    43   18   48 1   
    44   18   49 1   
    45   19   27 1   
    46   19   50 1   
    47   19   51 1   
    48   19   52 1   
    49   20   23 1   
    50   20   53 1   
    51   21   54 1   
    52   22   55 1   
    53   23   56 1   
@<TRIPOS>SUBSTRUCTURE
     1 HTA         1 TEMP              0 ****  ****    0 ROOT
