@<TRIPOS>MOLECULE
HTA
   56    56     1     0     0
SMALL
bcc


@<TRIPOS>ATOM
      1 C1         -2.5090   -0.9560    2.4500 c         1 HTA      0.590100
      2 C2         -1.0630   -1.3730    2.3020 c3        1 HTA     -0.151400
      3 C3         -0.1910   -0.2560    1.7450 c3        1 HTA     -0.126700
      4 C4          0.8340   -0.8490    0.7760 c         1 HTA      0.664100
      5 C5          0.5530    0.4960    2.8420 c3        1 HTA     -0.074400
      6 C6         -0.3730    1.2660    3.7740 c3        1 HTA     -0.067700
      7 C7          0.3980    1.7160    5.0000 c3        1 HTA     -0.095100
      8 C8         -1.0010    2.4570    3.0810 c3        1 HTA     -0.095100
      9 C9          2.3510   -0.4320   -1.1290 c3        1 HTA      0.041700
     10 C10         3.8070   -0.5840   -0.6110 c         1 HTA      0.639100
     11 C11         2.3800    0.5140   -2.3430 c3        1 HTA     -0.038100
     12 C12         1.0320    0.7100   -2.9340 ca        1 HTA     -0.127300
     13 C13         0.3360    1.9090   -2.7260 ca        1 HTA     -0.094500
     14 C14         0.4490   -0.2900   -3.7180 ca        1 HTA     -0.094500
     15 C15        -0.9190    2.1100   -3.2850 ca        1 HTA     -0.176000
     16 C16        -0.8090   -0.1110   -4.2880 ca        1 HTA     -0.176000
     17 C17        -1.4930    1.0910   -4.0700 ca        1 HTA      0.128100
     18 C18         5.3220   -1.8610    0.8480 c3        1 HTA      0.078300
     19 C19        -3.3590    0.3690   -5.3590 c3        1 HTA      0.112700
     20 N1         -3.2870   -1.6860    3.4050 n         1 HTA     -0.352400
     21 N2          1.4630    0.0210   -0.0870 n         1 HTA     -0.553900
     22 O1         -4.6080   -1.6030    3.2280 oh        1 HTA     -0.436100
     23 O2         -3.0090    0.0190    1.8650 o         1 HTA     -0.566100
     24 O3          1.1140   -2.0680    0.7710 o         1 HTA     -0.640100
     25 O4          4.7150    0.1680   -1.0180 o         1 HTA     -0.618100
     26 O5         -2.7400    1.3890   -4.5830 os        1 HTA     -0.324900
     27 H21        -1.0450   -2.2570    1.6040 hc        1 HTA      0.090700
     28 H22        -0.6500   -1.7200    3.2860 hc        1 HTA      0.090700
     29 H3         -0.8480    0.4700    1.1810 hc        1 HTA      0.101700
     30 H51         1.1540   -0.2370    3.4430 hc        1 HTA      0.051200
     31 H52         1.2750    1.2190    2.3770 hc        1 HTA      0.051200
     32 H6         -1.2000    0.5750    4.1050 hc        1 HTA      0.050700
     33 H71        -0.2770    2.2670    5.6970 hc        1 HTA      0.038367
     34 H72         0.8240    0.8360    5.5400 hc        1 HTA      0.038367
     35 H73         1.2360    2.3930    4.7080 hc        1 HTA      0.038367
     36 H81        -0.2170    3.1100    2.6260 hc        1 HTA      0.038367
     37 H82        -1.7010    2.1170    2.2780 hc        1 HTA      0.038367
     38 H83        -1.5820    3.0660    3.8160 hc        1 HTA      0.038367
     39 H9          2.0010   -1.4530   -1.4780 h1        1 HTA      0.083700
     40 H111        2.8310    1.4970   -2.0400 hc        1 HTA      0.076700
     41 H112        3.0740    0.0580   -3.1000 hc        1 HTA      0.076700
     42 H13         0.7920    2.7070   -2.1190 ha        1 HTA      0.133000
     43 H14         0.9920   -1.2330   -3.8890 ha        1 HTA      0.133000
     44 H15        -1.4710    3.0480   -3.1290 ha        1 HTA      0.145500
     45 H16        -1.2490   -0.9100   -4.9000 ha        1 HTA      0.145500
     46 H181        5.2920   -1.7400    1.9650 h1        1 HTA      0.043033
     47 H182        5.6290   -2.9150    0.6110 h1        1 HTA      0.043033
     48 H183        6.0850   -1.1540    0.4250 h1        1 HTA      0.043033
     49 H191       -4.3410    0.8230   -5.6470 h1        1 HTA      0.045367
     50 H192       -2.7500    0.1400   -6.2670 h1        1 HTA      0.045367
     51 H193       -3.5150   -0.5530   -4.7480 h1        1 HTA      0.045367
     52 HN1        -3.0450   -2.6700    3.4350 hn        1 HTA      0.298500
     53 HN2         1.1860    0.9740   -0.1120 hn        1 HTA      0.324500
     54 HN3         3.2710   -2.1610    0.5880 hn        1 HTA      0.338500
     55 HO1        -4.8550   -0.6910    3.4850 ho        1 HTA      0.436000
     56 N3          4.0340   -1.5930    0.2920 n         1 HTA     -0.566900
@<TRIPOS>BOND
     1    1    2 1   
     2    1   20 1   
     3    1   23 2   
     4    2    3 1   
     5    2   27 1   
     6    2   28 1   
     7    3    4 1   
     8    3    5 1   
     9    3   29 1   
    10    4   21 1   
    11    4   24 2   
    12    5    6 1   
    13    5   30 1   
    14    5   31 1   
    15    6    7 1   
    16    6    8 1   
    17    6   32 1   
    18    7   33 1   
    19    7   34 1   
    20    7   35 1   
    21    8   36 1   
    22    8   37 1   
    23    8   38 1   
    24    9   10 1   
    25    9   11 1   
    26    9   21 1   
    27    9   39 1   
    28   10   25 2   
    29   10   56 1   
    30   11   12 1   
    31   11   40 1   
    32   11   41 1   
    33   12   13 ar  
    34   12   14 ar  
    35   13   15 ar  
    36   13   42 1   
    37   14   16 ar  
    38   14   43 1   
    39   15   17 ar  
    40   15   44 1   
    41   16   17 ar  
    42   16   45 1   
    43   17   26 1   
    44   18   46 1   
    45   18   47 1   
    46   18   48 1   
    47   18   56 1   
    48   19   26 1   
    49   19   49 1   
    50   19   50 1   
    51   19   51 1   
    52   20   22 1   
    53   20   52 1   
    54   21   53 1   
    55   22   55 1   
    56   54   56 1   
@<TRIPOS>SUBSTRUCTURE
     1 HTA         1 TEMP              0 ****  ****    0 ROOT
