@<TRIPOS>MOLECULE
HTA
   59    55     1     0     0
SMALL
bcc


@<TRIPOS>ATOM
      1 C1       -205.7270  -96.4670 -129.6660 c         1 HTA      0.556100
      2 C2       -205.0650  -97.5490 -130.4360 c3        1 HTA     -0.190100
      3 C3         66.6390   78.0710  -28.0480 ce        1 HTA     -0.353600
      4 C4         65.3980   77.9710  -28.8170 ce        1 HTA      0.642900
      5 C5         66.9710   79.1260  -27.2970 c2        1 HTA     -0.058000
      6 C6          3.1580   -0.2990   58.7380 c2        1 HTA     -0.166200
      7 C7          4.1720    0.1470   58.0000 c2        1 HTA     -0.226000
      8 C8          3.0650   -0.1420   60.2030 c3        1 HTA     -0.066900
      9 C9         63.2170   70.3580  -30.6670 c2        1 HTA     -0.463300
     10 C10        62.4800   69.8860  -31.6490 c1        1 HTA      0.566600
     11 C11        64.6910   70.4600  -30.7330 c3        1 HTA      0.049100
     12 C12        65.2010   71.8370  -30.4680 ca        1 HTA     -0.058300
     13 C13        66.5180   71.9990  -30.0150 ca        1 HTA     -0.101000
     14 C14        64.4030   72.9670  -30.6870 ca        1 HTA     -0.101000
     15 C15        67.0440   73.2680  -29.7890 ca        1 HTA     -0.139500
     16 C16        64.9060   74.2460  -30.4580 ca        1 HTA     -0.139500
     17 C17        66.2230   74.3800  -30.0120 ca        1 HTA      0.048100
     18 C18        72.4140 -179.9290  307.9460 c2        1 HTA      0.432100
     19 C19        66.5020   76.6750  -30.5530 c3        1 HTA      0.342200
     20 N1       -207.2620  -96.6260 -129.5180 n4        1 HTA     -0.477300
     21 N2         64.2370   78.5080  -28.4420 nh        1 HTA     -0.424100
     22 O1       -207.7980  -95.9160 -128.5010 oh        1 HTA     -0.352300
     23 O2       -205.2790  -95.4780 -129.1210 o         1 HTA     -0.378100
     24 O3         65.3160   77.3110  -29.9860 os        1 HTA     -0.443400
     25 O5         66.7820   75.6260  -29.6890 os        1 HTA     -0.346900
     26 H21      -204.0490  -97.1840 -130.7550 hc        1 HTA      0.129367
     27 H22      -204.9250  -98.4480 -129.7780 hc        1 HTA      0.129367
     28 H3       -205.6430  -97.8440 -131.3470 hc        1 HTA      0.129367
     29 H51        67.9240   79.1460  -26.7390 ha        1 HTA      0.155500
     30 H52        67.2930   77.1780  -28.1260 ha        1 HTA      0.211000
     31 H6         66.3570   80.0340  -27.1950 ha        1 HTA      0.155500
     32 H71         4.2080    0.0120   56.9110 ha        1 HTA      0.110000
     33 H72         2.3080   -0.8270   58.2730 ha        1 HTA      0.117000
     34 H73         5.0330    0.6750   58.4290 ha        1 HTA      0.110000
     35 H81         3.9490    0.3980   60.6210 hc        1 HTA      0.041033
     36 H82         3.0010   -1.1460   60.6940 hc        1 HTA      0.041033
     37 H83         2.1430    0.4330   60.4690 hc        1 HTA      0.041033
     38 H9         71.6400 -179.1300  307.8690 h4        1 HTA      0.085800
     39 H111       65.1320   69.7520  -29.9740 hc        1 HTA      0.065200
     40 H112       62.7290   70.6450  -29.7240 ha        1 HTA      0.182000
     41 H13        67.1490   71.1120  -29.8390 ha        1 HTA      0.155500
     42 H14        65.0720   70.1360  -31.7430 hc        1 HTA      0.065200
     43 H15        68.0770   73.4010  -29.4350 ha        1 HTA      0.146500
     44 H16        63.3670   72.8420  -31.0410 ha        1 HTA      0.155500
     45 H181       73.2780 -181.3180  309.1380 hn        1 HTA      0.342700
     46 H182       72.0310 -180.4170  309.8720 hn        1 HTA      0.342700
     47 H183       73.0380 -180.1400  307.0460 h4        1 HTA      0.085800
     48 H191       66.1430   76.3890  -31.5790 h2        1 HTA      0.119200
     49 H192       64.2790   75.1320  -30.6290 ha        1 HTA      0.146500
     50 H193       67.3720   77.3830  -30.5320 h2        1 HTA      0.119200
     51 HN1      -207.7280  -96.3550 -130.4040 hn        1 HTA      0.482800
     52 HN2        63.4130   78.3980  -29.0020 hn        1 HTA      0.333200
     53 HN3       -14.8270  -52.5830   25.7790 ha        1 HTA      0.000000
     54 HO1      -207.2940  -95.0720 -128.3900 ho        1 HTA      0.488000
     55 N3         72.5830 -180.5900  309.0440 nh        1 HTA     -0.290100
     56 H12      -207.4930  -97.6190 -129.3140 hn        1 HTA      0.482800
     57 H221       64.1630   79.0070  -27.5810 hn        1 HTA      0.333200
     58 H32       -15.4410  -52.3060   25.8430 ha        1 HTA      0.000000
     59 O4         61.7920   69.4750  -32.5270 o         1 HTA     -0.364500
@<TRIPOS>BOND
     1    1    2 1   
     2    1   20 1   
     3    1   23 2   
     4    2   26 1   
     5    2   27 1   
     6    2   28 1   
     7    3    4 1   
     8    3    5 2   
     9    3   30 1   
    10    4   21 2   
    11    4   24 1   
    12    5   29 1   
    13    5   31 1   
    14    6    7 2   
    15    6    8 1   
    16    6   33 1   
    17    7   32 1   
    18    7   34 1   
    19    8   35 1   
    20    8   36 1   
    21    8   37 1   
    22    9   10 2   
    23    9   11 1   
    24    9   40 1   
    25   10   59 2   
    26   11   12 1   
    27   11   39 1   
    28   11   42 1   
    29   12   13 ar  
    30   12   14 ar  
    31   13   15 ar  
    32   13   41 1   
    33   14   16 ar  
    34   14   44 1   
    35   15   17 ar  
    36   15   43 1   
    37   16   17 ar  
    38   16   49 1   
    39   17   25 1   
    40   18   38 1   
    41   18   47 1   
    42   18   55 2   
    43   19   24 1   
    44   19   25 1   
    45   19   48 1   
    46   19   50 1   
    47   20   22 1   
    48   20   51 1   
    49   20   56 1   
    50   21   52 1   
    51   21   57 1   
    52   22   54 1   
    53   45   55 1   
    54   46   55 1   
    55   53   58 1   
@<TRIPOS>SUBSTRUCTURE
     1 HTA         1 TEMP              0 ****  ****    0 ROOT
