@<TRIPOS>MOLECULE
HTB
   69    73     1     0     0
SMALL
bcc


@<TRIPOS>ATOM
      1 CAS        -0.1200    0.0430   -0.0260 c3        1 HTB     -0.134700
      2 CAO         1.3860    0.1020   -0.1330 c3        1 HTB     -0.080400
      3 CAP         2.0020    0.1980    1.2420 c3        1 HTB     -0.080400
      4 CAT         1.5920    1.4850    1.9240 c3        1 HTB     -0.024100
      5 CBB         0.1470    1.8150    1.7950 ca        1 HTB     -0.168600
      6 CBA        -0.6920    1.1400    0.8360 ca        1 HTB      0.446600
      7 NAV        -1.9840    1.4090    0.6800 nb        1 HTB     -0.670000
      8 CBE        -2.5640    2.3790    1.4650 ca        1 HTB      0.408600
      9 CAF        -3.9610    2.6580    1.2980 ca        1 HTB     -0.158300
     10 CAB        -4.5700    3.6270    2.0530 ca        1 HTB     -0.125000
     11 CAD        -3.8290    4.3680    3.0020 ca        1 HTB     -0.123000
     12 CAH        -2.4910    4.1210    3.1860 ca        1 HTB     -0.127000
     13 CBG        -1.8230    3.1180    2.4340 ca        1 HTB     -0.168300
     14 CBC        -0.4240    2.8080    2.5940 ca        1 HTB      0.117600
     15 NAX         0.3600    3.4560    3.5930 nu        1 HTB     -0.714600
     16 CAR         1.0840    4.6240    3.1220 c3        1 HTB      0.170800
     17 CAN         1.9340    5.2630    4.2200 c3        1 HTB     -0.085400
     18 CAL         2.7130    6.4310    3.6530 c3        1 HTB     -0.079400
     19 CAJ         3.5770    7.0720    4.7190 c3        1 HTB     -0.079400
     20 CAK         4.3670    8.2310    4.1480 c3        1 HTB     -0.078400
     21 CAM         5.2380    8.8610    5.2170 c3        1 HTB     -0.109400
     22 CAQ         6.0220   10.0180    4.6100 c3        1 HTB      0.101800
     23 NAW         6.9090   10.6910    5.6030 ny        1 HTB     -0.768000
     24 CAU         7.6860   11.8220    4.9910 c3        1 HTB      0.206000
     25 CAZ         8.5050   12.5040    6.0040 cc        1 HTB     -0.128100
     26 OAY         7.7640   13.0590    7.0800 os        1 HTB     -0.227200
     27 CBF         8.7090   13.7160    7.8730 ca        1 HTB      0.089100
     28 CAG         8.4570   14.4150    9.0490 ca        1 HTB     -0.129000
     29 CAC         9.5650   14.9930    9.6670 ca        1 HTB     -0.069000
     30 CAA        10.8590   14.8710    9.1320 ca        1 HTB     -0.138000
     31 CAE        11.1010   14.1680    7.9560 ca        1 HTB     -0.052000
     32 CBD        10.0160   13.5750    7.3090 ca        1 HTB     -0.142800
     33 CAI         9.8480   12.7850    6.1060 cd        1 HTB     -0.033200
     34 H1         -0.4250   -0.9400    0.4290 hc        1 HTB      0.069700
     35 H2         -0.5680    0.0850   -1.0550 hc        1 HTB      0.069700
     36 H3          1.6930    0.9870   -0.7510 hc        1 HTB      0.046700
     37 H4          1.7540   -0.8180   -0.6570 hc        1 HTB      0.046700
     38 H5          3.1200    0.1610    1.1670 hc        1 HTB      0.045700
     39 H6          1.6790   -0.6800    1.8610 hc        1 HTB      0.045700
     40 H7          1.8700    1.4170    3.0120 hc        1 HTB      0.053700
     41 H8          2.1840    2.3350    1.4840 hc        1 HTB      0.053700
     42 H9         -4.5330    2.0790    0.5550 ha        1 HTB      0.155000
     43 H10        -5.6430    3.8390    1.9280 ha        1 HTB      0.140000
     44 H11        -4.3400    5.1450    3.5900 ha        1 HTB      0.134000
     45 H12        -1.9380    4.7200    3.9240 ha        1 HTB      0.119000
     46 H13        -0.2030    3.6830    4.3930 hn        1 HTB      0.375800
     47 H14         0.3890    5.4110    2.7050 h1        1 HTB      0.038700
     48 H15         1.7580    4.2920    2.2820 h1        1 HTB      0.038700
     49 H16         1.2780    5.6190    5.0580 hc        1 HTB      0.050700
     50 H17         2.6420    4.5050    4.6470 hc        1 HTB      0.050700
     51 H18         3.3590    6.0760    2.8070 hc        1 HTB      0.047200
     52 H19         2.0040    7.1920    3.2330 hc        1 HTB      0.047200
     53 H20         4.2800    6.3070    5.1430 hc        1 HTB      0.049700
     54 H21         2.9300    7.4330    5.5610 hc        1 HTB      0.049700
     55 H22         5.0080    7.8680    3.3010 hc        1 HTB      0.055700
     56 H23         3.6610    8.9980    3.7310 hc        1 HTB      0.055700
     57 H24         4.5910    9.2250    6.0590 hc        1 HTB      0.068200
     58 H25         5.9380    8.0880    5.6320 hc        1 HTB      0.068200
     59 H26         5.3110   10.7930    4.2010 hx        1 HTB      0.105200
     60 H27         6.6690    9.6450    3.7650 hx        1 HTB      0.105200
     61 H28         8.3430   11.4070    4.1730 hx        1 HTB      0.117700
     62 H29         7.4440   14.5120    9.4600 ha        1 HTB      0.164000
     63 H30         9.4220   15.5630   10.6000 ha        1 HTB      0.158000
     64 H31        11.7010   15.3490    9.6590 ha        1 HTB      0.158000
     65 H32        12.1180   14.0810    7.5450 ha        1 HTB      0.157000
     66 H33        10.6470   12.4920    5.4260 ha        1 HTB      0.181000
     67 H34         7.5620   10.0060    6.0020 hn        1 HTB      0.456800
     68 H35         6.9370   12.5400    4.5420 hx        1 HTB      0.117700
     69 HAW2        6.3440   11.0650    6.3780 hn        1 HTB      0.456800
@<TRIPOS>BOND
     1    1    2 1   
     2    1    6 1   
     3    1   34 1   
     4    1   35 1   
     5    2    3 1   
     6    2   36 1   
     7    2   37 1   
     8    3    4 1   
     9    3   38 1   
    10    3   39 1   
    11    4    5 1   
    12    4   40 1   
    13    4   41 1   
    14    5    6 ar  
    15    5   14 ar  
    16    6    7 ar  
    17    7    8 ar  
    18    8    9 ar  
    19    8   13 ar  
    20    9   10 ar  
    21    9   42 1   
    22   10   11 ar  
    23   10   43 1   
    24   11   12 ar  
    25   11   44 1   
    26   12   13 ar  
    27   12   45 1   
    28   13   14 ar  
    29   14   15 1   
    30   15   16 1   
    31   15   46 1   
    32   16   17 1   
    33   16   47 1   
    34   16   48 1   
    35   17   18 1   
    36   17   49 1   
    37   17   50 1   
    38   18   19 1   
    39   18   51 1   
    40   18   52 1   
    41   19   20 1   
    42   19   53 1   
    43   19   54 1   
    44   20   21 1   
    45   20   55 1   
    46   20   56 1   
    47   21   22 1   
    48   21   57 1   
    49   21   58 1   
    50   22   23 1   
    51   22   59 1   
    52   22   60 1   
    53   23   24 1   
    54   23   67 1   
    55   23   69 1   
    56   24   25 1   
    57   24   61 1   
    58   24   68 1   
    59   25   26 1   
    60   25   33 2   
    61   26   27 1   
    62   27   28 ar  
    63   27   32 ar  
    64   28   29 ar  
    65   28   62 1   
    66   29   30 ar  
    67   29   63 1   
    68   30   31 ar  
    69   30   64 1   
    70   31   32 ar  
    71   31   65 1   
    72   32   33 1   
    73   33   66 1   
@<TRIPOS>SUBSTRUCTURE
     1 HTB         1 TEMP              0 ****  ****    0 ROOT
