@<TRIPOS>MOLECULE
HTC
   30    31     1     0     0
SMALL
bcc


@<TRIPOS>ATOM
      1 N1         -0.0280   -0.2140   -0.2380 n4        1 HTC     -0.565300
      2 S13         1.7880   -0.0540    0.0110 sy        1 HTC      1.497200
      3 O17         2.0370   -0.2050    1.3750 o         1 HTC     -0.608300
      4 O16         2.0510    1.2140   -0.4970 o         1 HTC     -0.608300
      5 C15         2.3180   -1.3000   -0.8410 cc        1 HTC     -0.556500
      6 C19         3.0340   -2.3760   -0.1910 cc        1 HTC     -0.041000
      7 C22         3.4760   -3.3120   -1.0870 cd        1 HTC     -0.240100
      8 S20         3.0360   -2.9120   -2.6470 ss        1 HTC      0.207200
      9 C18         2.2580   -1.5330   -2.2230 cd        1 HTC     -0.031700
     10 C21         1.5380   -0.6760   -3.2640 c         1 HTC      0.932200
     11 O24         2.0880   -0.5360   -4.3770 o         1 HTC     -0.780300
     12 O23         0.4170   -0.1970   -2.9220 o         1 HTC     -0.780300
     13 C2         -0.7230   -0.9920    0.7640 ca        1 HTC     -0.093400
     14 C4         -1.2580   -0.3740    1.9180 ca        1 HTC      0.133100
     15 C6         -1.9200   -1.1330    2.8900 ca        1 HTC     -0.176000
     16 C7         -2.0740   -2.5060    2.7190 ca        1 HTC     -0.057600
     17 C5         -1.5660   -3.1200    1.5630 ca        1 HTC     -0.123000
     18 C3         -0.9080   -2.3820    0.5930 ca        1 HTC     -0.107000
     19 O1         -1.1100    0.9940    2.0240 oh        1 HTC     -0.533100
     20 C          -2.8040   -3.3340    3.7810 c         1 HTC      0.909200
     21 O          -2.8890   -4.5750    3.5840 o         1 HTC     -0.806800
     22 O25        -3.2680   -2.7110    4.7730 o         1 HTC     -0.806800
     23 HN1        -0.2050   -0.6310   -1.1790 hn        1 HTC      0.480300
     24 H19         3.1810   -2.4020    0.8950 ha        1 HTC      0.179000
     25 H22         4.0370   -4.2110   -0.8320 h4        1 HTC      0.177000
     26 H6         -2.3310   -0.6640    3.8000 ha        1 HTC      0.174000
     27 H5         -1.7120   -4.2080    1.4520 ha        1 HTC      0.173000
     28 H3         -0.5300   -2.8790   -0.3140 ha        1 HTC      0.133000
     29 HO1        -1.4250    1.2560    2.9020 ho        1 HTC      0.440000
     30 H12        -0.4420    0.7220   -0.2690 hn        1 HTC      0.480300
@<TRIPOS>BOND
     1    1    2 1   
     2    1   13 1   
     3    1   23 1   
     4    1   30 1   
     5    2    3 2   
     6    2    4 2   
     7    2    5 1   
     8    5    6 1   
     9    5    9 2   
    10    6    7 2   
    11    6   24 1   
    12    7    8 1   
    13    7   25 1   
    14    8    9 1   
    15    9   10 1   
    16   10   11 1   
    17   10   12 1   
    18   13   14 ar  
    19   13   18 ar  
    20   14   15 ar  
    21   14   19 1   
    22   15   16 ar  
    23   15   26 1   
    24   16   17 ar  
    25   16   20 1   
    26   17   18 ar  
    27   17   27 1   
    28   18   28 1   
    29   19   29 1   
    30   20   21 1   
    31   20   22 1   
@<TRIPOS>SUBSTRUCTURE
     1 HTC         1 TEMP              0 ****  ****    0 ROOT
