@<TRIPOS>MOLECULE
HTC
   29    30     1     0     0
SMALL
bcc


@<TRIPOS>ATOM
      1 N1         -1.7370    4.1830   74.3780 nh        1 HTC     -0.769500
      2 S13        -3.0760    5.0720   74.2960 sy        1 HTC      1.536200
      3 O17        -3.1160    6.0240   75.3690 o         1 HTC     -0.689300
      4 O16        -4.2370    4.2640   74.2800 o         1 HTC     -0.689300
      5 C15        -2.9480    5.9390   72.8720 cc        1 HTC     -0.427500
      6 C19        -2.9020    7.3770   72.9200 cc        1 HTC     -0.064000
      7 C22        -2.8190    7.9400   71.6730 cd        1 HTC     -0.241100
      8 S20        -2.7990    6.7650   70.4840 ss        1 HTC      0.027200
      9 C18        -2.8890    5.4880   71.5610 cd        1 HTC      0.017300
     10 C21        -2.8780    4.0590   71.0430 c         1 HTC      0.930200
     11 O24        -3.3780    3.8550   69.9050 o         1 HTC     -0.808300
     12 O23        -2.3430    3.1740   71.7640 o         1 HTC     -0.808300
     13 C2         -0.5460    4.4760   75.0710 ca        1 HTC      0.105600
     14 C4         -0.5020    4.6910   76.4730 ca        1 HTC      0.067100
     15 C6          0.7120    4.9510   77.1240 ca        1 HTC     -0.117000
     16 C7          1.9100    4.9820   76.4120 ca        1 HTC     -0.125600
     17 C5          1.8790    4.7600   75.0320 ca        1 HTC     -0.116000
     18 C3          0.6810    4.5160   74.3700 ca        1 HTC     -0.164000
     19 O1         -1.6340    4.5860   77.2650 oh        1 HTC     -0.550100
     20 C           3.2260    5.2550   77.1190 c         1 HTC      0.908200
     21 O           4.2890    5.2540   76.4320 o         1 HTC     -0.844800
     22 O25         3.2080    5.4740   78.3660 o         1 HTC     -0.844800
     23 HN1        -1.6170    3.4430   73.7050 hn        1 HTC      0.492800
     24 H19        -2.9290    7.9210   73.8710 ha        1 HTC      0.164000
     25 H22        -2.7650    9.0040   71.4600 h4        1 HTC      0.147000
     26 H6          0.7270    5.1190   78.2120 ha        1 HTC      0.155000
     27 H5          2.8310    4.7850   74.4780 ha        1 HTC      0.145000
     28 H3          0.6880    4.3380   73.2830 ha        1 HTC      0.127000
     29 HO1        -2.1850    5.3630   77.0710 ho        1 HTC      0.436000
@<TRIPOS>BOND
     1    1    2 1   
     2    1   13 1   
     3    1   23 1   
     4    2    3 2   
     5    2    4 2   
     6    2    5 1   
     7    5    6 1   
     8    5    9 2   
     9    6    7 2   
    10    6   24 1   
    11    7    8 1   
    12    7   25 1   
    13    8    9 1   
    14    9   10 1   
    15   10   11 1   
    16   10   12 1   
    17   13   14 ar  
    18   13   18 ar  
    19   14   15 ar  
    20   14   19 1   
    21   15   16 ar  
    22   15   26 1   
    23   16   17 ar  
    24   16   20 1   
    25   17   18 ar  
    26   17   27 1   
    27   18   28 1   
    28   19   29 1   
    29   20   21 1   
    30   20   22 1   
@<TRIPOS>SUBSTRUCTURE
     1 HTC         1 TEMP              0 ****  ****    0 ROOT
