@<TRIPOS>MOLECULE
HTC
   29    30     1     0     0
SMALL
bcc


@<TRIPOS>ATOM
      1 N1         -0.0560   -0.4460   -0.2170 nh        1 HTC     -0.769500
      2 S13         1.4710    0.0580   -0.1510 sy        1 HTC      1.536200
      3 O17         1.9170    0.1420    1.2110 o         1 HTC     -0.689300
      4 O16         1.6420    1.2890   -0.8270 o         1 HTC     -0.689300
      5 C15         2.3680   -1.1440   -0.8900 cc        1 HTC     -0.427500
      6 C19         3.3640   -1.8530   -0.1300 cc        1 HTC     -0.064000
      7 C22         4.0270   -2.7890   -0.8800 cd        1 HTC     -0.241100
      8 S20         3.4620   -2.8060   -2.4540 ss        1 HTC      0.027200
      9 C18         2.3310   -1.6000   -2.2000 cd        1 HTC      0.017300
     10 C21         1.4220   -1.1630   -3.3370 c         1 HTC      0.930200
     11 O24         1.8820   -1.2480   -4.5080 o         1 HTC     -0.808300
     12 O23         0.2580   -0.7750   -3.0470 o         1 HTC     -0.808300
     13 C2         -0.7880   -1.1200    0.7800 ca        1 HTC      0.105600
     14 C4         -1.0100   -0.5800    2.0730 ca        1 HTC      0.067100
     15 C6         -1.7700   -1.2760    3.0240 ca        1 HTC     -0.117000
     16 C7         -2.3450   -2.5070    2.7140 ca        1 HTC     -0.125600
     17 C5         -2.1410   -3.0430    1.4390 ca        1 HTC     -0.116000
     18 C3         -1.3780   -2.3720    0.4900 ca        1 HTC     -0.164000
     19 O1         -0.5500    0.6780    2.4290 oh        1 HTC     -0.550100
     20 C          -3.1740   -3.2560    3.7420 c         1 HTC      0.908200
     21 O          -3.6920   -4.3610    3.4050 o         1 HTC     -0.844800
     22 O25        -3.3150   -2.7480    4.8920 o         1 HTC     -0.844800
     23 HN1        -0.5000   -0.4990   -1.1200 hn        1 HTC      0.492800
     24 H19         3.5370   -1.6390    0.9310 ha        1 HTC      0.164000
     25 H22         4.8120   -3.4480   -0.5220 h4        1 HTC      0.147000
     26 H6         -1.9280   -0.8430    4.0240 ha        1 HTC      0.155000
     27 H5         -2.6010   -4.0160    1.2030 ha        1 HTC      0.145000
     28 H3         -1.2400   -2.8160   -0.5080 ha        1 HTC      0.127000
     29 HO1         0.4150    0.6070    2.5250 ho        1 HTC      0.436000
@<TRIPOS>BOND
     1    1    2 1   
     2    1   13 1   
     3    1   23 1   
     4    2    3 2   
     5    2    4 2   
     6    2    5 1   
     7    5    6 1   
     8    5    9 2   
     9    6    7 2   
    10    6   24 1   
    11    7    8 1   
    12    7   25 1   
    13    8    9 1   
    14    9   10 1   
    15   10   11 1   
    16   10   12 1   
    17   13   14 ar  
    18   13   18 ar  
    19   14   15 ar  
    20   14   19 1   
    21   15   16 ar  
    22   15   26 1   
    23   16   17 ar  
    24   16   20 1   
    25   17   18 ar  
    26   17   27 1   
    27   18   28 1   
    28   19   29 1   
    29   20   21 1   
    30   20   22 1   
@<TRIPOS>SUBSTRUCTURE
     1 HTC         1 TEMP              0 ****  ****    0 ROOT
