@<TRIPOS>MOLECULE
HTC
   29    24     1     0     0
SMALL
bcc


@<TRIPOS>ATOM
      1 N1         -0.2480    0.1410   -0.5130 n3        1 HTC     -0.808000
      2 S13         1.3150    0.5290   -0.3970 s4        1 HTC      2.079800
      3 O17         2.0260   -0.4180    0.4740 o         1 HTC     -0.571900
      4 O16         1.4920    1.7550    0.3210 o         1 HTC     -0.571900
      5 C15         2.0810    0.6100   -2.0510 c1        1 HTC     -0.467500
      6 C19         2.7380   -0.6180   -2.8370 c1        1 HTC     -0.467500
      7 C22         3.1810   -0.1400   -4.1510 c1        1 HTC     -0.371000
      8 S20         2.8300    1.3770   -4.2500 ss        1 HTC      0.570000
      9 C18         2.1440    1.7900   -2.9060 c1        1 HTC     -0.371000
     10 C21         1.5740    3.1680   -2.5740 c1        1 HTC      0.381000
     11 O24         0.5170    3.5530   -3.1160 o         1 HTC     -0.545500
     12 O23         2.1490    3.9050   -1.6960 o         1 HTC     -0.545500
     13 C2         -0.9330   -0.4610    0.6380 c2        1 HTC     -0.018000
     14 C4         -1.0410    0.2650    1.8500 c2        1 HTC      0.034000
     15 C6         -1.7510   -0.2710    2.9270 c1        1 HTC     -0.126000
     16 C7         -2.3440   -1.5000    2.8110 c1        1 HTC     -0.098000
     17 C5         -2.2380   -2.2230    1.6080 c1        1 HTC     -0.129000
     18 C3         -1.5220   -1.6820    0.5220 c1        1 HTC     -0.159000
     19 O1         -0.4720    1.6380    1.9420 oh        1 HTC     -0.290000
     20 C          -3.1530   -2.0630    3.9630 c2        1 HTC      0.357000
     21 O          -2.7060   -2.9740    4.6260 o         1 HTC     -0.581000
     22 O25        -4.3060   -1.6500    4.1730 o         1 HTC     -0.581000
     23 HN1        -0.6920    0.3100   -1.2520 hn        1 HTC      0.275000
     24 H19         2.8350   -1.5840   -2.4790 DU        1 HTC      0.156500
     25 H22         3.6090   -0.6590   -4.8170 DU        1 HTC      0.156500
     26 H6         -1.8490    0.2370    3.7360 ha        1 HTC      0.157000
     27 H5         -2.6600   -3.0950    1.5230 ha        1 HTC      0.144000
     28 H3         -1.4490   -2.1680   -0.2900 ha        1 HTC      0.142000
     29 HO1        -1.1290    2.2290    2.2170 ho        1 HTC      0.249000
@<TRIPOS>BOND
     1    1    2 1   
     2    1   13 1   
     3    1   23 1   
     4    2    3 1   
     5    2    4 1   
     6    5    6 1   
     7    5    9 1   
     8    6    7 1   
     9    7    8 1   
    10    8    9 1   
    11   10   11 1   
    12   10   12 1   
    13   13   14 1   
    14   13   18 1   
    15   14   15 1   
    16   14   19 1   
    17   15   26 1   
    18   16   17 1   
    19   16   20 1   
    20   17   27 1   
    21   18   28 1   
    22   19   29 1   
    23   20   21 1   
    24   20   22 1   
@<TRIPOS>SUBSTRUCTURE
     1 HTC         1 TEMP              0 ****  ****    0 ROOT
