@<TRIPOS>MOLECULE
HTF
   37    37     1     0     0
SMALL
bcc


@<TRIPOS>ATOM
      1 C8          7.9300   -0.0880    0.2830 c3        1 HTF     -0.093100
      2 C7          6.6480    0.1790   -0.4640 c3        1 HTF     -0.080400
      3 C6          5.4360   -0.1820    0.3680 c3        1 HTF     -0.079400
      4 C5          4.1520    0.0880   -0.3870 c3        1 HTF     -0.078400
      5 C4          2.9400   -0.2740    0.4450 c3        1 HTF     -0.079400
      6 C3          1.6590   -0.0010   -0.3130 c3        1 HTF     -0.074400
      7 C2          0.4500   -0.3660    0.5210 c3        1 HTF     -0.147400
      8 C1         -0.8350   -0.0700   -0.2270 c         1 HTF      0.666100
      9 O1         -0.8590    0.4940   -1.3370 o         1 HTF     -0.594100
     10 N          -2.0140   -0.4900    0.3790 n         1 HTF     -0.566900
     11 CA         -3.3000   -0.1410   -0.1430 c3        1 HTF      0.022700
     12 C          -4.1720    0.6300    0.8530 c         1 HTF      0.685600
     13 O          -3.9320    1.5950    1.5670 o         1 HTF     -0.555500
     14 OD         -5.4460    0.1150    0.9240 os        1 HTF     -0.406900
     15 CG         -5.5690   -1.0350    0.0630 c3        1 HTF      0.119400
     16 CB         -4.1980   -1.3390   -0.5360 c3        1 HTF     -0.130400
     17 H81         7.9700    0.5130    1.2240 hc        1 HTF      0.032700
     18 H82         8.0110   -1.1680    0.5540 hc        1 HTF      0.032700
     19 H83         8.8100    0.1850   -0.3470 hc        1 HTF      0.032700
     20 H72         6.5960    1.2630   -0.7480 hc        1 HTF      0.039200
     21 H73         6.6370   -0.4130   -1.4170 hc        1 HTF      0.039200
     22 H62         5.4850   -1.2660    0.6520 hc        1 HTF      0.039200
     23 H63         5.4440    0.4100    1.3210 hc        1 HTF      0.039200
     24 H52         4.1020    1.1720   -0.6710 hc        1 HTF      0.043200
     25 H53         4.1430   -0.5040   -1.3400 hc        1 HTF      0.043200
     26 H42         2.9890   -1.3580    0.7290 hc        1 HTF      0.038200
     27 H43         2.9490    0.3190    1.3980 hc        1 HTF      0.038200
     28 H32         1.6020    1.0830   -0.5990 hc        1 HTF      0.060700
     29 H33         1.6440   -0.5890   -1.2690 hc        1 HTF      0.060700
     30 H22         0.4880   -1.4540    0.7910 hc        1 HTF      0.067200
     31 H23         0.4520    0.2260    1.4760 hc        1 HTF      0.067200
     32 HN         -1.9800   -0.8590    1.2980 hn        1 HTF      0.314500
     33 HA         -3.1510    0.5240   -1.0500 h1        1 HTF      0.127700
     34 HG2        -6.3260   -0.7710   -0.7180 h1        1 HTF      0.065700
     35 HG3        -5.9530   -1.8660    0.7070 h1        1 HTF      0.065700
     36 HB2        -4.2560   -1.4230   -1.6480 hc        1 HTF      0.072200
     37 HB3        -3.8020   -2.3070   -0.1400 hc        1 HTF      0.072200
@<TRIPOS>BOND
     1    1    2 1   
     2    1   17 1   
     3    1   18 1   
     4    1   19 1   
     5    2    3 1   
     6    2   20 1   
     7    2   21 1   
     8    3    4 1   
     9    3   22 1   
    10    3   23 1   
    11    4    5 1   
    12    4   24 1   
    13    4   25 1   
    14    5    6 1   
    15    5   26 1   
    16    5   27 1   
    17    6    7 1   
    18    6   28 1   
    19    6   29 1   
    20    7    8 1   
    21    7   30 1   
    22    7   31 1   
    23    8    9 2   
    24    8   10 1   
    25   10   11 1   
    26   10   32 1   
    27   11   12 1   
    28   11   16 1   
    29   11   33 1   
    30   12   13 2   
    31   12   14 1   
    32   14   15 1   
    33   15   16 1   
    34   15   34 1   
    35   15   35 1   
    36   16   36 1   
    37   16   37 1   
@<TRIPOS>SUBSTRUCTURE
     1 HTF         1 TEMP              0 ****  ****    0 ROOT
