@<TRIPOS>MOLECULE
HTF
   38    38     1     0     0
SMALL
bcc


@<TRIPOS>ATOM
      1 C8          0.1870   -0.7480    0.0820 c3        1 HTF     -0.095100
      2 C7          1.5560   -0.1200    0.1220 c3        1 HTF     -0.079400
      3 C6          2.2350   -0.3600    1.4540 c3        1 HTF     -0.080400
      4 C5          3.6100    0.2730    1.4880 c3        1 HTF     -0.079400
      5 C4          4.2850    0.0300    2.8220 c3        1 HTF     -0.081400
      6 C3          5.6600    0.6670    2.8490 c3        1 HTF     -0.081400
      7 C2          6.3220    0.4160    4.1930 c3        1 HTF     -0.157400
      8 C1          7.6900    1.0190    4.2200 c         1 HTF      0.567100
      9 O1          8.3370    1.5720    3.3520 o         1 HTF     -0.396100
     10 N           8.4160    0.9270    5.5800 n4        1 HTF     -0.682800
     11 CA          9.4960   -0.1000    5.5610 c3        1 HTF      0.003500
     12 C           8.9570   -1.5120    5.8450 c         1 HTF      0.704600
     13 O           7.9590   -2.0490    5.3910 o         1 HTF     -0.528500
     14 OD          9.7370   -2.1700    6.7420 os        1 HTF     -0.343900
     15 CG         10.8190   -1.3200    7.1980 c3        1 HTF      0.116400
     16 CB         10.5920    0.0840    6.6270 c3        1 HTF     -0.134400
     17 H81        -0.4670   -0.3200    0.8790 hc        1 HTF      0.038700
     18 H82         0.2540   -1.8520    0.2360 hc        1 HTF      0.038700
     19 H83        -0.2950   -0.5590   -0.9080 hc        1 HTF      0.038700
     20 H72         1.4710    0.9840   -0.0610 hc        1 HTF      0.042200
     21 H73         2.1900   -0.5430   -0.7030 hc        1 HTF      0.042200
     22 H62         2.3230   -1.4640    1.6370 hc        1 HTF      0.043700
     23 H63         1.6030    0.0640    2.2780 hc        1 HTF      0.043700
     24 H52         4.2410   -0.1520    0.6630 hc        1 HTF      0.047700
     25 H53         3.5210    1.3760    1.3050 hc        1 HTF      0.047700
     26 H42         3.6530    0.4550    3.6460 hc        1 HTF      0.051200
     27 H43         4.3740   -1.0740    3.0030 hc        1 HTF      0.051200
     28 H32         5.5740    1.7710    2.6670 hc        1 HTF      0.070700
     29 H33         6.2940    0.2400    2.0280 hc        1 HTF      0.070700
     30 H22         6.4140   -0.6960    4.3750 hc        1 HTF      0.119200
     31 H23         5.6930    0.8530    5.0160 hc        1 HTF      0.119200
     32 HN          7.7370    0.7020    6.3130 hn        1 HTF      0.460300
     33 HA          9.9590   -0.0880    4.5270 hx        1 HTF      0.153700
     34 HG2        10.7790   -1.3480    8.3170 h1        1 HTF      0.106200
     35 HG3        11.7690   -1.7850    6.8260 h1        1 HTF      0.106200
     36 HB2        10.2910    0.7910    7.4410 hc        1 HTF      0.097700
     37 HB3        11.5300    0.4770    6.1600 hc        1 HTF      0.097700
     38 H2          8.8430    1.8380    5.7900 hn        1 HTF      0.460300
@<TRIPOS>BOND
     1    1    2 1   
     2    1   17 1   
     3    1   18 1   
     4    1   19 1   
     5    2    3 1   
     6    2   20 1   
     7    2   21 1   
     8    3    4 1   
     9    3   22 1   
    10    3   23 1   
    11    4    5 1   
    12    4   24 1   
    13    4   25 1   
    14    5    6 1   
    15    5   26 1   
    16    5   27 1   
    17    6    7 1   
    18    6   28 1   
    19    6   29 1   
    20    7    8 1   
    21    7   30 1   
    22    7   31 1   
    23    8    9 2   
    24    8   10 1   
    25   10   11 1   
    26   10   32 1   
    27   10   38 1   
    28   11   12 1   
    29   11   16 1   
    30   11   33 1   
    31   12   13 2   
    32   12   14 1   
    33   14   15 1   
    34   15   16 1   
    35   15   34 1   
    36   15   35 1   
    37   16   36 1   
    38   16   37 1   
@<TRIPOS>SUBSTRUCTURE
     1 HTF         1 TEMP              0 ****  ****    0 ROOT
