@<TRIPOS>MOLECULE
HTF
   37    37     1     0     0
SMALL
bcc


@<TRIPOS>ATOM
      1 C8         -5.6060   -1.0890   -3.5180 c3        1 HTF     -0.093100
      2 C7         -4.0930   -1.0870   -3.4980 c3        1 HTF     -0.080400
      3 C6         -3.6060   -0.4090   -2.2360 c3        1 HTF     -0.079400
      4 C5         -2.1130   -0.6100   -2.1000 c3        1 HTF     -0.078400
      5 C4         -1.6240    0.0830   -0.8470 c3        1 HTF     -0.079400
      6 C3         -0.1370   -0.1490   -0.6900 c3        1 HTF     -0.074400
      7 C2          0.3540    0.5500    0.5580 c3        1 HTF     -0.147400
      8 C1          1.8220    0.2470    0.7610 c         1 HTF      0.666100
      9 O1          2.4460   -0.3410   -0.0990 o         1 HTF     -0.594100
     10 N           2.4700    0.6480    1.9580 n         1 HTF     -0.566900
     11 CA          3.8190    0.3670    2.1460 c3        1 HTF      0.022700
     12 C           3.9620   -0.7070    3.1420 c         1 HTF      0.685600
     13 O           3.7770   -1.8920    2.9460 o         1 HTF     -0.555500
     14 OD          4.0960   -0.0580    4.4570 os        1 HTF     -0.406900
     15 CG          4.7440    1.1220    4.2490 c3        1 HTF      0.119400
     16 CB          4.4810    1.5290    2.8220 c3        1 HTF     -0.130400
     17 H81        -5.9420   -1.5650   -2.7300 hc        1 HTF      0.032700
     18 H82        -5.9210   -1.5380   -4.3310 hc        1 HTF      0.032700
     19 H83        -5.9340   -0.1660   -3.5070 hc        1 HTF      0.032700
     20 H72        -3.7570   -0.6020   -4.2790 hc        1 HTF      0.039200
     21 H73        -3.7650   -2.0080   -3.5210 hc        1 HTF      0.039200
     22 H62        -3.8040    0.5480   -2.2840 hc        1 HTF      0.039200
     23 H63        -4.0600   -0.7970   -1.4620 hc        1 HTF      0.039200
     24 H52        -1.6600   -0.2320   -2.8800 hc        1 HTF      0.043200
     25 H53        -1.9170   -1.5660   -2.0410 hc        1 HTF      0.043200
     26 H42        -2.0940   -0.2780   -0.0690 hc        1 HTF      0.038200
     27 H43        -1.7980    1.0430   -0.9170 hc        1 HTF      0.038200
     28 H32         0.0370   -1.1090   -0.6160 hc        1 HTF      0.060700
     29 H33         0.3330    0.2080   -1.4700 hc        1 HTF      0.060700
     30 H22        -0.1550    0.2320    1.3310 hc        1 HTF      0.067200
     31 H23         0.2300    1.5150    0.4620 hc        1 HTF      0.067200
     32 HN          2.0020    1.0900    2.6040 hn        1 HTF      0.314500
     33 HA          4.0960    0.1670    1.2300 h1        1 HTF      0.127700
     34 HG2         4.3980    1.8050    4.8600 h1        1 HTF      0.065700
     35 HG3         5.7060    1.0040    4.3910 h1        1 HTF      0.065700
     36 HB2         3.8900    2.3080    2.8020 hc        1 HTF      0.072200
     37 HB3         5.3250    1.7380    2.3750 hc        1 HTF      0.072200
@<TRIPOS>BOND
     1    1    2 1   
     2    1   17 1   
     3    1   18 1   
     4    1   19 1   
     5    2    3 1   
     6    2   20 1   
     7    2   21 1   
     8    3    4 1   
     9    3   22 1   
    10    3   23 1   
    11    4    5 1   
    12    4   24 1   
    13    4   25 1   
    14    5    6 1   
    15    5   26 1   
    16    5   27 1   
    17    6    7 1   
    18    6   28 1   
    19    6   29 1   
    20    7    8 1   
    21    7   30 1   
    22    7   31 1   
    23    8    9 2   
    24    8   10 1   
    25   10   11 1   
    26   10   32 1   
    27   11   12 1   
    28   11   16 1   
    29   11   33 1   
    30   12   13 2   
    31   12   14 1   
    32   14   15 1   
    33   15   16 1   
    34   15   34 1   
    35   15   35 1   
    36   16   36 1   
    37   16   37 1   
@<TRIPOS>SUBSTRUCTURE
     1 HTF         1 TEMP              0 ****  ****    0 ROOT
