@<TRIPOS>MOLECULE
HTF
   38    38     1     0     0
SMALL
bcc


@<TRIPOS>ATOM
      1 C8          0.1790   -0.7380    0.1030 c3        1 HTF     -0.095100
      2 C7          1.5670   -0.1520    0.1170 c3        1 HTF     -0.079400
      3 C6          2.2360   -0.3490    1.4610 c3        1 HTF     -0.080400
      4 C5          3.6300    0.2420    1.4690 c3        1 HTF     -0.079400
      5 C4          4.2960    0.0430    2.8140 c3        1 HTF     -0.081400
      6 C3          5.6890    0.6380    2.8150 c3        1 HTF     -0.081400
      7 C2          6.3410    0.4300    4.1700 c3        1 HTF     -0.157400
      8 C1          7.7270    0.9930    4.1730 c         1 HTF      0.567100
      9 O1          8.3910    1.4860    3.2820 o         1 HTF     -0.396100
     10 N           8.4480    0.9430    5.5380 n4        1 HTF     -0.682800
     11 CA          9.4980   -0.1140    5.5690 c3        1 HTF      0.003500
     12 C           8.9180   -1.4960    5.9160 c         1 HTF      0.704600
     13 O           7.9050   -2.0240    5.4830 o         1 HTF     -0.528500
     14 OD          9.6770   -2.1340    6.8440 os        1 HTF     -0.343900
     15 CG         10.7830   -1.2960    7.2630 c3        1 HTF      0.116400
     16 CB         10.5970    0.0860    6.6280 c3        1 HTF     -0.134400
     17 H81         0.2100   -1.8350    0.3120 hc        1 HTF      0.038700
     18 H82        -0.4630   -0.2520    0.8770 hc        1 HTF      0.038700
     19 H83        -0.2960   -0.5830   -0.8960 hc        1 HTF      0.038700
     20 H72         2.1880   -0.6350   -0.6840 hc        1 HTF      0.042200
     21 H73         1.5160    0.9440   -0.1200 hc        1 HTF      0.042200
     22 H62         1.6170    0.1340    2.2620 hc        1 HTF      0.043700
     23 H63         2.2890   -1.4440    1.6970 hc        1 HTF      0.043700
     24 H52         3.5760    1.3370    1.2320 hc        1 HTF      0.047700
     25 H53         4.2480   -0.2410    0.6670 hc        1 HTF      0.047700
     26 H42         3.6760    0.5250    3.6150 hc        1 HTF      0.051200
     27 H43         4.3510   -1.0540    3.0480 hc        1 HTF      0.051200
     28 H32         6.3110    0.1540    2.0160 hc        1 HTF      0.070700
     29 H33         5.6370    1.7340    2.5800 hc        1 HTF      0.070700
     30 H22         6.4010   -0.6740    4.4050 hc        1 HTF      0.119200
     31 H23         5.7250    0.9240    4.9710 hc        1 HTF      0.119200
     32 HN          8.9010    1.8500    5.7070 hn        1 HTF      0.460300
     33 HA          9.9630   -0.1630    4.5360 hx        1 HTF      0.153700
     34 HG2        10.7410   -1.2720    8.3830 h1        1 HTF      0.106200
     35 HG3        11.7200   -1.8040    6.9160 h1        1 HTF      0.106200
     36 HB2        10.3160    0.8380    7.4080 hc        1 HTF      0.097700
     37 HB3        11.5470    0.4310    6.1470 hc        1 HTF      0.097700
     38 H2          7.7620    0.7720    6.2790 hn        1 HTF      0.460300
@<TRIPOS>BOND
     1    1    2 1   
     2    1   17 1   
     3    1   18 1   
     4    1   19 1   
     5    2    3 1   
     6    2   20 1   
     7    2   21 1   
     8    3    4 1   
     9    3   22 1   
    10    3   23 1   
    11    4    5 1   
    12    4   24 1   
    13    4   25 1   
    14    5    6 1   
    15    5   26 1   
    16    5   27 1   
    17    6    7 1   
    18    6   28 1   
    19    6   29 1   
    20    7    8 1   
    21    7   30 1   
    22    7   31 1   
    23    8    9 2   
    24    8   10 1   
    25   10   11 1   
    26   10   32 1   
    27   10   38 1   
    28   11   12 1   
    29   11   16 1   
    30   11   33 1   
    31   12   13 2   
    32   12   14 1   
    33   14   15 1   
    34   15   16 1   
    35   15   34 1   
    36   15   35 1   
    37   16   36 1   
    38   16   37 1   
@<TRIPOS>SUBSTRUCTURE
     1 HTF         1 TEMP              0 ****  ****    0 ROOT
