@<TRIPOS>MOLECULE
HTF
   38    38     1     0     0
SMALL
bcc


@<TRIPOS>ATOM
      1 C8          0.2290   -0.6960    0.0150 c3        1 HTF     -0.095100
      2 C7          1.6150   -0.1070    0.0570 c3        1 HTF     -0.079400
      3 C6          2.2660   -0.3230    1.4070 c3        1 HTF     -0.080400
      4 C5          3.6580    0.2710    1.4430 c3        1 HTF     -0.079400
      5 C4          4.3060    0.0520    2.7950 c3        1 HTF     -0.081400
      6 C3          5.6970    0.6500    2.8230 c3        1 HTF     -0.081400
      7 C2          6.3320    0.4230    4.1850 c3        1 HTF     -0.157400
      8 C1          7.7160    0.9870    4.2150 c         1 HTF      0.567100
      9 O1          8.3920    1.4940    3.3410 o         1 HTF     -0.396100
     10 N           8.4190    0.9170    5.5880 ny        1 HTF     -0.682800
     11 CA          9.4690   -0.1390    5.6190 c3        1 HTF      0.003500
     12 C           8.8860   -1.5270    5.9370 c         1 HTF      0.704600
     13 O           7.8800   -2.0490    5.4830 o         1 HTF     -0.528500
     14 OD          9.6330   -2.1780    6.8660 os        1 HTF     -0.343900
     15 CG         10.7330   -1.3450    7.3120 c3        1 HTF      0.116400
     16 CB         10.5540    0.0460    6.6950 c3        1 HTF     -0.134400
     17 H81         0.2600   -1.7960    0.2070 hc        1 HTF      0.038700
     18 H82        -0.2320   -0.5260   -0.9880 hc        1 HTF      0.038700
     19 H83        -0.4250   -0.2240    0.7880 hc        1 HTF      0.038700
     20 H72         2.2480   -0.5760   -0.7430 hc        1 HTF      0.042200
     21 H73         1.5650    0.9920   -0.1630 hc        1 HTF      0.042200
     22 H62         1.6340    0.1460    2.2070 hc        1 HTF      0.043700
     23 H63         2.3180   -1.4220    1.6270 hc        1 HTF      0.043700
     24 H52         4.2890   -0.1990    0.6420 hc        1 HTF      0.047700
     25 H53         3.6050    1.3700    1.2230 hc        1 HTF      0.047700
     26 H42         3.6740    0.5220    3.5950 hc        1 HTF      0.051200
     27 H43         4.3600   -1.0480    3.0120 hc        1 HTF      0.051200
     28 H32         5.6470    1.7490    2.6050 hc        1 HTF      0.070700
     29 H33         6.3320    0.1790    2.0260 hc        1 HTF      0.070700
     30 H22         5.7040    0.9030    4.9840 hc        1 HTF      0.119200
     31 H23         6.3890   -0.6850    4.4040 hc        1 HTF      0.119200
     32 HN          8.8690    1.8220    5.7770 hn        1 HTF      0.460300
     33 HA          9.9480   -0.1730    4.5910 hx        1 HTF      0.153700
     34 HG2        10.6750   -1.3370    8.4310 h1        1 HTF      0.106200
     35 HG3        11.6740   -1.8470    6.9700 h1        1 HTF      0.106200
     36 HB2        11.5100    0.3980    6.2310 hc        1 HTF      0.097700
     37 HB3        10.2620    0.7860    7.4820 hc        1 HTF      0.097700
     38 H2          7.7230    0.7350    6.3180 hn        1 HTF      0.460300
@<TRIPOS>BOND
     1    1    2 1   
     2    1   17 1   
     3    1   18 1   
     4    1   19 1   
     5    2    3 1   
     6    2   20 1   
     7    2   21 1   
     8    3    4 1   
     9    3   22 1   
    10    3   23 1   
    11    4    5 1   
    12    4   24 1   
    13    4   25 1   
    14    5    6 1   
    15    5   26 1   
    16    5   27 1   
    17    6    7 1   
    18    6   28 1   
    19    6   29 1   
    20    7    8 1   
    21    7   30 1   
    22    7   31 1   
    23    8    9 2   
    24    8   10 1   
    25   10   11 1   
    26   10   32 1   
    27   10   38 1   
    28   11   12 1   
    29   11   16 1   
    30   11   33 1   
    31   12   13 2   
    32   12   14 1   
    33   14   15 1   
    34   15   16 1   
    35   15   34 1   
    36   15   35 1   
    37   16   36 1   
    38   16   37 1   
@<TRIPOS>SUBSTRUCTURE
     1 HTF         1 TEMP              0 ****  ****    0 ROOT
