@<TRIPOS>MOLECULE
HTG
   45    45     1     0     0
SMALL
bcc


@<TRIPOS>ATOM
      1 C1          1.7170    0.4900    1.5750 c3        1 HTG      0.214200
      2 S1          1.2060    0.6530   -0.0740 ss        1 HTG     -0.242200
      3 C2          3.2070    0.2370    1.6030 c3        1 HTG      0.138100
      4 O2          3.4740   -1.0530    1.0160 oh        1 HTG     -0.585800
      5 C3          3.7560    0.2600    2.9810 c3        1 HTG      0.068100
      6 O3          5.1990    0.1940    2.9080 oh        1 HTG     -0.603800
      7 C4          3.3650    1.4990    3.7270 c3        1 HTG      0.087100
      8 O4          3.7730    1.3630    5.0920 oh        1 HTG     -0.592800
      9 C5          1.8690    1.7490    3.6870 c3        1 HTG      0.094100
     10 O5          1.3320    1.7200    2.3250 os        1 HTG     -0.418600
     11 C6          1.5870    3.0890    4.2890 c3        1 HTG      0.141400
     12 O6          0.1940    3.2470    4.4530 oh        1 HTG     -0.594800
     13 C1'        -0.3170   -0.2600   -0.3170 c3        1 HTG     -0.014300
     14 C2'        -0.7530   -0.1450   -1.7710 c3        1 HTG     -0.072400
     15 C3'        -2.0600   -0.9790   -1.9920 c3        1 HTG     -0.076400
     16 C4'        -2.4700   -0.9010   -3.4620 c3        1 HTG     -0.079400
     17 C5'        -3.7330   -1.7370   -3.6870 c3        1 HTG     -0.079400
     18 C6'        -4.0800   -1.7400   -5.1560 c3        1 HTG     -0.080400
     19 C7'        -5.3630   -2.5360   -5.3760 c3        1 HTG     -0.093100
     20 H1          1.2570   -0.2820    1.9740 h2        1 HTG      0.075700
     21 H2          3.6560    0.9270    1.0720 h1        1 HTG      0.074700
     22 HO2         4.1920   -1.0010    0.5090 ho        1 HTG      0.421000
     23 H3          3.4220   -0.5300    3.4720 h1        1 HTG      0.066700
     24 HO3         5.4980   -0.4210    3.4830 ho        1 HTG      0.410000
     25 H4          3.8280    2.2710    3.3300 h1        1 HTG      0.065700
     26 HO4         4.5730    1.6990    5.1910 ho        1 HTG      0.407000
     27 H5          1.4140    1.0540    4.2250 h1        1 HTG      0.068700
     28 H61         2.0280    3.1550    5.1620 h1        1 HTG      0.061700
     29 H62         1.9270    3.7900    3.6970 h1        1 HTG      0.061700
     30 HO6         0.0370    3.8440    5.0950 ho        1 HTG      0.410000
     31 H1'1       -0.1720   -1.1960   -0.0960 h1        1 HTG      0.065200
     32 H1'2       -1.0080    0.1050    0.2580 h1        1 HTG      0.065200
     33 H2'1       -0.9260    0.7990   -1.9870 hc        1 HTG      0.056200
     34 H2'2       -0.0440   -0.4890   -2.3520 hc        1 HTG      0.056200
     35 H3'1       -2.7800   -0.6160   -1.4310 hc        1 HTG      0.041700
     36 H3'2       -1.8960   -1.9140   -1.7480 hc        1 HTG      0.041700
     37 H4'1       -2.6490    0.0270   -3.7000 hc        1 HTG      0.041700
     38 H4'2       -1.7410   -1.2490   -4.0240 hc        1 HTG      0.041700
     39 H5'1       -3.5730   -2.6620   -3.3850 hc        1 HTG      0.039700
     40 H5'2       -4.4760   -1.3520   -3.1770 hc        1 HTG      0.039700
     41 H6'1       -4.2090   -0.8290   -5.4600 hc        1 HTG      0.038700
     42 H6'2       -3.3510   -2.1510   -5.6610 hc        1 HTG      0.038700
     43 H7'1       -5.2270   -3.4700   -5.0780 hc        1 HTG      0.032700
     44 H7'2       -5.5940   -2.5270   -6.3280 hc        1 HTG      0.032700
     45 H7'3       -6.0890   -2.1330   -4.8610 hc        1 HTG      0.032700
@<TRIPOS>BOND
     1    1    2 1   
     2    1    3 1   
     3    1   10 1   
     4    1   20 1   
     5    2   13 1   
     6    3    4 1   
     7    3    5 1   
     8    3   21 1   
     9    4   22 1   
    10    5    6 1   
    11    5    7 1   
    12    5   23 1   
    13    6   24 1   
    14    7    8 1   
    15    7    9 1   
    16    7   25 1   
    17    8   26 1   
    18    9   10 1   
    19    9   11 1   
    20    9   27 1   
    21   11   12 1   
    22   11   28 1   
    23   11   29 1   
    24   12   30 1   
    25   13   14 1   
    26   13   31 1   
    27   13   32 1   
    28   14   15 1   
    29   14   33 1   
    30   14   34 1   
    31   15   16 1   
    32   15   35 1   
    33   15   36 1   
    34   16   17 1   
    35   16   37 1   
    36   16   38 1   
    37   17   18 1   
    38   17   39 1   
    39   17   40 1   
    40   18   19 1   
    41   18   41 1   
    42   18   42 1   
    43   19   43 1   
    44   19   44 1   
    45   19   45 1   
@<TRIPOS>SUBSTRUCTURE
     1 HTG         1 TEMP              0 ****  ****    0 ROOT
