@<TRIPOS>MOLECULE
HTG
   45    45     1     0     0
SMALL
bcc


@<TRIPOS>ATOM
      1 C1         -0.1190   -0.0720    0.1660 c3        1 HTG      0.184200
      2 S1         -0.7680    0.0290   -1.4910 ss        1 HTG     -0.295200
      3 C2          1.4100   -0.1100    0.0760 c3        1 HTG      0.092100
      4 O2          1.8760   -1.3650   -0.3950 oh        1 HTG     -0.604800
      5 C3          2.0240    0.0540    1.4770 c3        1 HTG      0.111100
      6 O3          3.4240    0.2610    1.3910 oh        1 HTG     -0.606800
      7 C4          1.4410    1.2970    2.1690 c3        1 HTG      0.121100
      8 O4          1.8830    1.3700    3.5120 oh        1 HTG     -0.595800
      9 C5         -0.0920    1.1880    2.1900 c3        1 HTG      0.131100
     10 O5         -0.5730    1.0880    0.8460 os        1 HTG     -0.394600
     11 C6         -0.7250    2.4510    2.7760 c3        1 HTG      0.136400
     12 O6         -1.9860    2.0720    3.3030 oh        1 HTG     -0.599800
     13 C1'        -2.4880   -0.3270   -1.2460 c3        1 HTG     -0.001300
     14 C2'        -3.1700   -0.1730   -2.5800 c3        1 HTG     -0.072400
     15 C3'        -4.6480   -0.4910   -2.4690 c3        1 HTG     -0.077400
     16 C4'        -5.3400   -0.3340   -3.8060 c3        1 HTG     -0.079400
     17 C5'        -6.8170   -0.6490   -3.6990 c3        1 HTG     -0.079400
     18 C6'        -7.5110   -0.4930   -5.0350 c3        1 HTG     -0.080400
     19 C7'        -8.9820   -0.8060   -4.9330 c3        1 HTG     -0.093100
     20 H1         -0.5000   -0.9920    0.6840 h2        1 HTG      0.071700
     21 H2          1.7770    0.7130   -0.6000 h1        1 HTG      0.074700
     22 HO2         1.4530   -1.5180   -1.2520 ho        1 HTG      0.424000
     23 H3          1.8170   -0.8660    2.0910 h1        1 HTG      0.064700
     24 HO3         3.7840   -0.4900    0.9010 ho        1 HTG      0.427000
     25 H4          1.7600    2.2220    1.6120 h1        1 HTG      0.062700
     26 HO4         2.8490    1.3180    3.4840 ho        1 HTG      0.424000
     27 H5         -0.4110    0.2860    2.7810 h1        1 HTG      0.076700
     28 H61        -0.0670    2.8410    3.6000 h1        1 HTG      0.048200
     29 H62        -0.8500    3.2300    1.9780 h1        1 HTG      0.048200
     30 HO6        -2.4250    2.8870    3.5720 ho        1 HTG      0.403000
     31 H1'1       -2.6120   -1.3650   -0.8520 h1        1 HTG      0.071700
     32 H1'2       -2.9160    0.3800   -0.4930 h1        1 HTG      0.071700
     33 H2'1       -2.6960   -0.8590   -3.3330 hc        1 HTG      0.055200
     34 H2'2       -3.0390    0.8770   -2.9550 hc        1 HTG      0.055200
     35 H3'1       -4.7810   -1.5400   -2.0970 hc        1 HTG      0.042700
     36 H3'2       -5.1230    0.1920   -1.7160 hc        1 HTG      0.042700
     37 H4'1       -5.2060    0.7160   -4.1780 hc        1 HTG      0.041200
     38 H4'2       -4.8630   -1.0150   -4.5590 hc        1 HTG      0.041200
     39 H5'1       -6.9510   -1.6990   -3.3260 hc        1 HTG      0.040200
     40 H5'2       -7.2940    0.0320   -2.9460 hc        1 HTG      0.040200
     41 H6'1       -7.3740    0.5570   -5.4070 hc        1 HTG      0.038700
     42 H6'2       -7.0320   -1.1740   -5.7870 hc        1 HTG      0.038700
     43 H7'1       -9.4740   -0.6850   -5.9280 hc        1 HTG      0.032700
     44 H7'2       -9.1390   -1.8570   -4.5880 hc        1 HTG      0.032700
     45 H7'3       -9.4820   -0.1210   -4.2070 hc        1 HTG      0.032700
@<TRIPOS>BOND
     1    1    2 1   
     2    1    3 1   
     3    1   10 1   
     4    1   20 1   
     5    2   13 1   
     6    3    4 1   
     7    3    5 1   
     8    3   21 1   
     9    4   22 1   
    10    5    6 1   
    11    5    7 1   
    12    5   23 1   
    13    6   24 1   
    14    7    8 1   
    15    7    9 1   
    16    7   25 1   
    17    8   26 1   
    18    9   10 1   
    19    9   11 1   
    20    9   27 1   
    21   11   12 1   
    22   11   28 1   
    23   11   29 1   
    24   12   30 1   
    25   13   14 1   
    26   13   31 1   
    27   13   32 1   
    28   14   15 1   
    29   14   33 1   
    30   14   34 1   
    31   15   16 1   
    32   15   35 1   
    33   15   36 1   
    34   16   17 1   
    35   16   37 1   
    36   16   38 1   
    37   17   18 1   
    38   17   39 1   
    39   17   40 1   
    40   18   19 1   
    41   18   41 1   
    42   18   42 1   
    43   19   43 1   
    44   19   44 1   
    45   19   45 1   
@<TRIPOS>SUBSTRUCTURE
     1 HTG         1 TEMP              0 ****  ****    0 ROOT
