@<TRIPOS>MOLECULE
HTG
   45    45     1     0     0
SMALL
bcc


@<TRIPOS>ATOM
      1 C1         -0.1180   -0.0680    0.1670 c3        1 HTG      0.184200
      2 S1         -0.7670    0.0300   -1.4900 ss        1 HTG     -0.295200
      3 C2          1.4110   -0.1030    0.0790 c3        1 HTG      0.092100
      4 O2          1.8790   -1.3570   -0.3900 oh        1 HTG     -0.604800
      5 C3          2.0230    0.0650    1.4800 c3        1 HTG      0.111100
      6 O3          3.4220    0.2730    1.3950 oh        1 HTG     -0.606800
      7 C4          1.4370    1.3080    2.1700 c3        1 HTG      0.121100
      8 O4          1.8790    1.3830    3.5130 oh        1 HTG     -0.595800
      9 C5         -0.0960    1.1960    2.1900 c3        1 HTG      0.131100
     10 O5         -0.5760    1.0930    0.8450 os        1 HTG     -0.394600
     11 C6         -0.7310    2.4590    2.7730 c3        1 HTG      0.136400
     12 O6         -1.9920    2.0790    3.3000 oh        1 HTG     -0.599800
     13 C1'        -2.4860   -0.3290   -1.2450 c3        1 HTG     -0.001300
     14 C2'        -3.1690   -0.1760   -2.5800 c3        1 HTG     -0.072400
     15 C3'        -4.6460   -0.4980   -2.4700 c3        1 HTG     -0.077400
     16 C4'        -5.3380   -0.3400   -3.8060 c3        1 HTG     -0.079400
     17 C5'        -6.8130   -0.6610   -3.7000 c3        1 HTG     -0.079400
     18 C6'        -7.5080   -0.5040   -5.0360 c3        1 HTG     -0.080400
     19 C7'        -8.9780   -0.8230   -4.9350 c3        1 HTG     -0.093100
     20 H1         -0.4990   -0.9870    0.6870 h2        1 HTG      0.071700
     21 H2          1.7760    0.7200   -0.5980 h1        1 HTG      0.074700
     22 HO2         1.4570   -1.5130   -1.2470 ho        1 HTG      0.424000
     23 H3          1.8170   -0.8550    2.0950 h1        1 HTG      0.064700
     24 HO3         3.7840   -0.4780    0.9060 ho        1 HTG      0.427000
     25 H4          1.7550    2.2320    1.6120 h1        1 HTG      0.062700
     26 HO4         2.8440    1.3320    3.4860 ho        1 HTG      0.424000
     27 H5         -0.4140    0.2940    2.7810 h1        1 HTG      0.076700
     28 H61        -0.8560    3.2360    1.9730 h1        1 HTG      0.048200
     29 H62        -0.0750    2.8510    3.5970 h1        1 HTG      0.048200
     30 HO6        -2.4330    2.8930    3.5670 ho        1 HTG      0.403000
     31 H1'1       -2.6090   -1.3670   -0.8530 h1        1 HTG      0.071700
     32 H1'2       -2.9160    0.3770   -0.4930 h1        1 HTG      0.071700
     33 H2'1       -3.0410    0.8750   -2.9530 hc        1 HTG      0.055200
     34 H2'2       -2.6920   -0.8590   -3.3330 hc        1 HTG      0.055200
     35 H3'1       -4.7760   -1.5490   -2.0990 hc        1 HTG      0.042700
     36 H3'2       -5.1230    0.1810   -1.7150 hc        1 HTG      0.042700
     37 H4'1       -4.8590   -1.0180   -4.5610 hc        1 HTG      0.041200
     38 H4'2       -5.2070    0.7110   -4.1760 hc        1 HTG      0.041200
     39 H5'1       -6.9440   -1.7120   -3.3300 hc        1 HTG      0.040200
     40 H5'2       -7.2930    0.0160   -2.9450 hc        1 HTG      0.040200
     41 H6'1       -7.3750    0.5470   -5.4050 hc        1 HTG      0.038700
     42 H6'2       -7.0260   -1.1810   -5.7900 hc        1 HTG      0.038700
     43 H7'1       -9.4800   -0.1420   -4.2070 hc        1 HTG      0.032700
     44 H7'2       -9.4700   -0.7010   -5.9300 hc        1 HTG      0.032700
     45 H7'3       -9.1300   -1.8750   -4.5930 hc        1 HTG      0.032700
@<TRIPOS>BOND
     1    1    2 1   
     2    1    3 1   
     3    1   10 1   
     4    1   20 1   
     5    2   13 1   
     6    3    4 1   
     7    3    5 1   
     8    3   21 1   
     9    4   22 1   
    10    5    6 1   
    11    5    7 1   
    12    5   23 1   
    13    6   24 1   
    14    7    8 1   
    15    7    9 1   
    16    7   25 1   
    17    8   26 1   
    18    9   10 1   
    19    9   11 1   
    20    9   27 1   
    21   11   12 1   
    22   11   28 1   
    23   11   29 1   
    24   12   30 1   
    25   13   14 1   
    26   13   31 1   
    27   13   32 1   
    28   14   15 1   
    29   14   33 1   
    30   14   34 1   
    31   15   16 1   
    32   15   35 1   
    33   15   36 1   
    34   16   17 1   
    35   16   37 1   
    36   16   38 1   
    37   17   18 1   
    38   17   39 1   
    39   17   40 1   
    40   18   19 1   
    41   18   41 1   
    42   18   42 1   
    43   19   43 1   
    44   19   44 1   
    45   19   45 1   
@<TRIPOS>SUBSTRUCTURE
     1 HTG         1 TEMP              0 ****  ****    0 ROOT
