@<TRIPOS>MOLECULE
HTG
   45    45     1     0     0
SMALL
bcc


@<TRIPOS>ATOM
      1 C1         -1.4550    0.4090    0.2340 c3        1 HTG      0.184200
      2 S1          0.0080    1.0450   -0.5590 ss        1 HTG     -0.286200
      3 C2         -2.6040    1.3900   -0.0200 c3        1 HTG      0.094100
      4 O2         -2.4520    2.5790    0.7390 oh        1 HTG     -0.603800
      5 C3         -3.9340    0.7730    0.4450 c3        1 HTG      0.110100
      6 O3         -5.0300    1.5640    0.0210 oh        1 HTG     -0.605800
      7 C4         -4.1240   -0.6130   -0.1910 c3        1 HTG      0.125100
      8 O4         -5.2550   -1.2600    0.3640 oh        1 HTG     -0.594800
      9 C5         -2.9020   -1.4890    0.1200 c3        1 HTG      0.091100
     10 O5         -1.7110   -0.8570   -0.3570 os        1 HTG     -0.408600
     11 C6         -2.9860   -2.8280   -0.6180 c3        1 HTG      0.141400
     12 O6         -1.9150   -3.6740   -0.2650 oh        1 HTG     -0.594800
     13 C1'         1.3030    0.1610    0.2680 c3        1 HTG     -0.003300
     14 C2'         2.6060    0.6120   -0.3400 c3        1 HTG     -0.073400
     15 C3'         3.7790   -0.0860    0.3200 c3        1 HTG     -0.076400
     16 C4'         5.0900    0.3620   -0.2890 c3        1 HTG     -0.079400
     17 C5'         6.2640   -0.3330    0.3670 c3        1 HTG     -0.079400
     18 C6'         7.5770    0.1120   -0.2400 c3        1 HTG     -0.080400
     19 C7'         8.7480   -0.5770    0.4100 c3        1 HTG     -0.093100
     20 H1         -1.2880    0.2850    1.3370 h2        1 HTG      0.070700
     21 H2         -2.6620    1.6400   -1.1170 h1        1 HTG      0.074700
     22 HO2        -1.5990    2.9620    0.4930 ho        1 HTG      0.424000
     23 H3         -3.9400    0.6920    1.5680 h1        1 HTG      0.064700
     24 HO3        -4.8810    2.4530    0.3700 ho        1 HTG      0.427000
     25 H4         -4.2540   -0.5010   -1.3030 h1        1 HTG      0.063700
     26 HO4        -6.0000   -0.6550    0.2440 ho        1 HTG      0.425000
     27 H5         -2.8200   -1.6600    1.2280 h1        1 HTG      0.068700
     28 H61        -3.9170   -3.3660   -0.2930 h1        1 HTG      0.065200
     29 H62        -3.0020   -2.6540   -1.7260 h1        1 HTG      0.065200
     30 HO6        -1.1010   -3.2230   -0.5270 ho        1 HTG      0.408000
     31 H1'1        1.1600   -0.9380    0.1320 h1        1 HTG      0.067700
     32 H1'2        1.2800    0.3780    1.3630 h1        1 HTG      0.067700
     33 H2'1        2.7170    1.7230   -0.2230 hc        1 HTG      0.056700
     34 H2'2        2.6080    0.3900   -1.4410 hc        1 HTG      0.056700
     35 H3'1        3.6690   -1.1960    0.2040 hc        1 HTG      0.042700
     36 H3'2        3.7790    0.1360    1.4190 hc        1 HTG      0.042700
     37 H4'1        5.1990    1.4720   -0.1750 hc        1 HTG      0.041700
     38 H4'2        5.0890    0.1410   -1.3890 hc        1 HTG      0.041700
     39 H5'1        6.1550   -1.4440    0.2530 hc        1 HTG      0.040200
     40 H5'2        6.2650   -0.1130    1.4670 hc        1 HTG      0.040200
     41 H6'1        7.6830    1.2240   -0.1260 hc        1 HTG      0.039200
     42 H6'2        7.5730   -0.1080   -1.3400 hc        1 HTG      0.039200
     43 H7'1        8.7830   -0.3490    1.5030 hc        1 HTG      0.033367
     44 H7'2        8.6730   -1.6840    0.2860 hc        1 HTG      0.033367
     45 H7'3        9.7060   -0.2340   -0.0520 hc        1 HTG      0.033367
@<TRIPOS>BOND
     1    1    2 1   
     2    1    3 1   
     3    1   10 1   
     4    1   20 1   
     5    2   13 1   
     6    3    4 1   
     7    3    5 1   
     8    3   21 1   
     9    4   22 1   
    10    5    6 1   
    11    5    7 1   
    12    5   23 1   
    13    6   24 1   
    14    7    8 1   
    15    7    9 1   
    16    7   25 1   
    17    8   26 1   
    18    9   10 1   
    19    9   11 1   
    20    9   27 1   
    21   11   12 1   
    22   11   28 1   
    23   11   29 1   
    24   12   30 1   
    25   13   14 1   
    26   13   31 1   
    27   13   32 1   
    28   14   15 1   
    29   14   33 1   
    30   14   34 1   
    31   15   16 1   
    32   15   35 1   
    33   15   36 1   
    34   16   17 1   
    35   16   37 1   
    36   16   38 1   
    37   17   18 1   
    38   17   39 1   
    39   17   40 1   
    40   18   19 1   
    41   18   41 1   
    42   18   42 1   
    43   19   43 1   
    44   19   44 1   
    45   19   45 1   
@<TRIPOS>SUBSTRUCTURE
     1 HTG         1 TEMP              0 ****  ****    0 ROOT
