@<TRIPOS>MOLECULE
HTH
   26    25     1     0     0
SMALL
bcc


@<TRIPOS>ATOM
      1 C1          0.0040   -0.0680    0.0300 c3        1 HTH      0.095400
      2 O1         -0.3380   -1.2210    0.7860 oh        1 HTH     -0.618800
      3 C2          1.5340   -0.0060    0.0120 c3        1 HTH      0.147100
      4 O2          2.0530    0.1090    1.3290 oh        1 HTH     -0.607800
      5 C3          2.0110    1.2400   -0.7580 c3        1 HTH      0.143100
      6 O3          1.3630    1.1860   -2.0250 oh        1 HTH     -0.610800
      7 C4          3.5290    1.2370   -0.8890 c3        1 HTH     -0.118400
      8 C5          4.0640    2.5910   -1.3000 c3        1 HTH     -0.080400
      9 C6          5.5730    2.5680   -1.4230 c3        1 HTH     -0.079400
     10 C7          6.1140    3.9140   -1.8300 c3        1 HTH     -0.093100
     11 H1         -0.4170    0.8490    0.5220 h1        1 HTH      0.045200
     12 H1A        -0.3860   -0.1490   -1.0180 h1        1 HTH      0.045200
     13 HO1        -1.2990   -1.2850    0.7740 ho        1 HTH      0.408000
     14 H2          1.9410   -0.9370   -0.4720 h1        1 HTH      0.056700
     15 HO2         1.6360   -0.5930    1.8470 ho        1 HTH      0.424000
     16 H3          1.6710    2.1650   -0.2130 h1        1 HTH      0.049700
     17 HO3         1.8160    1.8170   -2.5970 ho        1 HTH      0.408000
     18 H4          3.9660    0.9440    0.1030 hc        1 HTH      0.064200
     19 H4A         3.8330    0.4610   -1.6390 hc        1 HTH      0.064200
     20 H5          3.7610    3.3610   -0.5410 hc        1 HTH      0.037200
     21 H5A         3.6160    2.9000   -2.2810 hc        1 HTH      0.037200
     22 H6          6.0210    2.2620   -0.4410 hc        1 HTH      0.041700
     23 H6A         5.8740    1.7960   -2.1790 hc        1 HTH      0.041700
     24 H7          5.8440    4.6930   -1.0770 hc        1 HTH      0.033367
     25 H7A         7.2270    3.8750   -1.9130 hc        1 HTH      0.033367
     26 H7B         5.6970    4.2250   -2.8190 hc        1 HTH      0.033367
@<TRIPOS>BOND
     1    1    2 1   
     2    1    3 1   
     3    1   11 1   
     4    1   12 1   
     5    2   13 1   
     6    3    4 1   
     7    3    5 1   
     8    3   14 1   
     9    4   15 1   
    10    5    6 1   
    11    5    7 1   
    12    5   16 1   
    13    6   17 1   
    14    7    8 1   
    15    7   18 1   
    16    7   19 1   
    17    8    9 1   
    18    8   20 1   
    19    8   21 1   
    20    9   10 1   
    21    9   22 1   
    22    9   23 1   
    23   10   24 1   
    24   10   25 1   
    25   10   26 1   
@<TRIPOS>SUBSTRUCTURE
     1 HTH         1 TEMP              0 ****  ****    0 ROOT
