@<TRIPOS>MOLECULE
HTH
   26    25     1     0     0
SMALL
bcc


@<TRIPOS>ATOM
      1 C1         -2.9300   -1.3760    0.8090 c3        1 HTH      0.095400
      2 O1         -3.4010   -2.4310    1.6170 oh        1 HTH     -0.618800
      3 C2         -1.4180   -1.3760    0.8090 c3        1 HTH      0.147100
      4 O2         -0.9490   -1.3760    2.1360 oh        1 HTH     -0.607800
      5 C3         -0.9150   -0.1420    0.0960 c3        1 HTH      0.143100
      6 O3         -1.6050    0.0120   -1.1210 oh        1 HTH     -0.610800
      7 C4          0.5650   -0.2870   -0.1780 c3        1 HTH     -0.118400
      8 C5          1.1520    1.0680   -0.5090 c3        1 HTH     -0.080400
      9 C6          2.6230    0.9150   -0.8310 c3        1 HTH     -0.079400
     10 C7          3.2210    2.2760   -1.1100 c3        1 HTH     -0.093100
     11 H1         -3.2560   -0.5260    1.1620 h1        1 HTH      0.045200
     12 H1A        -3.2560   -1.4950   -0.1040 h1        1 HTH      0.045200
     13 HO1        -4.2840   -2.4850    1.5490 ho        1 HTH      0.408000
     14 H2         -1.0930   -2.1730    0.3490 h1        1 HTH      0.056700
     15 HO2        -0.7390   -2.2040    2.3760 ho        1 HTH      0.424000
     16 H3         -1.0660    0.6430    0.6580 h1        1 HTH      0.049700
     17 HO3        -1.9490    0.8290   -1.1650 ho        1 HTH      0.408000
     18 H4          0.6980   -0.8920   -0.9320 hc        1 HTH      0.064200
     19 H4A         1.0090   -0.6500    0.6120 hc        1 HTH      0.064200
     20 H5          1.0470    1.6640    0.2570 hc        1 HTH      0.037200
     21 H5A         0.6880    1.4440   -1.2800 hc        1 HTH      0.037200
     22 H6          3.0810    0.5080   -0.0720 hc        1 HTH      0.041700
     23 H6A         2.7260    0.3460   -1.6170 hc        1 HTH      0.041700
     24 H7          2.7400    2.6980   -1.8470 hc        1 HTH      0.033367
     25 H7A         3.1490    2.8340   -0.3120 hc        1 HTH      0.033367
     26 H7B         4.1620    2.1740   -1.3520 hc        1 HTH      0.033367
@<TRIPOS>BOND
     1    1    2 1   
     2    1    3 1   
     3    1   11 1   
     4    1   12 1   
     5    2   13 1   
     6    3    4 1   
     7    3    5 1   
     8    3   14 1   
     9    4   15 1   
    10    5    6 1   
    11    5    7 1   
    12    5   16 1   
    13    6   17 1   
    14    7    8 1   
    15    7   18 1   
    16    7   19 1   
    17    8    9 1   
    18    8   20 1   
    19    8   21 1   
    20    9   10 1   
    21    9   22 1   
    22    9   23 1   
    23   10   24 1   
    24   10   25 1   
    25   10   26 1   
@<TRIPOS>SUBSTRUCTURE
     1 HTH         1 TEMP              0 ****  ****    0 ROOT
