@<TRIPOS>MOLECULE
HTH
   26    25     1     0     0
SMALL
bcc


@<TRIPOS>ATOM
      1 C1         -2.9180   -0.1710   -0.4560 c3        1 HTH      0.108400
      2 O1         -3.2720   -1.2130    0.4230 oh        1 HTH     -0.598800
      3 C2         -1.6560    0.5620    0.0150 c3        1 HTH      0.065100
      4 O2         -1.5600    1.8270   -0.6140 oh        1 HTH     -0.582800
      5 C3         -0.3880   -0.2740   -0.2400 c3        1 HTH      0.105100
      6 O3         -0.5140   -1.5470    0.3720 oh        1 HTH     -0.602800
      7 C4          0.8500    0.4710    0.2440 c3        1 HTH     -0.110400
      8 C5          2.1190   -0.2310   -0.1850 c3        1 HTH     -0.079400
      9 C6          3.3450    0.4500    0.3850 c3        1 HTH     -0.079400
     10 C7          4.6120   -0.2350   -0.0560 c3        1 HTH     -0.093100
     11 H1         -2.7710   -0.5590   -1.4990 h1        1 HTH      0.049700
     12 H1A        -3.7910    0.5360   -0.4380 h1        1 HTH      0.049700
     13 HO1        -2.6090   -1.9110    0.3300 ho        1 HTH      0.417000
     14 H2         -1.7430    0.7980    1.1130 h1        1 HTH      0.089700
     15 HO2        -1.5170    1.6710   -1.5660 ho        1 HTH      0.398000
     16 H3         -0.2980   -0.5080   -1.3390 h1        1 HTH      0.073700
     17 HO3        -0.4620   -1.4160    1.3270 ho        1 HTH      0.407000
     18 H4          0.8230    1.5140   -0.1690 hc        1 HTH      0.056200
     19 H4A         0.8200    0.5520    1.3620 hc        1 HTH      0.056200
     20 H5          2.0840   -1.3000    0.1550 hc        1 HTH      0.045700
     21 H5A         2.1830   -0.2430   -1.3050 hc        1 HTH      0.045700
     22 H6          3.3620    1.5230    0.0570 hc        1 HTH      0.039200
     23 H6A         3.2860    0.4490    1.5060 hc        1 HTH      0.039200
     24 H7          4.6210   -1.3010    0.2790 hc        1 HTH      0.033367
     25 H7A         4.7030   -0.2180   -1.1690 hc        1 HTH      0.033367
     26 H7B         5.5030    0.2790    0.3790 hc        1 HTH      0.033367
@<TRIPOS>BOND
     1    1    2 1   
     2    1    3 1   
     3    1   11 1   
     4    1   12 1   
     5    2   13 1   
     6    3    4 1   
     7    3    5 1   
     8    3   14 1   
     9    4   15 1   
    10    5    6 1   
    11    5    7 1   
    12    5   16 1   
    13    6   17 1   
    14    7    8 1   
    15    7   18 1   
    16    7   19 1   
    17    8    9 1   
    18    8   20 1   
    19    8   21 1   
    20    9   10 1   
    21    9   22 1   
    22    9   23 1   
    23   10   24 1   
    24   10   25 1   
    25   10   26 1   
@<TRIPOS>SUBSTRUCTURE
     1 HTH         1 TEMP              0 ****  ****    0 ROOT
