@<TRIPOS>MOLECULE
HTH
   26    25     1     0     0
SMALL
bcc


@<TRIPOS>ATOM
      1 C1          0.0070   -0.0810    0.0150 c3        1 HTH      0.095400
      2 O1         -0.3340   -1.2330    0.7730 oh        1 HTH     -0.618800
      3 C2          1.5360   -0.0110    0.0080 c3        1 HTH      0.147100
      4 O2          2.0440    0.1140    1.3280 oh        1 HTH     -0.607800
      5 C3          2.0120    1.2340   -0.7640 c3        1 HTH      0.143100
      6 O3          1.3750    1.1700   -2.0360 oh        1 HTH     -0.610800
      7 C4          3.5310    1.2400   -0.8830 c3        1 HTH     -0.118400
      8 C5          4.0610    2.5950   -1.2970 c3        1 HTH     -0.080400
      9 C6          5.5710    2.5810   -1.4070 c3        1 HTH     -0.079400
     10 C7          6.1070    3.9280   -1.8180 c3        1 HTH     -0.093100
     11 H1         -0.4230    0.8350    0.4980 h1        1 HTH      0.045200
     12 H1A        -0.3740   -0.1700   -1.0360 h1        1 HTH      0.045200
     13 HO1        -1.2940   -1.3030    0.7540 ho        1 HTH      0.408000
     14 H2          1.9530   -0.9410   -0.4680 h1        1 HTH      0.056700
     15 HO2         1.6270   -0.5880    1.8460 ho        1 HTH      0.424000
     16 H3          1.6620    2.1600   -0.2270 h1        1 HTH      0.049700
     17 HO3         1.8280    1.8010   -2.6070 ho        1 HTH      0.408000
     18 H4          3.9620    0.9550    0.1140 hc        1 HTH      0.064200
     19 H4A         3.8460    0.4620   -1.6270 hc        1 HTH      0.064200
     20 H5          3.7480    3.3680   -0.5460 hc        1 HTH      0.037200
     21 H5A         3.6190    2.8960   -2.2840 hc        1 HTH      0.037200
     22 H6          6.0130    2.2840   -0.4200 hc        1 HTH      0.041700
     23 H6A         5.8840    1.8060   -2.1560 hc        1 HTH      0.041700
     24 H7          5.8260    4.7090   -1.0720 hc        1 HTH      0.033367
     25 H7A         7.2210    3.8960   -1.8910 hc        1 HTH      0.033367
     26 H7B         5.6980    4.2300   -2.8120 hc        1 HTH      0.033367
@<TRIPOS>BOND
     1    1    2 1   
     2    1    3 1   
     3    1   11 1   
     4    1   12 1   
     5    2   13 1   
     6    3    4 1   
     7    3    5 1   
     8    3   14 1   
     9    4   15 1   
    10    5    6 1   
    11    5    7 1   
    12    5   16 1   
    13    6   17 1   
    14    7    8 1   
    15    7   18 1   
    16    7   19 1   
    17    8    9 1   
    18    8   20 1   
    19    8   21 1   
    20    9   10 1   
    21    9   22 1   
    22    9   23 1   
    23   10   24 1   
    24   10   25 1   
    25   10   26 1   
@<TRIPOS>SUBSTRUCTURE
     1 HTH         1 TEMP              0 ****  ****    0 ROOT
