@<TRIPOS>MOLECULE
HTI
   27    26     1     0     0
SMALL
bcc


@<TRIPOS>ATOM
      1 N          -3.1040    1.9160   -0.5090 n3        1 HTI     -0.903800
      2 CA         -2.0260    0.9580   -0.7070 c3        1 HTI      0.046500
      3 CB         -0.7490    1.2630    0.0680 c3        1 HTI      0.029700
      4 S          -1.0300    1.8570    1.7290 ss        1 HTI     -0.446200
      5 CAH         0.5500    1.5590    2.5700 c3        1 HTI      0.250200
      6 OAI         0.9990    0.2270    2.3920 oh        1 HTI     -0.607800
      7 CAJ         1.6880    2.4650    2.1320 c3        1 HTI     -0.049400
      8 CAK         1.6590    3.8060    2.8750 c3        1 HTI      0.020500
      9 NAL         2.4260    4.8290    2.1660 n3        1 HTI     -0.881800
     10 CAM         2.1270    3.6050    4.3520 c         1 HTI      0.884600
     11 OAN         1.3270    3.0580    5.1620 o         1 HTI     -0.853300
     12 OAO         3.2750    4.0310    4.6780 o         1 HTI     -0.853300
     13 C          -2.4430   -0.5400   -0.5310 c         1 HTI      0.893600
     14 O          -3.6720   -0.8100   -0.3880 o         1 HTI     -0.850300
     15 OXT        -1.5380   -1.4180   -0.6070 o         1 HTI     -0.850300
     16 H          -3.0880    2.2520    0.4380 hn        1 HTI      0.340800
     17 H2         -3.9740    1.4200   -0.6290 hn        1 HTI      0.340800
     18 HA         -1.7500    1.0400   -1.8060 h1        1 HTI      0.033700
     19 HB2        -0.1570    2.0430   -0.4690 h1        1 HTI      0.064200
     20 HB3        -0.1400    0.3240    0.1190 h1        1 HTI      0.064200
     21 HAH         0.2950    1.7480    3.6540 h2        1 HTI      0.119700
     22 HAI         0.2250   -0.3430    2.4890 ho        1 HTI      0.414000
     23 HAJ1        1.6250    2.6200    1.0240 hc        1 HTI      0.043200
     24 HAJ2        2.6600    1.9450    2.3480 hc        1 HTI      0.043200
     25 HAK         0.5890    4.1670    2.9080 h1        1 HTI      0.059700
     26 HAL1        2.5100    5.6170    2.7870 hn        1 HTI      0.323300
     27 HAL2        3.3600    4.4800    2.0350 hn        1 HTI      0.323300
@<TRIPOS>BOND
     1    1    2 1   
     2    1   16 1   
     3    1   17 1   
     4    2    3 1   
     5    2   13 1   
     6    2   18 1   
     7    3    4 1   
     8    3   19 1   
     9    3   20 1   
    10    4    5 1   
    11    5    6 1   
    12    5    7 1   
    13    5   21 1   
    14    6   22 1   
    15    7    8 1   
    16    7   23 1   
    17    7   24 1   
    18    8    9 1   
    19    8   10 1   
    20    8   25 1   
    21    9   26 1   
    22    9   27 1   
    23   10   11 1   
    24   10   12 1   
    25   13   14 1   
    26   13   15 1   
@<TRIPOS>SUBSTRUCTURE
     1 HTI         1 TEMP              0 ****  ****    0 ROOT
