@<TRIPOS>MOLECULE
HTJ
   38    41     1     0     0
SMALL
bcc


@<TRIPOS>ATOM
      1 C1          0.2150    0.3110   -0.1580 ca        1 HTJ      0.380200
      2 C2          1.6160    0.2740   -0.0590 ca        1 HTJ     -0.222800
      3 C3          2.1910   -0.0150    1.1850 ca        1 HTJ     -0.073300
      4 C4          1.3440   -0.2400    2.2760 ca        1 HTJ     -0.222800
      5 C5         -0.0460   -0.1820    2.0710 ca        1 HTJ      0.380200
      6 N6         -0.6150    0.0830    0.8790 nb        1 HTJ     -0.674000
      7 C7          3.6810   -0.1150    1.3390 c3        1 HTJ      0.085600
      8 N8          4.4230    1.1310    1.3130 na        1 HTJ     -0.012800
      9 C9          4.4140    2.0030    2.4650 ca        1 HTJ      0.392800
     10 C10         4.6340    3.3450    1.9530 ca        1 HTJ     -0.286200
     11 C11         4.6550    3.1760    0.5030 cc        1 HTJ      0.433800
     12 N12         4.4690    1.8950    0.1760 nd        1 HTJ     -0.579100
     13 N13         4.3190    1.6830    3.7740 nb        1 HTJ     -0.694000
     14 C14         4.4540    2.7420    4.6230 cp        1 HTJ      0.444800
     15 C15         4.6760    4.0750    4.2050 ca        1 HTJ     -0.236300
     16 C16         4.7770    4.3990    2.8450 ca        1 HTJ     -0.024600
     17 C18         5.0380    5.8330    2.3890 c         1 HTJ      0.911200
     18 O19         5.0850    6.0530    1.1480 o         1 HTJ     -0.813800
     19 O20         5.1940    6.7050    3.2870 o         1 HTJ     -0.813800
     20 C21         4.3610    2.4740    6.0720 cp        1 HTJ     -0.117500
     21 C22         3.4170    1.5730    6.5830 ca        1 HTJ     -0.108000
     22 C23         3.3360    1.3460    7.9560 ca        1 HTJ     -0.143000
     23 C24         4.1950    2.0110    8.8300 ca        1 HTJ     -0.140000
     24 C25         5.1390    2.9060    8.3270 ca        1 HTJ     -0.143000
     25 C26         5.2250    3.1380    6.9550 ca        1 HTJ     -0.108000
     26 H1         -0.2740    0.5420   -1.1210 h4        1 HTJ      0.013600
     27 H2          2.2470    0.4810   -0.9340 ha        1 HTJ      0.154000
     28 H4          1.7540   -0.4420    3.2750 ha        1 HTJ      0.154000
     29 H5         -0.7450   -0.3520    2.9090 h4        1 HTJ      0.013600
     30 H7          3.9260   -0.6120    2.3210 h1        1 HTJ      0.071200
     31 H7A         4.0790   -0.7610    0.5020 h1        1 HTJ      0.071200
     32 H11         4.8110    3.9970   -0.2070 h4        1 HTJ      0.088800
     33 H15         4.7660    4.8910    4.9390 ha        1 HTJ      0.169000
     34 H22         2.7380    1.0430    5.8980 ha        1 HTJ      0.145000
     35 H23         2.5910    0.6400    8.3490 ha        1 HTJ      0.121000
     36 H24         4.1280    1.8310    9.9120 ha        1 HTJ      0.117000
     37 H25         5.8180    3.4330    9.0120 ha        1 HTJ      0.121000
     38 H26         5.9710    3.8450    6.5600 ha        1 HTJ      0.145000
@<TRIPOS>BOND
     1    1    2 ar  
     2    1    6 ar  
     3    1   26 1   
     4    2    3 ar  
     5    2   27 1   
     6    3    4 ar  
     7    3    7 1   
     8    4    5 ar  
     9    4   28 1   
    10    5    6 ar  
    11    5   29 1   
    12    7    8 1   
    13    7   30 1   
    14    7   31 1   
    15    8    9 1   
    16    8   12 1   
    17    9   10 ar  
    18    9   13 ar  
    19   10   11 1   
    20   10   16 ar  
    21   11   12 2   
    22   11   32 1   
    23   13   14 ar  
    24   14   15 ar  
    25   14   20 1   
    26   15   16 ar  
    27   15   33 1   
    28   16   17 1   
    29   17   18 1   
    30   17   19 1   
    31   20   21 ar  
    32   20   25 ar  
    33   21   22 ar  
    34   21   34 1   
    35   22   23 ar  
    36   22   35 1   
    37   23   24 ar  
    38   23   36 1   
    39   24   25 ar  
    40   24   37 1   
    41   25   38 1   
@<TRIPOS>SUBSTRUCTURE
     1 HTJ         1 TEMP              0 ****  ****    0 ROOT
