@<TRIPOS>MOLECULE
HTJ
   38    41     1     0     0
SMALL
bcc


@<TRIPOS>ATOM
      1 C1          5.1100   -0.3150   -1.0100 ca        1 HTJ      0.380200
      2 C2          4.3600    0.1680    0.0770 ca        1 HTJ     -0.222800
      3 C3          3.3190   -0.6240    0.5750 ca        1 HTJ     -0.073300
      4 C4          3.0620   -1.8540   -0.0400 ca        1 HTJ     -0.222800
      5 C5          3.8720   -2.2480   -1.1200 ca        1 HTJ      0.380200
      6 N6          4.8850   -1.5040   -1.6040 nb        1 HTJ     -0.674000
      7 C7          2.5150   -0.1800    1.7630 c3        1 HTJ      0.085600
      8 N8          1.5630    0.8910    1.5420 na        1 HTJ     -0.012800
      9 C9          0.3150    0.6220    0.8640 ca        1 HTJ      0.392800
     10 C10        -0.0750    1.8700    0.2310 ca        1 HTJ     -0.286200
     11 C11         1.0420    2.7720    0.5010 cc        1 HTJ      0.433800
     12 N12         1.9900    2.1500    1.2050 nd        1 HTJ     -0.579100
     13 N13        -0.4260   -0.5080    0.8630 nb        1 HTJ     -0.694000
     14 C14        -1.6170   -0.3980    0.2070 cp        1 HTJ      0.444800
     15 C15        -2.0710    0.7820   -0.4280 ca        1 HTJ     -0.236300
     16 C16        -1.2980    1.9510   -0.4190 ca        1 HTJ     -0.024600
     17 C18        -1.7940    3.2330   -1.0850 c         1 HTJ      0.911200
     18 O19        -1.0290    4.2360   -1.0640 o         1 HTJ     -0.813800
     19 O20        -2.9390    3.2050   -1.6100 o         1 HTJ     -0.813800
     20 C21        -2.4850   -1.5920    0.1610 cp        1 HTJ     -0.117500
     21 C22        -1.9480   -2.8700   -0.0400 ca        1 HTJ     -0.108000
     22 C23        -2.7880   -3.9820   -0.0960 ca        1 HTJ     -0.143000
     23 C24        -4.1660   -3.8300    0.0500 ca        1 HTJ     -0.140000
     24 C25        -4.7050   -2.5600    0.2540 ca        1 HTJ     -0.143000
     25 C26        -3.8720   -1.4450    0.3100 ca        1 HTJ     -0.108000
     26 H1          5.9350    0.2840   -1.4340 h4        1 HTJ      0.013600
     27 H2          4.5770    1.1510    0.5160 ha        1 HTJ      0.154000
     28 H4          2.2360   -2.4940    0.3010 ha        1 HTJ      0.154000
     29 H5          3.6980   -3.2110   -1.6320 h4        1 HTJ      0.013600
     30 H7          1.9270   -1.0530    2.1680 h1        1 HTJ      0.071200
     31 H7A         3.2330    0.1690    2.5620 h1        1 HTJ      0.071200
     32 H11         1.0790    3.8170    0.1700 h4        1 HTJ      0.088800
     33 H15        -3.0390    0.8060   -0.9520 ha        1 HTJ      0.169000
     34 H22        -0.8610   -2.9970   -0.1540 ha        1 HTJ      0.145000
     35 H23        -2.3590   -4.9810   -0.2570 ha        1 HTJ      0.121000
     36 H24        -4.8250   -4.7080    0.0040 ha        1 HTJ      0.117000
     37 H25        -5.7910   -2.4360    0.3700 ha        1 HTJ      0.121000
     38 H26        -4.3000   -0.4430    0.4720 ha        1 HTJ      0.145000
@<TRIPOS>BOND
     1    1    2 ar  
     2    1    6 ar  
     3    1   26 1   
     4    2    3 ar  
     5    2   27 1   
     6    3    4 ar  
     7    3    7 1   
     8    4    5 ar  
     9    4   28 1   
    10    5    6 ar  
    11    5   29 1   
    12    7    8 1   
    13    7   30 1   
    14    7   31 1   
    15    8    9 1   
    16    8   12 1   
    17    9   10 ar  
    18    9   13 ar  
    19   10   11 1   
    20   10   16 ar  
    21   11   12 2   
    22   11   32 1   
    23   13   14 ar  
    24   14   15 ar  
    25   14   20 1   
    26   15   16 ar  
    27   15   33 1   
    28   16   17 1   
    29   17   18 1   
    30   17   19 1   
    31   20   21 ar  
    32   20   25 ar  
    33   21   22 ar  
    34   21   34 1   
    35   22   23 ar  
    36   22   35 1   
    37   23   24 ar  
    38   23   36 1   
    39   24   25 ar  
    40   24   37 1   
    41   25   38 1   
@<TRIPOS>SUBSTRUCTURE
     1 HTJ         1 TEMP              0 ****  ****    0 ROOT
