@<TRIPOS>MOLECULE
HTJ
   38    29     1     0     0
SMALL
bcc


@<TRIPOS>ATOM
      1 C1          0.7660    5.0870    2.7360 c1        1 HTJ     -0.085000
      2 C2         -0.0880    4.1190    2.2290 c1        1 HTJ     -0.155000
      3 C3          0.2410    3.4510    1.0820 c1        1 HTJ     -0.066000
      4 C4          1.4090    3.7390    0.4370 c2        1 HTJ     -0.160000
      5 C5          2.2610    4.7070    0.9470 c1        1 HTJ     -0.085000
      6 N6          1.9320    5.3720    2.0910 n1        1 HTJ     -0.148000
      7 C7         -0.6120    2.2690    0.6190 c2        1 HTJ      0.019000
      8 N8          0.0580    1.0290    0.9560 n3        1 HTJ     -0.148000
      9 C9          0.2460   -0.2040    0.3780 c1        1 HTJ      0.001000
     10 C10         1.0310   -0.9460    1.2150 c1        1 HTJ     -0.137000
     11 C11         1.3320   -0.1650    2.3220 c1        1 HTJ     -0.067000
     12 N12         0.7330    1.0460    2.1590 n2        1 HTJ     -0.112000
     13 N13        -0.1890   -0.7430   -0.8270 n1        1 HTJ     -0.168000
     14 C14         0.1670   -2.0140   -1.1760 c1        1 HTJ      0.009000
     15 C15         0.9650   -2.7710   -0.3260 c1        1 HTJ     -0.171000
     16 C16         1.3940   -2.2410    0.8610 c1        1 HTJ     -0.004000
     17 C18         2.0720   -3.0600    1.9550 c2        1 HTJ      0.360000
     18 O19         3.3090   -2.9310    2.1650 o         1 HTJ     -0.548500
     19 O20         1.3910   -3.8480    2.6670 o         1 HTJ     -0.548500
     20 C21        -0.8990   -2.4110   -1.9930 c1        1 HTJ     -0.010000
     21 C22        -0.9230   -2.0380   -3.3320 c1        1 HTJ     -0.132250
     22 C23        -2.0250   -2.3370   -4.1150 c1        1 HTJ     -0.132250
     23 C24        -3.1070   -3.0070   -3.5640 c1        1 HTJ     -0.132250
     24 C25        -3.0840   -3.3790   -2.2270 c1        1 HTJ     -0.132250
     25 C26        -1.9800   -3.0810   -1.4420 c1        1 HTJ     -0.113000
     26 H1          0.5620    5.5190    3.5860 ha        1 HTJ      0.151000
     27 H2         -0.9430    3.9400    2.6730 ha        1 HTJ      0.158000
     28 H4          1.6250    3.2940   -0.3990 ha        1 HTJ      0.150000
     29 H5          3.0900    4.9220    0.4800 ha        1 HTJ      0.150000
     30 H7         -0.7400    2.3190   -0.3570 h4        1 HTJ      0.110500
     31 H7A        -1.4820    2.3010    1.0640 h4        1 HTJ      0.110500
     32 H11         1.8820   -0.4390    3.0900 DU        1 HTJ      0.218000
     33 H15         1.5130   -3.4790   -0.7250 ha        1 HTJ      0.169000
     34 H22        -0.1610   -1.5660   -3.7210 ha        1 HTJ      0.125000
     35 H23        -2.0560   -2.0430   -5.0480 ha        1 HTJ      0.125000
     36 H24        -3.8810   -3.2170   -4.1150 ha        1 HTJ      0.125000
     37 H25        -3.8460   -3.8520   -1.8380 ha        1 HTJ      0.125000
     38 H26        -1.9650   -3.3410   -0.5070 ha        1 HTJ      0.149000
@<TRIPOS>BOND
     1    1    6 1   
     2    1   26 1   
     3    2    3 1   
     4    2   27 1   
     5    3    4 1   
     6    4    5 1   
     7    4   28 1   
     8    5   29 1   
     9    7    8 1   
    10    7   30 1   
    11    7   31 1   
    12    8    9 1   
    13    8   12 1   
    14    9   10 1   
    15   11   12 1   
    16   13   14 1   
    17   15   16 1   
    18   15   33 1   
    19   16   17 1   
    20   17   18 1   
    21   17   19 1   
    22   20   25 1   
    23   21   22 1   
    24   21   34 1   
    25   22   35 1   
    26   23   24 1   
    27   23   36 1   
    28   24   37 1   
    29   25   38 1   
@<TRIPOS>SUBSTRUCTURE
     1 HTJ         1 TEMP              0 ****  ****    0 ROOT
