@<TRIPOS>MOLECULE
HTJ
   38    41     1     0     0
SMALL
bcc


@<TRIPOS>ATOM
      1 C1          0.2170    0.3070   -0.1590 ca        1 HTJ      0.380200
      2 C2          1.6190    0.2690   -0.0580 ca        1 HTJ     -0.222800
      3 C3          2.1920   -0.0180    1.1860 ca        1 HTJ     -0.073300
      4 C4          1.3450   -0.2420    2.2770 ca        1 HTJ     -0.222800
      5 C5         -0.0450   -0.1850    2.0710 ca        1 HTJ      0.380200
      6 N6         -0.6130    0.0790    0.8780 nb        1 HTJ     -0.674000
      7 C7          3.6830   -0.1170    1.3410 c3        1 HTJ      0.085600
      8 N8          4.4250    1.1290    1.3150 na        1 HTJ     -0.012800
      9 C9          4.4140    2.0020    2.4660 ca        1 HTJ      0.392800
     10 C10         4.6350    3.3440    1.9530 ca        1 HTJ     -0.286200
     11 C11         4.6570    3.1730    0.5020 cc        1 HTJ      0.433800
     12 N12         4.4710    1.8920    0.1770 nd        1 HTJ     -0.579100
     13 N13         4.3190    1.6830    3.7750 nb        1 HTJ     -0.694000
     14 C14         4.4530    2.7440    4.6230 cp        1 HTJ      0.444800
     15 C15         4.6750    4.0760    4.2030 ca        1 HTJ     -0.236300
     16 C16         4.7770    4.3990    2.8430 ca        1 HTJ     -0.024600
     17 C18         5.0380    5.8320    2.3860 c         1 HTJ      0.911200
     18 O19         5.0850    6.0510    1.1450 o         1 HTJ     -0.813800
     19 O20         5.1940    6.7050    3.2830 o         1 HTJ     -0.813800
     20 C21         4.3590    2.4770    6.0720 cp        1 HTJ     -0.117500
     21 C22         3.4160    1.5760    6.5830 ca        1 HTJ     -0.108000
     22 C23         3.3340    1.3510    7.9570 ca        1 HTJ     -0.143000
     23 C24         4.1910    2.0170    8.8300 ca        1 HTJ     -0.140000
     24 C25         5.1350    2.9120    8.3270 ca        1 HTJ     -0.143000
     25 C26         5.2220    3.1420    6.9550 ca        1 HTJ     -0.108000
     26 H1         -0.2710    0.5360   -1.1220 h4        1 HTJ      0.013600
     27 H2          2.2510    0.4760   -0.9330 ha        1 HTJ      0.154000
     28 H4          1.7540   -0.4430    3.2760 ha        1 HTJ      0.154000
     29 H5         -0.7440   -0.3540    2.9080 h4        1 HTJ      0.013600
     30 H7          3.9270   -0.6140    2.3250 h1        1 HTJ      0.071200
     31 H7A         4.0810   -0.7640    0.5050 h1        1 HTJ      0.071200
     32 H11         4.8130    3.9940   -0.2090 h4        1 HTJ      0.088800
     33 H15         4.7650    4.8930    4.9370 ha        1 HTJ      0.169000
     34 H22         2.7370    1.0460    5.8990 ha        1 HTJ      0.145000
     35 H23         2.5880    0.6450    8.3500 ha        1 HTJ      0.121000
     36 H24         4.1240    1.8380    9.9120 ha        1 HTJ      0.117000
     37 H25         5.8140    3.4390    9.0120 ha        1 HTJ      0.121000
     38 H26         5.9680    3.8490    6.5600 ha        1 HTJ      0.145000
@<TRIPOS>BOND
     1    1    2 ar  
     2    1    6 ar  
     3    1   26 1   
     4    2    3 ar  
     5    2   27 1   
     6    3    4 ar  
     7    3    7 1   
     8    4    5 ar  
     9    4   28 1   
    10    5    6 ar  
    11    5   29 1   
    12    7    8 1   
    13    7   30 1   
    14    7   31 1   
    15    8    9 1   
    16    8   12 1   
    17    9   10 ar  
    18    9   13 ar  
    19   10   11 1   
    20   10   16 ar  
    21   11   12 2   
    22   11   32 1   
    23   13   14 ar  
    24   14   15 ar  
    25   14   20 1   
    26   15   16 ar  
    27   15   33 1   
    28   16   17 1   
    29   17   18 1   
    30   17   19 1   
    31   20   21 ar  
    32   20   25 ar  
    33   21   22 ar  
    34   21   34 1   
    35   22   23 ar  
    36   22   35 1   
    37   23   24 ar  
    38   23   36 1   
    39   24   25 ar  
    40   24   37 1   
    41   25   38 1   
@<TRIPOS>SUBSTRUCTURE
     1 HTJ         1 TEMP              0 ****  ****    0 ROOT
