@<TRIPOS>MOLECULE
HTK
   34    34     1     0     0
SMALL
bcc


@<TRIPOS>ATOM
      1 C1         -0.2250    0.1320    0.2830 ca        1 HTK     -0.080500
      2 C2          1.1610   -0.0140    0.3080 ca        1 HTK     -0.141500
      3 C3          1.8240   -0.1760    1.5240 ca        1 HTK     -0.097000
      4 C4          1.0990   -0.1920    2.7170 ca        1 HTK     -0.141500
      5 C5         -0.2870   -0.0530    2.6960 ca        1 HTK     -0.080500
      6 C6         -0.9590    0.1080    1.4780 ca        1 HTK     -0.178600
      7 C7         -2.4260    0.2630    1.4090 c         1 HTK      0.593700
      8 O7         -2.9830    0.7560    0.4210 o         1 HTK     -0.529100
      9 C8         -3.1990   -0.2120    2.6110 c3        1 HTK     -0.291400
     10 C9         -4.6640   -0.4550    2.3480 c         1 HTK      0.594100
     11 O9         -5.1270   -1.5980    2.3820 o         1 HTK     -0.518100
     12 C10        -5.4780    0.7710    2.0700 c3        1 HTK     -0.298400
     13 C11        -6.9660    0.5510    2.0200 c         1 HTK      0.588100
     14 O11        -7.6370    0.9800    1.0750 o         1 HTK     -0.537100
     15 C12        -7.5770   -0.1810    3.1760 c3        1 HTK     -0.227400
     16 C13        -9.0680    0.1080    3.3390 c3        1 HTK      0.158100
     17 O13        -9.8230   -0.5010    2.3030 oh        1 HTK     -0.603800
     18 C14        -9.5840   -0.4630    4.6480 c3        1 HTK     -0.094100
     19 H1         -0.7570    0.2710   -0.6720 ha        1 HTK      0.144500
     20 H2          1.7300    0.0020   -0.6330 ha        1 HTK      0.140500
     21 H3          2.9180   -0.2910    1.5450 ha        1 HTK      0.138000
     22 H4          1.6220   -0.3150    3.6770 ha        1 HTK      0.140500
     23 H5         -0.8450   -0.0630    3.6450 ha        1 HTK      0.144500
     24 H6         -3.0980    0.5620    3.4190 hc        1 HTK      0.094200
     25 H7         -2.7390   -1.1690    2.9840 hc        1 HTK      0.094200
     26 H8         -5.1280    1.1900    1.0800 hc        1 HTK      0.109200
     27 H9         -5.2680    1.5440    2.8570 hc        1 HTK      0.109200
     28 H10        -7.0380    0.0880    4.1200 hc        1 HTK      0.088200
     29 H11        -7.4250   -1.2830    2.9950 hc        1 HTK      0.088200
     30 H12        -9.2320    1.2230    3.3100 h1        1 HTK      0.034700
     31 H13        -9.5360   -0.0980    1.4720 ho        1 HTK      0.422000
     32 H14        -9.3820   -1.5590    4.6990 hc        1 HTK      0.045700
     33 H15        -9.0810    0.0450    5.5040 hc        1 HTK      0.045700
     34 H16       -10.6860   -0.3030    4.7190 hc        1 HTK      0.045700
@<TRIPOS>BOND
     1    1    2 ar  
     2    1    6 ar  
     3    1   19 1   
     4    2    3 ar  
     5    2   20 1   
     6    3    4 ar  
     7    3   21 1   
     8    4    5 ar  
     9    4   22 1   
    10    5    6 ar  
    11    5   23 1   
    12    6    7 1   
    13    7    8 2   
    14    7    9 1   
    15    9   10 1   
    16    9   24 1   
    17    9   25 1   
    18   10   11 2   
    19   10   12 1   
    20   12   13 1   
    21   12   26 1   
    22   12   27 1   
    23   13   14 2   
    24   13   15 1   
    25   15   16 1   
    26   15   28 1   
    27   15   29 1   
    28   16   17 1   
    29   16   18 1   
    30   16   30 1   
    31   17   31 1   
    32   18   32 1   
    33   18   33 1   
    34   18   34 1   
@<TRIPOS>SUBSTRUCTURE
     1 HTK         1 TEMP              0 ****  ****    0 ROOT
