@<TRIPOS>MOLECULE
HTK
   34    28     1     0     0
SMALL
bcc


@<TRIPOS>ATOM
      1 C1          4.3140    2.5180   -0.3940 c1        1 HTK     -0.071000
      2 C2          4.9260    3.7610   -0.3700 c1        1 HTK     -0.118000
      3 C3          4.1710    4.9010   -0.1420 c1        1 HTK     -0.118000
      4 C4          2.8040    4.7980    0.0610 c1        1 HTK     -0.118000
      5 C5          2.1920    3.5550    0.0370 c1        1 HTK     -0.118000
      6 C6          2.9460    2.4150   -0.1900 c1        1 HTK     -0.158000
      7 C7          2.2690    1.0650   -0.2740 c1        1 HTK      0.275500
      8 O7          2.9240    0.0720   -0.5200 o         1 HTK     -0.293000
      9 C8          0.7830    0.9470   -0.0210 c3        1 HTK     -0.275000
     10 C9          0.3330   -0.4700   -0.3040 c1        1 HTK      0.275500
     11 O9          0.7590   -1.0590   -1.2770 o         1 HTK     -0.293000
     12 C10        -0.6210   -1.1640    0.6430 c2        1 HTK     -0.280000
     13 C11        -1.7110   -1.8500   -0.1520 c1        1 HTK      0.253000
     14 O11        -2.0000   -1.4450   -1.2610 o         1 HTK     -0.319000
     15 C12        -2.4280   -3.0500    0.4260 c2        1 HTK     -0.253000
     16 C13        -3.8660   -3.0510   -0.0410 c3        1 HTK      0.045000
     17 O13        -3.9120   -3.3260   -1.4200 oh        1 HTK     -0.330000
     18 C14        -4.6390   -4.1120    0.7100 c3        1 HTK     -0.213000
     19 H1          4.8450    1.7150   -0.5540 ha        1 HTK      0.154000
     20 H2          5.8890    3.8340   -0.5130 ha        1 HTK      0.138500
     21 H3          4.6030    5.7770   -0.1260 ha        1 HTK      0.138500
     22 H4          2.2730    5.6010    0.2210 ha        1 HTK      0.138500
     23 H5          1.2290    3.4830    0.1800 ha        1 HTK      0.138500
     24 H6          0.5930    1.1690    0.9130 hc        1 HTK      0.149000
     25 H7          0.3020    1.5650   -0.6070 hc        1 HTK      0.149000
     26 H8         -1.0220   -0.5040    1.2430 ha        1 HTK      0.149500
     27 H9         -0.1330   -1.8290    1.1690 ha        1 HTK      0.149500
     28 H10        -2.4020   -3.0060    1.4030 ha        1 HTK      0.123500
     29 H11        -1.9870   -3.8700    0.1250 ha        1 HTK      0.123500
     30 H12        -4.2650   -2.1750    0.1310 h1        1 HTK      0.079000
     31 H13        -4.7480   -3.2430   -1.7120 ho        1 HTK      0.219000
     32 H14        -5.5490   -4.1700    0.3500 hc        1 HTK      0.086333
     33 H15        -4.6790   -3.8760    1.6610 hc        1 HTK      0.086333
     34 H16        -4.1910   -4.9770    0.6070 hc        1 HTK      0.086333
@<TRIPOS>BOND
     1    1    6 1   
     2    1   19 1   
     3    2    3 1   
     4    2   20 1   
     5    3   21 1   
     6    4    5 1   
     7    4   22 1   
     8    5   23 1   
     9    7    8 1   
    10    7    9 1   
    11    9   10 1   
    12    9   24 1   
    13    9   25 1   
    14   10   11 1   
    15   12   13 1   
    16   12   26 1   
    17   12   27 1   
    18   13   14 1   
    19   15   16 1   
    20   15   28 1   
    21   15   29 1   
    22   16   17 1   
    23   16   18 1   
    24   16   30 1   
    25   17   31 1   
    26   18   32 1   
    27   18   33 1   
    28   18   34 1   
@<TRIPOS>SUBSTRUCTURE
     1 HTK         1 TEMP              0 ****  ****    0 ROOT
