@<TRIPOS>MOLECULE
HTK
   34    34     1     0     0
SMALL
bcc


@<TRIPOS>ATOM
      1 C1         -0.2080    0.1440    0.3160 ca        1 HTK     -0.080500
      2 C2          1.1770   -0.0130    0.3490 ca        1 HTK     -0.141500
      3 C3          1.8280   -0.2120    1.5650 ca        1 HTK     -0.096000
      4 C4          1.0930   -0.2520    2.7510 ca        1 HTK     -0.141500
      5 C5         -0.2910   -0.1010    2.7230 ca        1 HTK     -0.080500
      6 C6         -0.9520    0.0960    1.5040 ca        1 HTK     -0.178600
      7 C7         -2.4170    0.2650    1.4270 c         1 HTK      0.593700
      8 O7         -2.9620    0.7850    0.4460 o         1 HTK     -0.529100
      9 C8         -3.2030   -0.2320    2.6110 c3        1 HTK     -0.291400
     10 C9         -4.6690   -0.4540    2.3310 c         1 HTK      0.594100
     11 O9         -5.1440   -1.5920    2.3350 o         1 HTK     -0.518100
     12 C10        -5.4690    0.7870    2.0750 c3        1 HTK     -0.298400
     13 C11        -6.9590    0.5840    2.0130 c         1 HTK      0.588100
     14 O11        -7.6190    1.0410    1.0740 o         1 HTK     -0.537100
     15 C12        -7.5830   -0.1680    3.1480 c3        1 HTK     -0.227400
     16 C13        -9.0720    0.1340    3.3100 c3        1 HTK      0.158100
     17 O13        -9.8280   -0.4430    2.2570 oh        1 HTK     -0.603800
     18 C14        -9.6010   -0.4600    4.6040 c3        1 HTK     -0.094100
     19 H1         -0.7310    0.3120   -0.6400 ha        1 HTK      0.144500
     20 H2          1.7540    0.0210   -0.5880 ha        1 HTK      0.140500
     21 H3          2.9210   -0.3360    1.5920 ha        1 HTK      0.138000
     22 H4          1.6070   -0.4030    3.7120 ha        1 HTK      0.140500
     23 H5         -0.8580   -0.1300    3.6660 ha        1 HTK      0.144500
     24 H6         -2.7560   -1.2020    2.9630 hc        1 HTK      0.094200
     25 H7         -3.1010    0.5210    3.4380 hc        1 HTK      0.094200
     26 H8         -5.1080    1.2230    1.0970 hc        1 HTK      0.109200
     27 H9         -5.2550    1.5410    2.8800 hc        1 HTK      0.109200
     28 H10        -7.4420   -1.2660    2.9440 hc        1 HTK      0.088200
     29 H11        -7.0470    0.0740    4.1020 hc        1 HTK      0.088200
     30 H12        -9.2240    1.2520    3.3070 h1        1 HTK      0.034700
     31 H13        -9.5320   -0.0250    1.4370 ho        1 HTK      0.422000
     32 H14        -9.4110   -1.5590    4.6310 hc        1 HTK      0.045700
     33 H15        -9.0980    0.0220    5.4740 hc        1 HTK      0.045700
     34 H16       -10.7020   -0.2900    4.6730 hc        1 HTK      0.045700
@<TRIPOS>BOND
     1    1    2 ar  
     2    1    6 ar  
     3    1   19 1   
     4    2    3 ar  
     5    2   20 1   
     6    3    4 ar  
     7    3   21 1   
     8    4    5 ar  
     9    4   22 1   
    10    5    6 ar  
    11    5   23 1   
    12    6    7 1   
    13    7    8 2   
    14    7    9 1   
    15    9   10 1   
    16    9   24 1   
    17    9   25 1   
    18   10   11 2   
    19   10   12 1   
    20   12   13 1   
    21   12   26 1   
    22   12   27 1   
    23   13   14 2   
    24   13   15 1   
    25   15   16 1   
    26   15   28 1   
    27   15   29 1   
    28   16   17 1   
    29   16   18 1   
    30   16   30 1   
    31   17   31 1   
    32   18   32 1   
    33   18   33 1   
    34   18   34 1   
@<TRIPOS>SUBSTRUCTURE
     1 HTK         1 TEMP              0 ****  ****    0 ROOT
