@<TRIPOS>MOLECULE
HTK
   34    34     1     0     0
SMALL
bcc


@<TRIPOS>ATOM
      1 C1         -4.0640    0.6500   -0.7380 ca        1 HTK     -0.080500
      2 C2         -5.4230    0.4150   -0.5350 ca        1 HTK     -0.141500
      3 C3         -5.8390   -0.7070    0.1810 ca        1 HTK     -0.097000
      4 C4         -4.8930   -1.5960    0.6950 ca        1 HTK     -0.141500
      5 C5         -3.5340   -1.3620    0.5000 ca        1 HTK     -0.080500
      6 C6         -3.1100   -0.2350   -0.2160 ca        1 HTK     -0.178600
      7 C7         -1.6790    0.0500   -0.4490 c         1 HTK      0.593700
      8 O7         -1.3050    0.7940   -1.3630 o         1 HTK     -0.529100
      9 C8         -0.7100   -0.6220    0.4870 c3        1 HTK     -0.291400
     10 C9          0.6530    0.0220    0.5340 c         1 HTK      0.594100
     11 O9          1.0380    0.6000    1.5530 o         1 HTK     -0.518100
     12 C10         1.4720   -0.1150   -0.7120 c3        1 HTK     -0.300400
     13 C11         2.8990    0.3560   -0.5950 c         1 HTK      0.590100
     14 O11         3.3560    1.1790   -1.3930 o         1 HTK     -0.519100
     15 C12         3.7010   -0.2530    0.5130 c3        1 HTK     -0.224400
     16 C13         5.2050   -0.0470    0.3480 c3        1 HTK      0.144100
     17 O13         5.8610   -0.2470    1.5900 oh        1 HTK     -0.591800
     18 C14         5.7770   -0.9510   -0.7280 c3        1 HTK     -0.131100
     19 H1         -3.7260    1.5280   -1.3120 ha        1 HTK      0.144500
     20 H2         -6.1660    1.1170   -0.9430 ha        1 HTK      0.140500
     21 H3         -6.9120   -0.8930    0.3410 ha        1 HTK      0.138000
     22 H4         -5.2210   -2.4840    1.2550 ha        1 HTK      0.140500
     23 H5         -2.7990   -2.0730    0.9070 ha        1 HTK      0.144500
     24 H6         -1.1440   -0.6170    1.5250 hc        1 HTK      0.093700
     25 H7         -0.5960   -1.6920    0.1610 hc        1 HTK      0.093700
     26 H8          1.4840   -1.1920   -1.0310 hc        1 HTK      0.107200
     27 H9          0.9500    0.4740   -1.5230 hc        1 HTK      0.107200
     28 H10         3.3710    0.2300    1.4760 hc        1 HTK      0.083200
     29 H11         3.4700   -1.3470    0.5860 hc        1 HTK      0.083200
     30 H12         5.4130    1.0340    0.1010 h1        1 HTK      0.098700
     31 H13         5.7660   -1.1790    1.8200 ho        1 HTK      0.393000
     32 H14         5.5770   -2.0240   -0.4950 hc        1 HTK      0.045367
     33 H15         5.3130   -0.6990   -1.7120 hc        1 HTK      0.045367
     34 H16         6.8810   -0.8030   -0.7990 hc        1 HTK      0.045367
@<TRIPOS>BOND
     1    1    2 ar  
     2    1    6 ar  
     3    1   19 1   
     4    2    3 ar  
     5    2   20 1   
     6    3    4 ar  
     7    3   21 1   
     8    4    5 ar  
     9    4   22 1   
    10    5    6 ar  
    11    5   23 1   
    12    6    7 1   
    13    7    8 2   
    14    7    9 1   
    15    9   10 1   
    16    9   24 1   
    17    9   25 1   
    18   10   11 2   
    19   10   12 1   
    20   12   13 1   
    21   12   26 1   
    22   12   27 1   
    23   13   14 2   
    24   13   15 1   
    25   15   16 1   
    26   15   28 1   
    27   15   29 1   
    28   16   17 1   
    29   16   18 1   
    30   16   30 1   
    31   17   31 1   
    32   18   32 1   
    33   18   33 1   
    34   18   34 1   
@<TRIPOS>SUBSTRUCTURE
     1 HTK         1 TEMP              0 ****  ****    0 ROOT
