@<TRIPOS>MOLECULE
HTM
   36    31     1     0     0
SMALL
bcc


@<TRIPOS>ATOM
      1 O1A         2.2410   -2.5140    2.3840 o         1 HTM     -0.267500
      2 C1          2.7690   -2.6370    1.3190 c1        1 HTM      0.478000
      3 C2          2.7400    1.2340    2.1640 c1        1 HTM      0.067000
      4 C3          4.0560    0.5360    2.1540 c3        1 HTM     -0.326000
      5 C4          3.9910   -0.6400    1.2490 c1        1 HTM     -0.022000
      6 C5          3.4320    1.2690    5.2160 c2        1 HTM     -0.096000
      7 C6          2.1720    0.8080    4.5140 c3        1 HTM      0.061000
      8 C8         -1.0690    3.0920    5.2900 c3        1 HTM     -0.270000
      9 C9         -0.6770    1.7960    5.8940 c1        1 HTM      0.001000
     10 C11         4.9140   -1.8040    6.0390 c1        1 HTM     -0.093000
     11 N5          3.7920    2.4940    5.2140 n2        1 HTM     -0.219000
     12 O1B         3.1880   -2.9780    0.2510 o         1 HTM     -0.267500
     13 O4          4.8430   -0.5960    0.2520 oh        1 HTM     -0.196000
     14 O6          1.9770    1.3500    3.1820 os        1 HTM     -0.126000
     15 O7          2.2810   -0.5810    4.3340 oh        1 HTM     -0.358000
     16 O9         -1.4000    1.2360    6.7990 oh        1 HTM     -0.146000
     17 O10         5.9580   -1.9700    3.9230 o         1 HTM     -0.338000
     18 H3          4.8220    1.3020    1.8440 hc        1 HTM      0.133500
     19 H4          3.9590    0.4240    5.7250 h4        1 HTM      0.140000
     20 H5          4.3580    0.1180    3.1620 hc        1 HTM      0.133500
     21 H6          1.2320    1.1150    5.0740 h2        1 HTM      0.191000
     22 H71         1.4600   -0.8970    3.9350 ho        1 HTM      0.240000
     23 H72        -1.1870    4.0230    3.3420 hc        1 HTM      0.089667
     24 H81        -1.8100    2.3220    3.4000 hc        1 HTM      0.089667
     25 H82        -0.0220    2.6320    3.4440 hc        1 HTM      0.089667
     26 H91        -0.3160    3.8510    5.6450 hc        1 HTM      0.099000
     27 H92        -2.0850    3.4460    5.6240 hc        1 HTM      0.099000
     28 H111        2.7370   -1.5120    6.3970 ha        1 HTM      0.015000
     29 H112        2.7390   -2.1950    6.3940 ha        1 HTM      0.015000
     30 H113        4.9820   -2.5090    6.8600 ha        1 HTM      0.142000
     31 HN5         3.9170   -2.0760    4.1990 h4        1 HTM      0.156000
     32 HO4         4.7350   -1.4220   -0.2670 ho        1 HTM      0.268000
     33 HO9        -2.2270    1.7050    7.0550 ho        1 HTM      0.158000
     34 C7         -1.0190    3.0110    3.7830 c3        1 HTM     -0.198000
     35 C10         4.9500   -2.0170    4.6520 c2        1 HTM      0.107000
     36 H52         4.6230    2.6950    5.7310 hn        1 HTM      0.150000
@<TRIPOS>BOND
     1    1    2 1   
     2    2   12 1   
     3    3    4 1   
     4    3   14 1   
     5    4    5 1   
     6    4   18 1   
     7    4   20 1   
     8    5   13 1   
     9    6    7 1   
    10    6   11 1   
    11    6   19 1   
    12    7   14 1   
    13    7   15 1   
    14    7   21 1   
    15    8    9 1   
    16    8   26 1   
    17    8   27 1   
    18    8   34 1   
    19    9   16 1   
    20   10   30 1   
    21   10   35 1   
    22   11   36 1   
    23   13   32 1   
    24   15   22 1   
    25   16   33 1   
    26   17   35 1   
    27   23   34 1   
    28   24   34 1   
    29   25   34 1   
    30   28   29 1   
    31   31   35 1   
@<TRIPOS>SUBSTRUCTURE
     1 HTM         1 TEMP              0 ****  ****    0 ROOT
