@<TRIPOS>MOLECULE
HTM
   36    31     1     0     0
SMALL
bcc


@<TRIPOS>ATOM
      1 O1A         2.0810    1.7940    0.7720 o         1 HTM     -0.245000
      2 C1          3.2350    1.5610    0.9660 c1        1 HTM      0.461000
      3 C2          2.7910    0.3170    3.0390 c1        1 HTM      0.012000
      4 C3          3.1630   -1.0630    3.4420 c3        1 HTM     -0.330000
      5 C4          4.5970   -1.3310    3.1320 c1        1 HTM     -0.009000
      6 C5          2.3800    0.7160    6.1200 c2        1 HTM     -0.097000
      7 C6          1.3800    0.7910    4.9840 c3        1 HTM      0.104000
      8 C8         -1.6910    2.4430    3.4530 c3        1 HTM     -0.267000
      9 C9         -1.6390    1.0640    3.9910 c1        1 HTM     -0.020000
     10 C11         6.3240   -0.4130    5.6720 c1        1 HTM     -0.097000
     11 N5          3.0050    1.7560    6.5140 n2        1 HTM     -0.209000
     12 O1B         4.4180    1.4130    1.0010 o         1 HTM     -0.245000
     13 O4          4.7600   -1.9320    1.9700 oh        1 HTM     -0.212000
     14 O6          2.0250    1.0910    3.7080 os        1 HTM     -0.116000
     15 O7          0.7990   -0.4610    4.7880 oh        1 HTM     -0.359000
     16 O9         -2.7000    0.3450    4.1040 oh        1 HTM     -0.142000
     17 O10         4.8760   -0.3000    7.5350 o         1 HTM     -0.378000
     18 H3          3.0190   -1.2560    4.5440 hc        1 HTM      0.136000
     19 H4          2.4860   -0.3070    6.5430 h4        1 HTM      0.127000
     20 H5          2.4520   -1.7420    2.8860 hc        1 HTM      0.136000
     21 H6          0.6310    1.6260    5.0960 h2        1 HTM      0.144000
     22 H71        -0.1240   -0.3140    4.5020 ho        1 HTM      0.262000
     23 H72         0.2400    2.2170    2.4660 hc        1 HTM      0.093667
     24 H81        -1.1980    1.9630    1.3910 hc        1 HTM      0.093667
     25 H82        -0.7500    3.6370    1.9170 hc        1 HTM      0.093667
     26 H91        -2.7360    2.7740    3.1960 hc        1 HTM      0.099000
     27 H92        -1.3110    3.1240    4.2660 hc        1 HTM      0.099000
     28 H111        7.8780   -2.0590    5.3950 ha        1 HTM      0.011500
     29 H112        8.2810   -1.5280    5.5360 ha        1 HTM      0.011500
     30 H113        6.0920   -0.6510    4.6340 ha        1 HTM      0.204000
     31 HN5         6.4310   -1.6370    7.3730 h4        1 HTM      0.108000
     32 HO4         5.7160   -2.0540    1.8270 ho        1 HTM      0.253000
     33 HO9        -3.5430    0.7560    3.8050 ho        1 HTM      0.166000
     34 C7         -0.7990    2.5700    2.2390 c3        1 HTM     -0.199000
     35 C10         5.8110   -0.8300    6.8980 c2        1 HTM      0.130000
     36 H52         3.6520    1.6090    7.2650 hn        1 HTM      0.179000
@<TRIPOS>BOND
     1    1    2 1   
     2    2   12 1   
     3    3    4 1   
     4    3   14 1   
     5    4    5 1   
     6    4   18 1   
     7    4   20 1   
     8    5   13 1   
     9    6    7 1   
    10    6   11 1   
    11    6   19 1   
    12    7   14 1   
    13    7   15 1   
    14    7   21 1   
    15    8    9 1   
    16    8   26 1   
    17    8   27 1   
    18    8   34 1   
    19    9   16 1   
    20   10   30 1   
    21   10   35 1   
    22   11   36 1   
    23   13   32 1   
    24   15   22 1   
    25   16   33 1   
    26   17   35 1   
    27   23   34 1   
    28   24   34 1   
    29   25   34 1   
    30   28   29 1   
    31   31   35 1   
@<TRIPOS>SUBSTRUCTURE
     1 HTM         1 TEMP              0 ****  ****    0 ROOT
