@<TRIPOS>MOLECULE
HTM
   35    35     1     0     0
SMALL
bcc


@<TRIPOS>ATOM
      1 O1A         0.2160   -4.1250    1.0670 o         1 HTM     -0.798800
      2 C1         -0.5100   -3.6310    0.1690 c         1 HTM      0.933800
      3 C2         -0.8800   -2.1410    0.3260 ce        1 HTM      0.087900
      4 C3         -2.1200   -1.6700    0.5520 c2        1 HTM     -0.397200
      5 C4         -2.4260   -0.2330    0.7710 c3        1 HTM      0.193300
      6 C5         -1.2810    0.6470    0.1850 c3        1 HTM      0.046700
      7 C6          0.0530    0.0200    0.6720 c3        1 HTM      0.319900
      8 C8          3.4400    1.1300   -0.0990 c3        1 HTM     -0.089400
      9 C9          4.8150    0.4870   -0.1000 c3        1 HTM      0.130400
     10 C11        -1.7100    4.4510    0.2250 c3        1 HTM     -0.175100
     11 N5         -1.3990    2.0330    0.5580 n         1 HTM     -0.548900
     12 O1B        -0.9910   -4.2310   -0.8240 o         1 HTM     -0.798800
     13 O4         -3.6690    0.1440    0.2020 oh        1 HTM     -0.607800
     14 O6          0.2240   -1.3240    0.2350 os        1 HTM     -0.338900
     15 O7          1.1220    0.7020    0.0450 os        1 HTM     -0.425600
     16 O9          5.7670    1.5220   -0.3080 oh        1 HTM     -0.607800
     17 O10        -1.7890    2.8440   -1.5620 o         1 HTM     -0.617100
     18 H3         -2.9740   -2.3580    0.5880 ha        1 HTM      0.153000
     19 H4         -2.5610   -0.0190    1.8710 h1        1 HTM      0.051700
     20 H5         -1.3120    0.5780   -0.9430 h1        1 HTM      0.115700
     21 H6          0.1550    0.0570    1.7930 h2        1 HTM      0.032700
     22 H71         2.4950   -0.2400    1.3250 h1        1 HTM      0.048200
     23 H72         2.4740   -0.8140   -0.4090 h1        1 HTM      0.048200
     24 H81         3.2190    1.5630   -1.1080 hc        1 HTM      0.059700
     25 H82         3.4140    1.9730    0.6370 hc        1 HTM      0.059700
     26 H91         5.0180   -0.0170    0.8830 h1        1 HTM      0.024200
     27 H92         4.8920   -0.2770   -0.9200 h1        1 HTM      0.024200
     28 H111       -1.9120    5.1620   -0.6120 hc        1 HTM      0.056700
     29 H112       -2.5340    4.5280    0.9730 hc        1 HTM      0.056700
     30 H113       -0.7450    4.7270    0.7120 hc        1 HTM      0.056700
     31 HN5        -1.3040    2.2500    1.5190 hn        1 HTM      0.299500
     32 HO4        -3.6710   -0.1740   -0.7090 ho        1 HTM      0.408000
     33 HO9         6.6240    1.0890   -0.3860 ho        1 HTM      0.391000
     34 C7          2.3960    0.0860    0.2560 c3        1 HTM      0.138400
     35 C10        -1.6360    3.0480   -0.3400 c         1 HTM      0.669100
@<TRIPOS>BOND
     1    1    2 1   
     2    2    3 1   
     3    2   12 1   
     4    3    4 2   
     5    3   14 1   
     6    4    5 1   
     7    4   18 1   
     8    5    6 1   
     9    5   13 1   
    10    5   19 1   
    11    6    7 1   
    12    6   11 1   
    13    6   20 1   
    14    7   14 1   
    15    7   15 1   
    16    7   21 1   
    17    8    9 1   
    18    8   24 1   
    19    8   25 1   
    20    8   34 1   
    21    9   16 1   
    22    9   26 1   
    23    9   27 1   
    24   10   28 1   
    25   10   29 1   
    26   10   30 1   
    27   10   35 1   
    28   11   31 1   
    29   11   35 1   
    30   13   32 1   
    31   15   34 1   
    32   16   33 1   
    33   17   35 2   
    34   22   34 1   
    35   23   34 1   
@<TRIPOS>SUBSTRUCTURE
     1 HTM         1 TEMP              0 ****  ****    0 ROOT
