@<TRIPOS>MOLECULE
HTM
   36    32     1     0     0
SMALL
bcc


@<TRIPOS>ATOM
      1 O1A         0.6750   -2.9090    1.9020 o         1 HTM     -0.214500
      2 C1          1.0470   -3.5830    0.9930 c1        1 HTM      0.431000
      3 C2          3.7540   -0.8220    0.3790 c1        1 HTM      0.069000
      4 C3          4.8200    0.1950    0.1960 c3        1 HTM     -0.352000
      5 C4          4.3180    1.5930    0.2130 c1        1 HTM     -0.034000
      6 C5          3.4220   -0.1490    3.5760 c2        1 HTM     -0.105000
      7 C6          2.6510    0.1910    2.3160 c3        1 HTM      0.078000
      8 C8         -0.1630    2.7340    5.7630 c3        1 HTM     -0.272000
      9 C9          0.5370    1.4580    6.0640 c1        1 HTM      0.001000
     10 C11         3.3600   -0.5830    8.8060 c3        1 HTM     -0.289000
     11 N5          4.6800   -0.3650    3.5650 n2        1 HTM     -0.240000
     12 O1B         1.3940   -4.2760    0.0930 o         1 HTM     -0.214500
     13 O4          4.9630    2.3770   -0.6300 oh        1 HTM     -0.220000
     14 O6          2.8580   -0.8200    1.2910 os        1 HTM     -0.136000
     15 O7          1.2670    0.1100    2.5170 oh        1 HTM     -0.338000
     16 O9          0.6460    0.5420    5.1650 oh        1 HTM     -0.167000
     17 O10         4.0930   -0.4790    6.5280 o         1 HTM     -0.338000
     18 H3          5.5530    0.1000    1.0550 hc        1 HTM      0.153000
     19 H4          2.7690   -0.1640    4.4810 h4        1 HTM      0.130000
     20 H5          5.3810   -0.0680   -0.7450 hc        1 HTM      0.153000
     21 H6          2.8750    1.2250    1.9280 h2        1 HTM      0.176000
     22 H71         1.0340   -0.8240    2.6380 ho        1 HTM      0.235000
     23 H72        -1.9740    2.3070    6.8800 hc        1 HTM      0.081000
     24 H81        -1.6080    4.0680    6.6590 hc        1 HTM      0.081000
     25 H82        -0.6520    3.0820    7.8470 hc        1 HTM      0.081000
     26 H91         0.6310    3.5320    5.7220 hc        1 HTM      0.098500
     27 H92        -0.6790    2.7270    4.7620 hc        1 HTM      0.098500
     28 H111        2.5520   -1.2940    9.1070 hc        1 HTM      0.102667
     29 H112        4.3520   -1.0480    9.0230 hc        1 HTM      0.102667
     30 H113        3.2550    0.3490    9.4150 hc        1 HTM      0.102667
     31 HN5         2.2430    0.2280    7.0670 h4        1 HTM      0.138000
     32 HO4         4.5810    3.2700   -0.5520 ho        1 HTM      0.253000
     33 HO9         0.2470    0.7290    4.2820 ho        1 HTM      0.188000
     34 C7         -1.1550    3.0650    6.8490 c3        1 HTM     -0.187000
     35 C10         3.2110   -0.2490    7.3620 c2        1 HTM      0.177000
     36 H52         5.0910   -0.5590    4.4570 hn        1 HTM      0.178000
@<TRIPOS>BOND
     1    1    2 1   
     2    2   12 1   
     3    3    4 1   
     4    3   14 1   
     5    4    5 1   
     6    4   18 1   
     7    4   20 1   
     8    5   13 1   
     9    6    7 1   
    10    6   11 1   
    11    6   19 1   
    12    7   14 1   
    13    7   15 1   
    14    7   21 1   
    15    8    9 1   
    16    8   26 1   
    17    8   27 1   
    18    8   34 1   
    19    9   16 1   
    20   10   28 1   
    21   10   29 1   
    22   10   30 1   
    23   10   35 1   
    24   11   36 1   
    25   13   32 1   
    26   15   22 1   
    27   16   33 1   
    28   17   35 1   
    29   23   34 1   
    30   24   34 1   
    31   25   34 1   
    32   31   35 1   
@<TRIPOS>SUBSTRUCTURE
     1 HTM         1 TEMP              0 ****  ****    0 ROOT
