@<TRIPOS>MOLECULE
HTN
   20    19     1     0     0
SMALL
bcc


@<TRIPOS>ATOM
      1 O          -2.7470   -0.6670    0.1420 o         1 HTN     -0.827800
      2 C          -2.1150    0.3940   -0.1320 c         1 HTN      0.914600
      3 CE          3.6470    1.2340   -0.1260 c3        1 HTN      0.081300
      4 N          -0.5720   -0.6840   -1.8000 n3        1 HTN     -0.896800
      5 CA         -0.6510    0.2120   -0.6680 c3        1 HTN     -0.005500
      6 CB          0.1890   -0.2300    0.5580 c3        1 HTN      0.068100
      7 OG         -0.1110   -1.5470    0.9810 oh        1 HTN     -0.619800
      8 CG          1.6710   -0.2080    0.1760 c         1 HTN      0.654100
      9 OD1         2.2710   -1.1920   -0.2960 o         1 HTN     -0.613100
     10 ND2         2.3370    0.9980    0.3820 n         1 HTN     -0.577900
     11 OXT        -2.5350    1.5660    0.0280 o         1 HTN     -0.827800
     12 HE1         4.1710    0.2560   -0.3010 h1        1 HTN      0.029700
     13 HE2         3.6220    1.8040   -1.0950 h1        1 HTN      0.029700
     14 HE3         4.2320    1.8350    0.6210 h1        1 HTN      0.029700
     15 H           0.2640   -1.2390   -1.7430 hn        1 HTN      0.346800
     16 H2         -1.3610   -1.3070   -1.7820 hn        1 HTN      0.346800
     17 HA         -0.2680    1.2170   -1.0030 h1        1 HTN      0.052700
     18 HB3        -0.0170    0.4730    1.4150 h1        1 HTN      0.055700
     19 HOG        -1.0700   -1.6670    0.8480 ho        1 HTN      0.454000
     20 HD22        1.7790    1.7990    0.5650 hn        1 HTN      0.304500
@<TRIPOS>BOND
     1    1    2 1   
     2    2    5 1   
     3    2   11 1   
     4    3   10 1   
     5    3   12 1   
     6    3   13 1   
     7    3   14 1   
     8    4    5 1   
     9    4   15 1   
    10    4   16 1   
    11    5    6 1   
    12    5   17 1   
    13    6    7 1   
    14    6    8 1   
    15    6   18 1   
    16    7   19 1   
    17    8    9 2   
    18    8   10 1   
    19   10   20 1   
@<TRIPOS>SUBSTRUCTURE
     1 HTN         1 TEMP              0 ****  ****    0 ROOT
