@<TRIPOS>MOLECULE
HTN
   20    18     1     0     0
SMALL
bcc


@<TRIPOS>ATOM
      1 O          -1.8900   -1.2450   -2.6530 o         1 HTN     -0.796000
      2 C          -0.6810   -1.1820   -2.3100 c1        1 HTN      0.801000
      3 CE          1.7910    2.3200    1.6070 c3        1 HTN      0.081300
      4 N          -0.9310   -2.4210   -0.2940 nh        1 HTN     -0.483100
      5 CA         -0.3040   -1.3000   -0.8460 c2        1 HTN      0.106200
      6 CB         -0.7560   -0.0530   -0.1020 c3        1 HTN     -0.007200
      7 OG         -1.8560   -0.3540    0.6720 oh        1 HTN     -0.619800
      8 CG          0.3690    0.4420    0.7920 c         1 HTN      0.654100
      9 OD1         0.7980   -0.2680    1.6680 o         1 HTN     -0.613100
     10 ND2         0.8460    1.8010    0.6650 n         1 HTN     -0.577900
     11 OXT         0.2220   -1.1620   -3.1920 o         1 HTN     -0.796000
     12 HE1         2.6440    1.8590    1.5010 h1        1 HTN      0.029700
     13 HE2         1.4540    2.1810    2.5230 h1        1 HTN      0.029700
     14 HE3         1.9180    3.2990    1.4440 h1        1 HTN      0.029700
     15 H          -0.3690   -2.8240    0.2960 hn        1 HTN      0.191700
     16 H2         -1.1480   -3.0150   -0.9680 hn        1 HTN      0.191700
     17 HA          0.6570   -1.3930   -0.7660 h4        1 HTN     -0.037200
     18 HB3        -0.9890    0.6350   -0.7390 h1        1 HTN      0.055700
     19 HOG        -2.3780    0.3820    0.7550 ho        1 HTN      0.454000
     20 HD22        0.6030    2.2990   -0.0520 hn        1 HTN      0.304500
@<TRIPOS>BOND
     1    1    2 2   
     2    2   11 2   
     3    3   10 1   
     4    3   12 1   
     5    3   13 1   
     6    3   14 1   
     7    4    5 2   
     8    4   15 1   
     9    4   16 1   
    10    5    6 1   
    11    5   17 1   
    12    6    7 1   
    13    6    8 1   
    14    6   18 1   
    15    7   19 1   
    16    8    9 2   
    17    8   10 1   
    18   10   20 1   
@<TRIPOS>SUBSTRUCTURE
     1 HTN         1 TEMP              0 ****  ****    0 ROOT
