@<TRIPOS>MOLECULE
HTO
   26    25     1     0     0
SMALL
bcc


@<TRIPOS>ATOM
      1 C1         -2.7120    1.1470    1.3680 c3        1 HTO      0.091400
      2 O1         -3.1820    2.2790    2.0650 oh        1 HTO     -0.615800
      3 C2         -1.2000    1.1470    1.3680 c3        1 HTO      0.109100
      4 O2         -0.7310    1.1470    2.6950 oh        1 HTO     -0.612800
      5 C3         -0.6960   -0.0870    0.6550 c3        1 HTO      0.147100
      6 O3         -0.5210   -1.1280    1.5870 oh        1 HTO     -0.599800
      7 C4          0.6260    0.2200   -0.0120 c3        1 HTO     -0.108400
      8 C5          0.9580   -0.8750   -1.0010 c3        1 HTO     -0.079400
      9 C6          2.2790   -0.5660   -1.6700 c3        1 HTO     -0.079400
     10 C7          2.6100   -1.6590   -2.6630 c3        1 HTO     -0.092100
     11 H11        -3.0370    1.1730    0.4480 h1        1 HTO      0.043700
     12 H12        -3.0370    0.3370    1.8050 h1        1 HTO      0.043700
     13 HO1        -4.0610    2.3480    1.9600 ho        1 HTO      0.410000
     14 H2         -0.8750    1.9440    0.9080 h1        1 HTO      0.052700
     15 HO2        -0.4020    1.9470    2.8930 ho        1 HTO      0.426000
     16 H3         -1.3460   -0.3610   -0.0200 h1        1 HTO      0.073700
     17 HO3        -1.0810   -1.7910    1.3990 ho        1 HTO      0.417000
     18 H41         1.3270    0.2720    0.6650 hc        1 HTO      0.052700
     19 H42         0.5630    1.0740   -0.4810 hc        1 HTO      0.052700
     20 H51         0.2560   -0.9280   -1.6760 hc        1 HTO      0.046700
     21 H52         1.0230   -1.7290   -0.5310 hc        1 HTO      0.046700
     22 H61         2.2150    0.2890   -2.1370 hc        1 HTO      0.038200
     23 H62         2.9820   -0.5160   -0.9950 hc        1 HTO      0.038200
     24 H71         2.6670   -2.5150   -2.1970 hc        1 HTO      0.032700
     25 H72         1.9100   -1.7040   -3.3420 hc        1 HTO      0.032700
     26 H73         3.4650   -1.4630   -3.0890 hc        1 HTO      0.032700
@<TRIPOS>BOND
     1    1    2 1   
     2    1    3 1   
     3    1   11 1   
     4    1   12 1   
     5    2   13 1   
     6    3    4 1   
     7    3    5 1   
     8    3   14 1   
     9    4   15 1   
    10    5    6 1   
    11    5    7 1   
    12    5   16 1   
    13    6   17 1   
    14    7    8 1   
    15    7   18 1   
    16    7   19 1   
    17    8    9 1   
    18    8   20 1   
    19    8   21 1   
    20    9   10 1   
    21    9   22 1   
    22    9   23 1   
    23   10   24 1   
    24   10   25 1   
    25   10   26 1   
@<TRIPOS>SUBSTRUCTURE
     1 HTO         1 TEMP              0 ****  ****    0 ROOT
