@<TRIPOS>MOLECULE
HTO
   26    25     1     0     0
SMALL
bcc


@<TRIPOS>ATOM
      1 C1         -0.6560   -0.4230   -2.7310 c3        1 HTO      0.091400
      2 O1          0.1230   -0.2820   -3.9090 oh        1 HTO     -0.615800
      3 C2          0.2940   -0.1790   -1.5540 c3        1 HTO      0.109100
      4 O2          0.9190    1.0910   -1.6650 oh        1 HTO     -0.612800
      5 C3         -0.4980   -0.1650   -0.2330 c3        1 HTO      0.147100
      6 O3         -1.3810    0.9420   -0.1980 oh        1 HTO     -0.599800
      7 C4          0.4610   -0.1620    0.9530 c3        1 HTO     -0.108400
      8 C5         -0.2880   -0.2360    2.2640 c3        1 HTO     -0.079400
      9 C6          0.6540   -0.1300    3.4430 c3        1 HTO     -0.079400
     10 C7         -0.0870   -0.2170    4.7520 c3        1 HTO     -0.092100
     11 H11        -1.0830   -1.4590   -2.6770 h1        1 HTO      0.043700
     12 H12        -1.4860    0.3310   -2.7110 h1        1 HTO      0.043700
     13 HO1        -0.4920   -0.2720   -4.6510 ho        1 HTO      0.410000
     14 H2          1.0830   -0.9800   -1.5300 h1        1 HTO      0.052700
     15 HO2         1.2710    1.1520   -2.5630 ho        1 HTO      0.426000
     16 H3         -1.1740   -1.0640   -0.1940 h1        1 HTO      0.073700
     17 HO3        -0.8400    1.7380   -0.2830 ho        1 HTO      0.417000
     18 H41         1.0810    0.7730    0.9130 hc        1 HTO      0.052700
     19 H42         1.1580   -1.0340    0.8600 hc        1 HTO      0.052700
     20 H51        -0.8560   -1.2020    2.3210 hc        1 HTO      0.046700
     21 H52        -1.0450    0.5930    2.3040 hc        1 HTO      0.046700
     22 H61         1.2120    0.8420    3.3900 hc        1 HTO      0.038200
     23 H62         1.4170   -0.9510    3.3870 hc        1 HTO      0.038200
     24 H71         0.6250   -0.1330    5.6080 hc        1 HTO      0.032700
     25 H72        -0.8380    0.6060    4.8350 hc        1 HTO      0.032700
     26 H73        -0.6260   -1.1920    4.8360 hc        1 HTO      0.032700
@<TRIPOS>BOND
     1    1    2 1   
     2    1    3 1   
     3    1   11 1   
     4    1   12 1   
     5    2   13 1   
     6    3    4 1   
     7    3    5 1   
     8    3   14 1   
     9    4   15 1   
    10    5    6 1   
    11    5    7 1   
    12    5   16 1   
    13    6   17 1   
    14    7    8 1   
    15    7   18 1   
    16    7   19 1   
    17    8    9 1   
    18    8   20 1   
    19    8   21 1   
    20    9   10 1   
    21    9   22 1   
    22    9   23 1   
    23   10   24 1   
    24   10   25 1   
    25   10   26 1   
@<TRIPOS>SUBSTRUCTURE
     1 HTO         1 TEMP              0 ****  ****    0 ROOT
