@<TRIPOS>MOLECULE
HTO
   26    25     1     0     0
SMALL
bcc


@<TRIPOS>ATOM
      1 C1          0.0280    0.1230   -0.1620 c3        1 HTO      0.091400
      2 O1         -0.3580    1.2350    0.6300 oh        1 HTO     -0.615800
      3 C2          1.5460   -0.0100   -0.0090 c3        1 HTO      0.109100
      4 O2          1.9070   -0.1420    1.3580 oh        1 HTO     -0.612800
      5 C3          2.0370   -1.2860   -0.7190 c3        1 HTO      0.147100
      6 O3          1.5250   -2.4380   -0.0730 oh        1 HTO     -0.599800
      7 C4          3.5610   -1.3000   -0.7770 c3        1 HTO     -0.108400
      8 C5          4.0690   -2.5000   -1.5450 c3        1 HTO     -0.079400
      9 C6          5.5810   -2.5710   -1.5170 c3        1 HTO     -0.079400
     10 C7          6.0920   -3.7570   -2.2930 c3        1 HTO     -0.092100
     11 H11        -0.2400    0.3060   -1.2350 h1        1 HTO      0.043700
     12 H12        -0.4730   -0.8150    0.1990 h1        1 HTO      0.043700
     13 HO1        -1.3200    1.2280    0.6720 ho        1 HTO      0.410000
     14 H2          2.0520    0.8970   -0.4400 h1        1 HTO      0.052700
     15 HO2         1.4540    0.5660    1.8360 ho        1 HTO      0.426000
     16 H3          1.6000   -1.3280   -1.7560 h1        1 HTO      0.073700
     17 HO3         1.8370   -2.4120    0.8420 ho        1 HTO      0.417000
     18 H41         3.9620   -1.3130    0.2710 hc        1 HTO      0.052700
     19 H42         3.9160   -0.3550   -1.2640 hc        1 HTO      0.052700
     20 H51         3.7140   -2.4450   -2.6080 hc        1 HTO      0.046700
     21 H52         3.6340   -3.4340   -1.0990 hc        1 HTO      0.046700
     22 H61         6.0080   -1.6270   -1.9470 hc        1 HTO      0.038200
     23 H62         5.9320   -2.6370   -0.4530 hc        1 HTO      0.038200
     24 H71         5.7760   -3.6950   -3.3620 hc        1 HTO      0.032700
     25 H72         7.2070   -3.7940   -2.2560 hc        1 HTO      0.032700
     26 H73         5.6930   -4.7090   -1.8650 hc        1 HTO      0.032700
@<TRIPOS>BOND
     1    1    2 1   
     2    1    3 1   
     3    1   11 1   
     4    1   12 1   
     5    2   13 1   
     6    3    4 1   
     7    3    5 1   
     8    3   14 1   
     9    4   15 1   
    10    5    6 1   
    11    5    7 1   
    12    5   16 1   
    13    6   17 1   
    14    7    8 1   
    15    7   18 1   
    16    7   19 1   
    17    8    9 1   
    18    8   20 1   
    19    8   21 1   
    20    9   10 1   
    21    9   22 1   
    22    9   23 1   
    23   10   24 1   
    24   10   25 1   
    25   10   26 1   
@<TRIPOS>SUBSTRUCTURE
     1 HTO         1 TEMP              0 ****  ****    0 ROOT
