@<TRIPOS>MOLECULE
HTO
   26    25     1     0     0
SMALL
bcc


@<TRIPOS>ATOM
      1 C1          0.0560    0.1670   -0.1450 c3        1 HTO      0.091400
      2 O1         -0.3070    1.2880    0.6460 oh        1 HTO     -0.615800
      3 C2          1.5730    0.0130   -0.0040 c3        1 HTO      0.109100
      4 O2          1.9420   -0.1210    1.3610 oh        1 HTO     -0.612800
      5 C3          2.0400   -1.2720   -0.7120 c3        1 HTO      0.147100
      6 O3          1.5160   -2.4150   -0.0600 oh        1 HTO     -0.599800
      7 C4          3.5630   -1.3100   -0.7820 c3        1 HTO     -0.108400
      8 C5          4.0480   -2.5180   -1.5500 c3        1 HTO     -0.079400
      9 C6          5.5590   -2.6120   -1.5320 c3        1 HTO     -0.079400
     10 C7          6.0460   -3.8080   -2.3090 c3        1 HTO     -0.092100
     11 H11        -0.2170    0.3520   -1.2170 h1        1 HTO      0.043700
     12 H12        -0.4560   -0.7610    0.2220 h1        1 HTO      0.043700
     13 HO1        -1.2700    1.2950    0.6950 ho        1 HTO      0.410000
     14 H2          2.0890    0.9110   -0.4410 h1        1 HTO      0.052700
     15 HO2         1.5030    0.5950    1.8400 ho        1 HTO      0.426000
     16 H3          1.5950   -1.3110   -1.7460 h1        1 HTO      0.073700
     17 HO3         1.8340   -2.3910    0.8530 ho        1 HTO      0.417000
     18 H41         3.9720   -1.3260    0.2630 hc        1 HTO      0.052700
     19 H42         3.9290   -0.3710   -1.2730 hc        1 HTO      0.052700
     20 H51         3.6870   -2.4610   -2.6100 hc        1 HTO      0.046700
     21 H52         3.6020   -3.4450   -1.0990 hc        1 HTO      0.046700
     22 H61         5.9970   -1.6750   -1.9670 hc        1 HTO      0.038200
     23 H62         5.9170   -2.6810   -0.4710 hc        1 HTO      0.038200
     24 H71         5.7240   -3.7420   -3.3770 hc        1 HTO      0.032700
     25 H72         7.1610   -3.8610   -2.2800 hc        1 HTO      0.032700
     26 H73         5.6360   -4.7520   -1.8780 hc        1 HTO      0.032700
@<TRIPOS>BOND
     1    1    2 1   
     2    1    3 1   
     3    1   11 1   
     4    1   12 1   
     5    2   13 1   
     6    3    4 1   
     7    3    5 1   
     8    3   14 1   
     9    4   15 1   
    10    5    6 1   
    11    5    7 1   
    12    5   16 1   
    13    6   17 1   
    14    7    8 1   
    15    7   18 1   
    16    7   19 1   
    17    8    9 1   
    18    8   20 1   
    19    8   21 1   
    20    9   10 1   
    21    9   22 1   
    22    9   23 1   
    23   10   24 1   
    24   10   25 1   
    25   10   26 1   
@<TRIPOS>SUBSTRUCTURE
     1 HTO         1 TEMP              0 ****  ****    0 ROOT
