@<TRIPOS>MOLECULE
HTP
   26    27     1     0     0
SMALL
bcc


@<TRIPOS>ATOM
      1 C1          0.0730   -0.0400   -0.0380 cc        1 HTP     -0.103900
      2 C2          1.5690   -0.0050    0.0560 c3        1 HTP      0.167400
      3 C3          2.0140    0.0900    1.5360 c3        1 HTP      0.105100
      4 C4          1.1940    1.1500    2.2980 c3        1 HTP      0.145100
      5 C5         -0.3120    0.7760    2.3410 c3        1 HTP      0.001000
      6 C6         -1.1210    1.9670    2.8960 c3        1 HTP      0.115400
      7 C7         -0.8270   -0.4300   -1.0960 cd        1 HTP      0.306200
      8 N17        -2.0390    0.1950    0.5910 na        1 HTP      0.059100
      9 N18        -2.1110   -0.2470   -0.6430 nd        1 HTP     -0.354800
     10 N1         -0.7530    0.3540    1.0000 na        1 HTP     -0.014400
     11 O2          2.1250   -1.2000   -0.4400 oh        1 HTP     -0.560800
     12 O3          3.3500    0.5410    1.5930 oh        1 HTP     -0.584800
     13 O4          1.5820    1.1880    3.6560 oh        1 HTP     -0.587800
     14 O6         -2.4800    1.6030    2.9940 oh        1 HTP     -0.629800
     15 H2          1.9380    0.8980   -0.5150 h1        1 HTP      0.108700
     16 H3          1.9100   -0.9180    2.0250 h1        1 HTP      0.092700
     17 H4          1.3400    2.1620    1.8260 h1        1 HTP      0.081700
     18 H5         -0.4520   -0.1160    3.0270 h1        1 HTP      0.126700
     19 H61        -0.6670    2.2420    3.8870 h1        1 HTP      0.101200
     20 H62        -1.0770    2.8500    2.2020 h1        1 HTP      0.101200
     21 H7         -0.5970   -0.8170   -2.0940 h4        1 HTP      0.110100
     22 HN7        -2.8250    0.5240    1.1590 hn        1 HTP      0.427700
     23 HO2         2.2110   -1.1200   -1.4010 ho        1 HTP      0.435000
     24 HO3         3.9140   -0.1930    1.3070 ho        1 HTP      0.447000
     25 HO4         2.5430    1.3270    3.6730 ho        1 HTP      0.460000
     26 HO6        -2.6860    1.4130    3.9190 ho        1 HTP      0.447000
@<TRIPOS>BOND
     1    1    2 1   
     2    1    7 2   
     3    1   10 1   
     4    2    3 1   
     5    2   11 1   
     6    2   15 1   
     7    3    4 1   
     8    3   12 1   
     9    3   16 1   
    10    4    5 1   
    11    4   13 1   
    12    4   17 1   
    13    5    6 1   
    14    5   10 1   
    15    5   18 1   
    16    6   14 1   
    17    6   19 1   
    18    6   20 1   
    19    7    9 1   
    20    7   21 1   
    21    8    9 2   
    22    8   10 1   
    23    8   22 1   
    24   11   23 1   
    25   12   24 1   
    26   13   25 1   
    27   14   26 1   
@<TRIPOS>SUBSTRUCTURE
     1 HTP         1 TEMP              0 ****  ****    0 ROOT
