@<TRIPOS>MOLECULE
HTP
   26    27     1     0     0
SMALL
bcc


@<TRIPOS>ATOM
      1 C1         -0.1000   -1.3970    0.1580 cc        1 HTP     -0.103900
      2 C2         -1.5390   -1.0000    0.2970 c3        1 HTP      0.167400
      3 C3         -1.7510    0.4450   -0.2190 c3        1 HTP      0.105100
      4 C4         -0.6600    1.3930    0.3150 c3        1 HTP      0.145100
      5 C5          0.7470    0.9770   -0.1870 c3        1 HTP      0.001000
      6 C6          1.8220    1.7980    0.5550 c3        1 HTP      0.115400
      7 C7          0.5620   -2.6790    0.1810 cd        1 HTP      0.306200
      8 N17         2.0870   -1.1650   -0.1150 na        1 HTP      0.059100
      9 N18         1.9080   -2.4580    0.0200 nd        1 HTP     -0.354800
     10 N1          0.9180   -0.4780   -0.0240 na        1 HTP     -0.014400
     11 O2         -2.3600   -1.8200   -0.5010 oh        1 HTP     -0.560800
     12 O3         -2.9660    0.9490    0.2920 oh        1 HTP     -0.584800
     13 O4         -0.8440    2.6950   -0.2040 oh        1 HTP     -0.587800
     14 O6          3.0960    1.4620    0.0520 oh        1 HTP     -0.629800
     15 H2         -1.8200   -1.0630    1.3900 h1        1 HTP      0.108700
     16 H3         -1.7600    0.4450   -1.3450 h1        1 HTP      0.092700
     17 H4         -0.6900    1.4190    1.4410 h1        1 HTP      0.081700
     18 H5          0.8220    1.1920   -1.2990 h1        1 HTP      0.126700
     19 H61         1.8390    1.5520    1.6520 h1        1 HTP      0.101200
     20 H62         1.5650    2.8830    0.4140 h1        1 HTP      0.101200
     21 H7          0.1310   -3.6790    0.2930 h4        1 HTP      0.110100
     22 HN7         2.9900   -0.6810   -0.1470 hn        1 HTP      0.427700
     23 HO2        -2.5620   -2.6250   -0.0020 ho        1 HTP      0.435000
     24 HO3        -3.6850    0.5060   -0.1840 ho        1 HTP      0.447000
     25 HO4        -1.7540    2.9600    0.0080 ho        1 HTP      0.460000
     26 HO6         3.3920    2.1650   -0.5420 ho        1 HTP      0.447000
@<TRIPOS>BOND
     1    1    2 1   
     2    1    7 2   
     3    1   10 1   
     4    2    3 1   
     5    2   11 1   
     6    2   15 1   
     7    3    4 1   
     8    3   12 1   
     9    3   16 1   
    10    4    5 1   
    11    4   13 1   
    12    4   17 1   
    13    5    6 1   
    14    5   10 1   
    15    5   18 1   
    16    6   14 1   
    17    6   19 1   
    18    6   20 1   
    19    7    9 1   
    20    7   21 1   
    21    8    9 2   
    22    8   10 1   
    23    8   22 1   
    24   11   23 1   
    25   12   24 1   
    26   13   25 1   
    27   14   26 1   
@<TRIPOS>SUBSTRUCTURE
     1 HTP         1 TEMP              0 ****  ****    0 ROOT
