@<TRIPOS>MOLECULE
HTP
   26    24     1     0     0
SMALL
bcc


@<TRIPOS>ATOM
      1 C1         -0.6040   -0.4230   -1.5120 c1        1 HTP     -0.007000
      2 C2          1.0110   -0.4230   -1.5120 c2        1 HTP      0.049000
      3 C3          1.6400   -0.4230   -0.2430 c3        1 HTP     -0.006000
      4 C4          0.9760    0.3400    0.8200 c3        1 HTP      0.034000
      5 C5         -0.4230    0.0490    1.0540 c3        1 HTP     -0.019000
      6 C6         -1.0400    1.2480    1.7490 c3        1 HTP     -0.035000
      7 C7         -1.5450   -0.6800   -2.4570 c1        1 HTP     -0.159000
      8 N17        -2.6110   -0.4540   -0.4230 n2        1 HTP     -0.061000
      9 N18        -2.8070   -0.7080   -1.8210 n2        1 HTP      0.078000
     10 N1         -1.2950   -0.2800   -0.2110 n3        1 HTP     -0.058000
     11 O2          1.4600   -1.6040   -2.2360 oh        1 HTP     -0.288000
     12 O3          3.0480    0.1470   -0.4200 oh        1 HTP     -0.312000
     13 O4          1.7250    0.0840    2.1110 oh        1 HTP     -0.315000
     14 O6         -2.0990    0.8180    2.5800 oh        1 HTP     -0.357000
     15 H2          1.3130    0.3660   -2.0000 h4        1 HTP      0.148000
     16 H3          1.7220   -1.3490    0.0540 h1        1 HTP      0.132000
     17 H4          1.0550    1.2890    0.6060 h1        1 HTP      0.121000
     18 H5         -0.4740   -0.7130    1.6620 h1        1 HTP      0.166000
     19 H61        -1.3840    1.8710    1.0800 h1        1 HTP      0.140500
     20 H62        -0.3620    1.6950    2.2910 h1        1 HTP      0.140500
     21 H7         -1.3780   -0.8210   -3.4090 DU        1 HTP      0.312500
     22 HN7        -3.2650   -0.4180    0.2120 DU        1 HTP      0.312500
     23 HO2         1.7800   -1.3620   -3.0280 ho        1 HTP      0.234000
     24 HO3         3.6450   -0.5010   -0.3160 ho        1 HTP      0.246000
     25 HO4         2.2740    0.7610    2.2740 ho        1 HTP      0.259000
     26 HO6        -2.3630    1.4910    3.0950 ho        1 HTP      0.246000
@<TRIPOS>BOND
     1    1    7 1   
     2    1   10 1   
     3    2    3 1   
     4    2   11 1   
     5    2   15 1   
     6    3    4 1   
     7    3   12 1   
     8    3   16 1   
     9    4    5 1   
    10    4   13 1   
    11    4   17 1   
    12    5    6 1   
    13    5   10 1   
    14    5   18 1   
    15    6   14 1   
    16    6   19 1   
    17    6   20 1   
    18    7    9 1   
    19    8    9 1   
    20    8   10 1   
    21   11   23 1   
    22   12   24 1   
    23   13   25 1   
    24   14   26 1   
@<TRIPOS>SUBSTRUCTURE
     1 HTP         1 TEMP              0 ****  ****    0 ROOT
