@<TRIPOS>MOLECULE
HTQ
   41    43     1     0     0
SMALL
bcc


@<TRIPOS>ATOM
      1 C1         -0.6150    0.1040    0.1680 c3        1 HTQ      0.155000
      2 C2          0.8420   -0.3730    0.0960 c3        1 HTQ     -0.072900
      3 C3          1.5840   -0.2450    1.4290 c3        1 HTQ      0.159100
      4 C4          1.0830    0.8570    2.3640 c3        1 HTQ     -0.072900
      5 C5         -0.4020    1.1900    2.1690 c3        1 HTQ      0.155000
      6 C6         -1.2610   -0.0610    2.5070 c3        1 HTQ     -0.105900
      7 C7         -1.3990   -0.7910    1.1700 c3        1 HTQ     -0.105900
      8 N8         -0.6210    1.4770    0.7290 n3        1 HTQ     -0.694600
      9 C9         -1.8350    2.2090    0.4610 c3        1 HTQ      0.144100
     10 O10         1.4270   -1.5350    2.0770 os        1 HTQ     -0.442900
     11 C11         2.4130   -1.9520    2.9150 c         1 HTQ      0.604100
     12 O12         3.3920   -1.2350    3.1310 o         1 HTQ     -0.541000
     13 C13         2.1470   -3.3180    3.5310 c3        1 HTQ      0.153400
     14 C14         2.6170   -4.4100    2.6150 ca        1 HTQ     -0.129300
     15 C15         2.1770   -4.4350    1.2860 ca        1 HTQ     -0.112500
     16 C16         3.4520   -5.4280    3.0860 ca        1 HTQ     -0.112500
     17 C17         2.5750   -5.4650    0.4370 ca        1 HTQ     -0.130000
     18 C18         3.8490   -6.4560    2.2320 ca        1 HTQ     -0.130000
     19 C19         3.4130   -6.4760    0.9080 ca        1 HTQ     -0.119000
     20 O20         2.7410   -3.3660    4.8110 oh        1 HTQ     -0.577800
     21 H11        -1.0740    0.0840   -0.8530 h1        1 HTQ      0.065200
     22 H21         0.8550   -1.4440   -0.2340 hc        1 HTQ      0.059950
     23 H22         1.3950    0.2360   -0.6650 hc        1 HTQ      0.059950
     24 H31         2.6830   -0.0850    1.2330 h1        1 HTQ      0.071700
     25 H41         1.2520    0.5420    3.4260 hc        1 HTQ      0.059950
     26 H42         1.6940    1.7790    2.1760 hc        1 HTQ      0.059950
     27 H51        -0.6830    2.0700    2.8020 h1        1 HTQ      0.065200
     28 H61        -2.2560    0.2450    2.9090 hc        1 HTQ      0.050950
     29 H62        -0.7510   -0.6980    3.2680 hc        1 HTQ      0.050950
     30 H71        -2.4670   -0.8780    0.8620 hc        1 HTQ      0.050950
     31 H72        -0.9550   -1.8140    1.2170 hc        1 HTQ      0.050950
     32 H91        -1.7580    3.2160    0.9480 h1        1 HTQ      0.034033
     33 H92        -1.9270    2.3510   -0.6480 h1        1 HTQ      0.034033
     34 H93        -2.7650    1.7010    0.8350 h1        1 HTQ      0.034033
     35 H131        1.0400   -3.4350    3.7270 h1        1 HTQ      0.112700
     36 H151        1.5170   -3.6320    0.9180 ha        1 HTQ      0.145500
     37 H161        3.7860   -5.4200    4.1360 ha        1 HTQ      0.145500
     38 H171        2.2270   -5.4790   -0.6060 ha        1 HTQ      0.135000
     39 H181        4.5070   -7.2540    2.6080 ha        1 HTQ      0.135000
     40 H191        3.7270   -7.2880    0.2360 ha        1 HTQ      0.134000
     41 H201        3.6720   -3.1150    4.7140 ho        1 HTQ      0.423000
@<TRIPOS>BOND
     1    1    2 1   
     2    1    7 1   
     3    1    8 1   
     4    1   21 1   
     5    2    3 1   
     6    2   22 1   
     7    2   23 1   
     8    3    4 1   
     9    3   10 1   
    10    3   24 1   
    11    4    5 1   
    12    4   25 1   
    13    4   26 1   
    14    5    6 1   
    15    5    8 1   
    16    5   27 1   
    17    6    7 1   
    18    6   28 1   
    19    6   29 1   
    20    7   30 1   
    21    7   31 1   
    22    8    9 1   
    23    9   32 1   
    24    9   33 1   
    25    9   34 1   
    26   10   11 1   
    27   11   12 2   
    28   11   13 1   
    29   13   14 1   
    30   13   20 1   
    31   13   35 1   
    32   14   15 ar  
    33   14   16 ar  
    34   15   17 ar  
    35   15   36 1   
    36   16   18 ar  
    37   16   37 1   
    38   17   19 ar  
    39   17   38 1   
    40   18   19 ar  
    41   18   39 1   
    42   19   40 1   
    43   20   41 1   
@<TRIPOS>SUBSTRUCTURE
     1 HTQ         1 TEMP              0 ****  ****    0 ROOT
