@<TRIPOS>MOLECULE
HTQ
   41    41     1     0     0
SMALL
bcc


@<TRIPOS>ATOM
      1 C1         -2.8540    0.6110   -2.0220 c3        1 HTQ     -0.042500
      2 C2         -1.3270    0.6240   -1.9450 c3        1 HTQ     -0.152000
      3 C3         -0.7480    0.6900   -0.5030 c3        1 HTQ      0.049000
      4 C4         -1.8140    0.7280    0.6260 c3        1 HTQ     -0.152000
      5 C5         -3.2500    0.6940    0.1460 c3        1 HTQ     -0.042500
      6 C6         -3.5660   -0.7650   -0.1480 c3        1 HTQ     -0.185000
      7 C7         -3.2840   -0.8340   -1.7340 c3        1 HTQ     -0.185000
      8 N8         -3.4750    1.2190   -1.0610 n3        1 HTQ     -0.220000
      9 C9         -4.8970    1.2160   -1.3300 c3        1 HTQ     -0.132000
     10 O10         0.0690   -0.4350   -0.3030 os        1 HTQ     -0.273000
     11 C11         1.4140   -0.1140    0.1080 c2        1 HTQ      0.275000
     12 O12         2.0070    0.7850   -0.4260 o         1 HTQ     -0.362000
     13 C13         2.1100   -0.9590    1.1880 c3        1 HTQ      0.086000
     14 C14         3.6120   -0.6690    1.1760 c2        1 HTQ     -0.125000
     15 C15         4.5030   -1.6690    0.8340 c2        1 HTQ     -0.099000
     16 C16         4.0820    0.5580    1.6050 c1        1 HTQ     -0.116000
     17 C17         5.8700   -1.4410    0.9210 c1        1 HTQ     -0.133000
     18 C18         5.4490    0.7870    1.6930 c1        1 HTQ     -0.122000
     19 C19         6.3410   -0.2140    1.3510 c1        1 HTQ     -0.122000
     20 O20         1.5910   -0.6430    2.4250 oh        1 HTQ     -0.301000
     21 H11        -3.1720    0.9040   -2.8930 h1        1 HTQ      0.104500
     22 H21        -0.9990    1.4000   -2.4440 hc        1 HTQ      0.100250
     23 H22        -0.9870   -0.1910   -2.3780 hc        1 HTQ      0.100250
     24 H31        -0.1880    1.5010   -0.4290 h1        1 HTQ      0.108000
     25 H41        -1.6690   -0.0370    1.2120 hc        1 HTQ      0.100250
     26 H42        -1.6840    1.5410    1.1430 hc        1 HTQ      0.100250
     27 H51        -3.8640    1.0600    0.8180 h1        1 HTQ      0.104500
     28 H61        -4.5050   -0.9680    0.0520 hc        1 HTQ      0.090000
     29 H62        -2.9600   -1.3620    0.3430 hc        1 HTQ      0.090000
     30 H71        -4.1150   -1.0670   -2.2360 hc        1 HTQ      0.090000
     31 H72        -2.5620   -1.4610   -1.9360 hc        1 HTQ      0.090000
     32 H91        -5.3650    1.7180   -0.6290 h1        1 HTQ      0.072667
     33 H92        -5.2310    0.2770   -1.3440 h1        1 HTQ      0.072667
     34 H93        -5.0650    1.6340   -2.2000 h1        1 HTQ      0.072667
     35 H131        1.9610   -1.9080    1.0060 h1        1 HTQ      0.149000
     36 H151        4.1700   -2.5380    0.5310 ha        1 HTQ      0.136000
     37 H161        3.4600    1.2540    1.8430 ha        1 HTQ      0.148000
     38 H171        6.4920   -2.1400    0.6820 ha        1 HTQ      0.136000
     39 H181        5.7800    1.6530    1.9960 ha        1 HTQ      0.136000
     40 H191        7.2950   -0.0550    1.4110 ha        1 HTQ      0.136000
     41 H201        1.3750   -1.3850    2.8520 ho        1 HTQ      0.218000
@<TRIPOS>BOND
     1    1    2 1   
     2    1    7 1   
     3    1    8 1   
     4    1   21 1   
     5    2    3 1   
     6    2   22 1   
     7    2   23 1   
     8    3    4 1   
     9    3   10 1   
    10    3   24 1   
    11    4    5 1   
    12    4   25 1   
    13    4   26 1   
    14    5    6 1   
    15    5    8 1   
    16    5   27 1   
    17    6    7 1   
    18    6   28 1   
    19    6   29 1   
    20    7   30 1   
    21    7   31 1   
    22    8    9 1   
    23    9   32 1   
    24    9   33 1   
    25    9   34 1   
    26   10   11 1   
    27   11   12 1   
    28   11   13 1   
    29   13   14 1   
    30   13   20 1   
    31   13   35 1   
    32   14   15 1   
    33   14   16 1   
    34   15   17 1   
    35   15   36 1   
    36   16   37 1   
    37   17   38 1   
    38   18   19 1   
    39   18   39 1   
    40   19   40 1   
    41   20   41 1   
@<TRIPOS>SUBSTRUCTURE
     1 HTQ         1 TEMP              0 ****  ****    0 ROOT
