@<TRIPOS>MOLECULE
HTQ
   41    43     1     0     0
SMALL
bcc


@<TRIPOS>ATOM
      1 C1          2.9060    1.5240   -0.1160 c3        1 HTQ      0.155000
      2 C2          1.8670    1.0620   -1.1470 c3        1 HTQ     -0.072900
      3 C3          1.4020   -0.3810   -0.9280 c3        1 HTQ      0.159100
      4 C4          2.4090   -1.3070   -0.2460 c3        1 HTQ     -0.072900
      5 C5          3.3850   -0.5660    0.6790 c3        1 HTQ      0.155000
      6 C6          2.5910    0.1060    1.8350 c3        1 HTQ     -0.105900
      7 C7          2.2660    1.5020    1.3010 c3        1 HTQ     -0.105900
      8 N8          4.0090    0.5320   -0.1000 n3        1 HTQ     -0.694600
      9 C9          5.2320    1.0330    0.4780 c3        1 HTQ      0.144100
     10 O10         0.2100   -0.2740   -0.1060 os        1 HTQ     -0.442900
     11 C11        -0.7460   -1.2310   -0.2410 c         1 HTQ      0.604100
     12 O12        -0.5820   -2.1690   -1.0230 o         1 HTQ     -0.541000
     13 C13        -1.9520   -1.0160    0.6630 c3        1 HTQ      0.153400
     14 C14        -2.9410   -0.0930    0.0130 ca        1 HTQ     -0.129300
     15 C15        -2.5160    1.1550   -0.4570 ca        1 HTQ     -0.112500
     16 C16        -4.2900   -0.4480   -0.0870 ca        1 HTQ     -0.112500
     17 C17        -3.4320    2.0370   -1.0260 ca        1 HTQ     -0.130000
     18 C18        -5.2030    0.4370   -0.6590 ca        1 HTQ     -0.130000
     19 C19        -4.7770    1.6780   -1.1300 ca        1 HTQ     -0.119000
     20 O20        -2.4970   -2.2730    1.0040 oh        1 HTQ     -0.577800
     21 H11         3.2840    2.5430   -0.3850 h1        1 HTQ      0.065200
     22 H21         0.9820    1.7480   -1.1000 hc        1 HTQ      0.059950
     23 H22         2.3090    1.1290   -2.1750 hc        1 HTQ      0.059950
     24 H31         1.1030   -0.8320   -1.9170 h1        1 HTQ      0.071700
     25 H41         2.9910   -1.8380   -1.0430 hc        1 HTQ      0.059950
     26 H42         1.8540   -2.0780    0.3480 hc        1 HTQ      0.059950
     27 H51         4.1590   -1.2760    1.0660 h1        1 HTQ      0.065200
     28 H61         1.6630   -0.4690    2.0650 hc        1 HTQ      0.050950
     29 H62         3.2160    0.1580    2.7580 hc        1 HTQ      0.050950
     30 H71         1.1640    1.6670    1.2400 hc        1 HTQ      0.050950
     31 H72         2.7120    2.2980    1.9430 hc        1 HTQ      0.050950
     32 H91         5.9910    0.2070    0.4750 h1        1 HTQ      0.034033
     33 H92         5.6100    1.8740   -0.1600 h1        1 HTQ      0.034033
     34 H93         5.1170    1.4080    1.5320 h1        1 HTQ      0.034033
     35 H131       -1.6110   -0.5770    1.6480 h1        1 HTQ      0.112700
     36 H151       -1.4520    1.4330   -0.3750 ha        1 HTQ      0.145500
     37 H161       -4.6300   -1.4220    0.2970 ha        1 HTQ      0.145500
     38 H171       -3.0940    3.0160   -1.3950 ha        1 HTQ      0.135000
     39 H181       -6.2630    0.1520   -0.7370 ha        1 HTQ      0.135000
     40 H191       -5.4990    2.3740   -1.5810 ha        1 HTQ      0.134000
     41 H201       -2.6630   -2.7560    0.1800 ho        1 HTQ      0.423000
@<TRIPOS>BOND
     1    1    2 1   
     2    1    7 1   
     3    1    8 1   
     4    1   21 1   
     5    2    3 1   
     6    2   22 1   
     7    2   23 1   
     8    3    4 1   
     9    3   10 1   
    10    3   24 1   
    11    4    5 1   
    12    4   25 1   
    13    4   26 1   
    14    5    6 1   
    15    5    8 1   
    16    5   27 1   
    17    6    7 1   
    18    6   28 1   
    19    6   29 1   
    20    7   30 1   
    21    7   31 1   
    22    8    9 1   
    23    9   32 1   
    24    9   33 1   
    25    9   34 1   
    26   10   11 1   
    27   11   12 2   
    28   11   13 1   
    29   13   14 1   
    30   13   20 1   
    31   13   35 1   
    32   14   15 ar  
    33   14   16 ar  
    34   15   17 ar  
    35   15   36 1   
    36   16   18 ar  
    37   16   37 1   
    38   17   19 ar  
    39   17   38 1   
    40   18   19 ar  
    41   18   39 1   
    42   19   40 1   
    43   20   41 1   
@<TRIPOS>SUBSTRUCTURE
     1 HTQ         1 TEMP              0 ****  ****    0 ROOT
