@<TRIPOS>MOLECULE
HTQ
   41    43     1     0     0
SMALL
bcc


@<TRIPOS>ATOM
      1 C1         -0.6700    0.1170    0.2450 c3        1 HTQ      0.155000
      2 C2          0.7670   -0.3980    0.0870 c3        1 HTQ     -0.072900
      3 C3          1.5980   -0.2650    1.3660 c3        1 HTQ      0.159100
      4 C4          1.1860    0.8660    2.3100 c3        1 HTQ     -0.072900
      5 C5         -0.3000    1.2320    2.2050 c3        1 HTQ      0.155000
      6 C6         -1.1640    0.0100    2.6240 c3        1 HTQ     -0.105900
      7 C7         -1.4070   -0.7400    1.3120 c3        1 HTQ     -0.105900
      8 N8         -0.6070    1.5000    0.7780 n3        1 HTQ     -0.694600
      9 C9         -1.8170    2.2570    0.5750 c3        1 HTQ      0.144100
     10 O10         1.4530   -1.5390    2.0470 os        1 HTQ     -0.442900
     11 C11         2.4820   -1.9660    2.8260 c         1 HTQ      0.604100
     12 O12         3.4910   -1.2720    2.9620 o         1 HTQ     -0.541000
     13 C13         2.2240   -3.3140    3.4850 c3        1 HTQ      0.153400
     14 C14         2.6040   -4.4340    2.5600 ca        1 HTQ     -0.129300
     15 C15         2.0730   -4.4710    1.2650 ca        1 HTQ     -0.112500
     16 C16         3.4430   -5.4650    2.9940 ca        1 HTQ     -0.112500
     17 C17         2.3870   -5.5260    0.4110 ca        1 HTQ     -0.130000
     18 C18         3.7560   -6.5180    2.1350 ca        1 HTQ     -0.130000
     19 C19         3.2300   -6.5500    0.8440 ca        1 HTQ     -0.119000
     20 O20         2.9030   -3.3550    4.7230 oh        1 HTQ     -0.577800
     21 H11        -1.1960    0.0900   -0.7440 h1        1 HTQ      0.065200
     22 H21         0.7330   -1.4750   -0.2220 hc        1 HTQ      0.059950
     23 H22         1.2830    0.1830   -0.7210 hc        1 HTQ      0.059950
     24 H31         2.6850   -0.1360    1.0950 h1        1 HTQ      0.071700
     25 H41         1.4170    0.5660    3.3650 hc        1 HTQ      0.059950
     26 H42         1.8050    1.7680    2.0650 hc        1 HTQ      0.059950
     27 H51        -0.5180    2.1300    2.8390 h1        1 HTQ      0.065200
     28 H61        -2.1240    0.3470    3.0830 hc        1 HTQ      0.050950
     29 H62        -0.6210   -0.6260    3.3620 hc        1 HTQ      0.050950
     30 H71        -0.9860   -1.7730    1.3510 hc        1 HTQ      0.050950
     31 H72        -2.4960   -0.8070    1.0770 hc        1 HTQ      0.050950
     32 H91        -1.6840    3.2700    1.0370 h1        1 HTQ      0.034033
     33 H92        -2.7330    1.7790    1.0190 h1        1 HTQ      0.034033
     34 H93        -1.9790    2.3810   -0.5280 h1        1 HTQ      0.034033
     35 H131        1.1300   -3.3980    3.7560 h1        1 HTQ      0.112700
     36 H151        1.4100   -3.6580    0.9260 ha        1 HTQ      0.145500
     37 H161        3.8480   -5.4470    4.0180 ha        1 HTQ      0.145500
     38 H171        1.9690   -5.5500   -0.6060 ha        1 HTQ      0.135000
     39 H181        4.4180   -7.3260    2.4810 ha        1 HTQ      0.135000
     40 H191        3.4780   -7.3820    0.1680 ha        1 HTQ      0.134000
     41 H201        3.8310   -3.1310    4.5590 ho        1 HTQ      0.423000
@<TRIPOS>BOND
     1    1    2 1   
     2    1    7 1   
     3    1    8 1   
     4    1   21 1   
     5    2    3 1   
     6    2   22 1   
     7    2   23 1   
     8    3    4 1   
     9    3   10 1   
    10    3   24 1   
    11    4    5 1   
    12    4   25 1   
    13    4   26 1   
    14    5    6 1   
    15    5    8 1   
    16    5   27 1   
    17    6    7 1   
    18    6   28 1   
    19    6   29 1   
    20    7   30 1   
    21    7   31 1   
    22    8    9 1   
    23    9   32 1   
    24    9   33 1   
    25    9   34 1   
    26   10   11 1   
    27   11   12 2   
    28   11   13 1   
    29   13   14 1   
    30   13   20 1   
    31   13   35 1   
    32   14   15 ar  
    33   14   16 ar  
    34   15   17 ar  
    35   15   36 1   
    36   16   18 ar  
    37   16   37 1   
    38   17   19 ar  
    39   17   38 1   
    40   18   19 ar  
    41   18   39 1   
    42   19   40 1   
    43   20   41 1   
@<TRIPOS>SUBSTRUCTURE
     1 HTQ         1 TEMP              0 ****  ****    0 ROOT
