@<TRIPOS>MOLECULE
HTQ
   41    43     1     0     0
SMALL
bcc


@<TRIPOS>ATOM
      1 C1         -0.6470    0.0820    0.1810 c3        1 HTQ      0.155000
      2 C2          0.8070   -0.4000    0.0820 c3        1 HTQ     -0.072900
      3 C3          1.5810   -0.2500    1.3940 c3        1 HTQ      0.159100
      4 C4          1.1060    0.8680    2.3220 c3        1 HTQ     -0.072900
      5 C5         -0.3830    1.2010    2.1570 c3        1 HTQ      0.155000
      6 C6         -1.2360   -0.0430    2.5380 c3        1 HTQ     -0.105900
      7 C7         -1.4080   -0.7940    1.2160 c3        1 HTQ     -0.105900
      8 N8         -0.6370    1.4650    0.7190 n3        1 HTQ     -0.694600
      9 C9         -1.8550    2.1950    0.4690 c3        1 HTQ      0.144100
     10 O10         1.4380   -1.5290    2.0660 os        1 HTQ     -0.442900
     11 C11         2.4450   -1.9360    2.8840 c         1 HTQ      0.604100
     12 O12         3.4320   -1.2190    3.0610 o         1 HTQ     -0.541000
     13 C13         2.1910   -3.2910    3.5300 c3        1 HTQ      0.153400
     14 C14         2.6310   -4.4000    2.6190 ca        1 HTQ     -0.129300
     15 C15         2.1520   -4.4450    1.3040 ca        1 HTQ     -0.112500
     16 C16         3.4760   -5.4130    3.0830 ca        1 HTQ     -0.112500
     17 C17         2.5220   -5.4900    0.4620 ca        1 HTQ     -0.130000
     18 C18         3.8440   -6.4570    2.2360 ca        1 HTQ     -0.130000
     19 C19         3.3700   -6.4970    0.9250 ca        1 HTQ     -0.119000
     20 O20         2.8220   -3.3200    4.7930 oh        1 HTQ     -0.577800
     21 H11        -1.1320    0.0460   -0.8280 h1        1 HTQ      0.065200
     22 H21         0.8090   -1.4760   -0.2310 hc        1 HTQ      0.059950
     23 H22         1.3410    0.1960   -0.7040 hc        1 HTQ      0.059950
     24 H31         2.6750   -0.0960    1.1670 h1        1 HTQ      0.071700
     25 H41         1.3000    0.5700    3.3850 hc        1 HTQ      0.059950
     26 H42         1.7130    1.7850    2.1040 hc        1 HTQ      0.059950
     27 H51        -0.6480    2.0910    2.7830 h1        1 HTQ      0.065200
     28 H61        -2.2200    0.2720    2.9580 hc        1 HTQ      0.050950
     29 H62        -0.7080   -0.6680    3.2960 hc        1 HTQ      0.050950
     30 H71        -2.4840   -0.8840    0.9360 hc        1 HTQ      0.050950
     31 H72        -0.9650   -1.8170    1.2700 hc        1 HTQ      0.050950
     32 H91        -1.9750    2.3180   -0.6400 h1        1 HTQ      0.034033
     33 H92        -1.7650    3.2100    0.9370 h1        1 HTQ      0.034033
     34 H93        -2.7780    1.6950    0.8740 h1        1 HTQ      0.034033
     35 H131        1.0900   -3.4000    3.7590 h1        1 HTQ      0.112700
     36 H151        1.4850   -3.6450    0.9420 ha        1 HTQ      0.145500
     37 H161        3.8400   -5.3890    4.1220 ha        1 HTQ      0.145500
     38 H171        2.1440   -5.5210   -0.5710 ha        1 HTQ      0.135000
     39 H181        4.5100   -7.2510    2.6060 ha        1 HTQ      0.135000
     40 H191        3.6620   -7.3220    0.2580 ha        1 HTQ      0.134000
     41 H201        3.7500   -3.0750    4.6660 ho        1 HTQ      0.423000
@<TRIPOS>BOND
     1    1    2 1   
     2    1    7 1   
     3    1    8 1   
     4    1   21 1   
     5    2    3 1   
     6    2   22 1   
     7    2   23 1   
     8    3    4 1   
     9    3   10 1   
    10    3   24 1   
    11    4    5 1   
    12    4   25 1   
    13    4   26 1   
    14    5    6 1   
    15    5    8 1   
    16    5   27 1   
    17    6    7 1   
    18    6   28 1   
    19    6   29 1   
    20    7   30 1   
    21    7   31 1   
    22    8    9 1   
    23    9   32 1   
    24    9   33 1   
    25    9   34 1   
    26   10   11 1   
    27   11   12 2   
    28   11   13 1   
    29   13   14 1   
    30   13   20 1   
    31   13   35 1   
    32   14   15 ar  
    33   14   16 ar  
    34   15   17 ar  
    35   15   36 1   
    36   16   18 ar  
    37   16   37 1   
    38   17   19 ar  
    39   17   38 1   
    40   18   19 ar  
    41   18   39 1   
    42   19   40 1   
    43   20   41 1   
@<TRIPOS>SUBSTRUCTURE
     1 HTQ         1 TEMP              0 ****  ****    0 ROOT
