@<TRIPOS>MOLECULE
HTR
   27    28     1     0     0
SMALL
bcc


@<TRIPOS>ATOM
      1 N           0.9810    1.4820    1.1120 n3        1 HTR     -0.889800
      2 CA          0.0720    0.6360    1.8650 c3        1 HTR     -0.006500
      3 CB         -0.5660   -0.5100    1.0380 c3        1 HTR      0.228300
      4 OH         -1.7820   -0.9260    1.6500 oh        1 HTR     -0.649800
      5 CG         -0.8820   -0.1260   -0.3600 cc        1 HTR     -0.085400
      6 CD1        -2.0700    0.4140   -0.8330 cd        1 HTR     -0.103100
      7 NE1        -2.0190    0.5820   -2.2330 na        1 HTR     -0.199400
      8 CE2        -0.7230    0.2410   -2.6490 ca        1 HTR     -0.057200
      9 CZ2        -0.1360    0.2630   -3.9200 ca        1 HTR     -0.156000
     10 CH2         1.1640   -0.2110   -4.0430 ca        1 HTR     -0.128000
     11 CZ3         1.8750   -0.7010   -2.9380 ca        1 HTR     -0.169000
     12 CE3         1.3080   -0.7280   -1.6690 ca        1 HTR     -0.079000
     13 CD2         0.0090   -0.2560   -1.5010 ca        1 HTR     -0.072800
     14 C           0.6960   -0.0080    3.1480 c         1 HTR      0.886600
     15 O           1.8850    0.2810    3.4540 o         1 HTR     -0.839300
     16 OXT        -0.0440   -0.7860    3.8190 o         1 HTR     -0.839300
     17 H           1.4660    0.9260    0.4300 hn        1 HTR      0.337300
     18 H2          1.6760    1.8310    1.7550 hn        1 HTR      0.337300
     19 HA         -0.7670    1.3040    2.2190 h1        1 HTR      0.055700
     20 HB          0.1500   -1.3840    1.0230 h1        1 HTR      0.036700
     21 HH         -1.5750   -1.0780    2.5910 ho        1 HTR      0.456000
     22 HD1        -2.9790    0.6450   -0.2740 h4        1 HTR      0.173000
     23 HE1        -2.5650    1.2520   -2.7080 hn        1 HTR      0.271700
     24 HZ2        -0.6850    0.6410   -4.7910 ha        1 HTR      0.117000
     25 HH2         1.6490   -0.1990   -5.0300 ha        1 HTR      0.112000
     26 HZ3         2.9020   -1.0670   -3.0810 ha        1 HTR      0.118000
     27 HE3         1.8690   -1.1130   -0.8040 ha        1 HTR      0.144000
@<TRIPOS>BOND
     1    1    2 1   
     2    1   17 1   
     3    1   18 1   
     4    2    3 1   
     5    2   14 1   
     6    2   19 1   
     7    3    4 1   
     8    3    5 1   
     9    3   20 1   
    10    4   21 1   
    11    5    6 2   
    12    5   13 1   
    13    6    7 1   
    14    6   22 1   
    15    7    8 1   
    16    7   23 1   
    17    8    9 ar  
    18    8   13 ar  
    19    9   10 ar  
    20    9   24 1   
    21   10   11 ar  
    22   10   25 1   
    23   11   12 ar  
    24   11   26 1   
    25   12   13 ar  
    26   12   27 1   
    27   14   15 1   
    28   14   16 1   
@<TRIPOS>SUBSTRUCTURE
     1 HTR         1 TEMP              0 ****  ****    0 ROOT
