@<TRIPOS>MOLECULE
HTS
   14    11     1     0     0
SMALL
bcc


@<TRIPOS>ATOM
      1 C6         -1.1200    0.0170   -1.0010 c1        1 HTS     -0.061000
      2 C1          0.2670    0.0170   -1.0010 c1        1 HTS      0.162600
      3 C2          0.9600    0.0170    0.1990 c1        1 HTS     -0.112900
      4 C3          0.2670    0.0170    1.3990 c1        1 HTS     -0.061000
      5 C4         -1.1200    0.0170    1.3990 c1        1 HTS     -0.061000
      6 C5         -1.8130    0.0170    0.1990 c1        1 HTS     -0.061000
      7 O1          0.9700   -0.0010   -2.2200 oh        1 HTS     -0.478600
      8 S1          2.7330    0.0340    0.1990 sh        1 HTS     -0.306900
      9 H6         -1.6080    0.0170   -1.8470 ha        1 HTS      0.085500
     10 H3          0.7550    0.0170    2.2450 ha        1 HTS      0.085500
     11 H4         -1.6080    0.0170    2.2450 ha        1 HTS      0.085500
     12 H5         -2.7890    0.0170    0.1990 ha        1 HTS      0.085500
     13 HO1         0.9700    0.8140   -2.5730 ho        1 HTS      0.441000
     14 HS1         3.1360   -1.0130    0.5570 hs        1 HTS      0.194800
@<TRIPOS>BOND
     1    1    6 3   
     2    1    9 1   
     3    2    3 3   
     4    2    7 1   
     5    3    8 1   
     6    4    5 3   
     7    4   10 1   
     8    5   11 1   
     9    6   12 1   
    10    7   13 1   
    11    8   14 1   
@<TRIPOS>SUBSTRUCTURE
     1 HTS         1 TEMP              0 ****  ****    0 ROOT
