@<TRIPOS>MOLECULE
HTS
   14    14     1     0     0
SMALL
bcc


@<TRIPOS>ATOM
      1 C6          1.6750   -1.0770    0.0130 ca        1 HTS     -0.173000
      2 C1          0.2710   -0.9970    0.1020 ca        1 HTS      0.179100
      3 C2         -0.3810    0.2500    0.1290 ca        1 HTS     -0.111100
      4 C3          0.3980    1.4110    0.0610 ca        1 HTS     -0.051000
      5 C4          1.7830    1.3400   -0.0230 ca        1 HTS     -0.181000
      6 C5          2.4180    0.0930   -0.0470 ca        1 HTS     -0.069000
      7 O1         -0.3950   -2.1930    0.1600 oh        1 HTS     -0.495100
      8 S1         -2.0850    0.3440    0.1560 sh        1 HTS     -0.308700
      9 H6          2.1540   -2.0660   -0.0070 ha        1 HTS      0.154000
     10 H3         -0.1040    2.3920    0.0710 ha        1 HTS      0.143000
     11 H4          2.3810    2.2610   -0.0740 ha        1 HTS      0.138000
     12 H5          3.5150    0.0390   -0.1170 ha        1 HTS      0.137000
     13 HO1        -1.3510   -2.0020    0.2100 ho        1 HTS      0.441000
     14 HS1        -2.2590    0.7070    1.4190 hs        1 HTS      0.194800
@<TRIPOS>BOND
     1    1    2 ar  
     2    1    6 ar  
     3    1    9 1   
     4    2    3 ar  
     5    2    7 1   
     6    3    4 ar  
     7    3    8 1   
     8    4    5 ar  
     9    4   10 1   
    10    5    6 ar  
    11    5   11 1   
    12    6   12 1   
    13    7   13 1   
    14    8   14 1   
@<TRIPOS>SUBSTRUCTURE
     1 HTS         1 TEMP              0 ****  ****    0 ROOT
