@<TRIPOS>MOLECULE
HTS
   14    14     1     0     0
SMALL
bcc


@<TRIPOS>ATOM
      1 C6         -0.0820   -0.0060   -0.0140 ca        1 HTS     -0.173000
      2 C1          1.3250   -0.0870   -0.0330 ca        1 HTS      0.179100
      3 C2          2.0620   -0.1050    1.1660 ca        1 HTS     -0.111100
      4 C3          1.3650   -0.0450    2.3790 ca        1 HTS     -0.051000
      5 C4         -0.0220    0.0390    2.4040 ca        1 HTS     -0.181000
      6 C5         -0.7420    0.0570    1.2050 ca        1 HTS     -0.069000
      7 O1          1.9050   -0.1440   -1.2710 oh        1 HTS     -0.495100
      8 S1          3.7590   -0.2830    1.1440 sh        1 HTS     -0.308700
      9 H6         -0.6300    0.0050   -0.9670 ha        1 HTS      0.154000
     10 H3          1.9330   -0.0690    3.3230 ha        1 HTS      0.143000
     11 H4         -0.5540    0.0860    3.3650 ha        1 HTS      0.138000
     12 H5         -1.8410    0.1200    1.2270 ha        1 HTS      0.137000
     13 HO1         2.8720   -0.2060   -1.1470 ho        1 HTS      0.441000
     14 HS1         4.1090    0.9580    1.4500 hs        1 HTS      0.194800
@<TRIPOS>BOND
     1    1    2 ar  
     2    1    6 ar  
     3    1    9 1   
     4    2    3 ar  
     5    2    7 1   
     6    3    4 ar  
     7    3    8 1   
     8    4    5 ar  
     9    4   10 1   
    10    5    6 ar  
    11    5   11 1   
    12    6   12 1   
    13    7   13 1   
    14    8   14 1   
@<TRIPOS>SUBSTRUCTURE
     1 HTS         1 TEMP              0 ****  ****    0 ROOT
