@<TRIPOS>MOLECULE
HTS
   14    14     1     0     0
SMALL
bcc


@<TRIPOS>ATOM
      1 C6         -0.1000   -0.0130    0.0080 ca        1 HTS     -0.173000
      2 C1          1.3060   -0.0990   -0.0350 ca        1 HTS      0.179100
      3 C2          2.0640   -0.1070    1.1510 ca        1 HTS     -0.111100
      4 C3          1.3890   -0.0310    2.3750 ca        1 HTS     -0.051000
      5 C4          0.0030    0.0570    2.4240 ca        1 HTS     -0.181000
      6 C5         -0.7380    0.0660    1.2370 ca        1 HTS     -0.069000
      7 O1          1.8640   -0.1710   -1.2830 oh        1 HTS     -0.495100
      8 S1          3.7600   -0.2910    1.1000 sh        1 HTS     -0.308700
      9 H6         -0.6650   -0.0110   -0.9350 ha        1 HTS      0.154000
     10 H3          1.9740   -0.0470    3.3090 ha        1 HTS      0.143000
     11 H4         -0.5120    0.1170    3.3930 ha        1 HTS      0.138000
     12 H5         -1.8360    0.1330    1.2790 ha        1 HTS      0.137000
     13 HO1         2.8320   -0.2350   -1.1750 ho        1 HTS      0.441000
     14 HS1         4.1190    0.9530    1.3850 hs        1 HTS      0.194800
@<TRIPOS>BOND
     1    1    2 ar  
     2    1    6 ar  
     3    1    9 1   
     4    2    3 ar  
     5    2    7 1   
     6    3    4 ar  
     7    3    8 1   
     8    4    5 ar  
     9    4   10 1   
    10    5    6 ar  
    11    5   11 1   
    12    6   12 1   
    13    7   13 1   
    14    8   14 1   
@<TRIPOS>SUBSTRUCTURE
     1 HTS         1 TEMP              0 ****  ****    0 ROOT
