@<TRIPOS>MOLECULE
HTT
   53    57     1     0     0
SMALL
bcc


@<TRIPOS>ATOM
      1 CL8        -0.5240   -0.3340   -0.0080 cl        1 HTT     -0.020400
      2 C4          1.1390   -0.3480    0.0640 cc        1 HTT     -0.032800
      3 C5          1.9150   -0.3950    1.2340 cd        1 HTT     -0.012300
      4 C6          1.4090   -0.4400    2.6250 c3        1 HTT     -0.037200
      5 C7          2.4780   -0.4680    3.6880 c3        1 HTT     -0.107100
      6 N1          3.2780   -0.3960    0.8940 na        1 HTT     -0.258100
      7 C3          2.0400   -0.3190   -1.0560 ca        1 HTT     -0.273400
      8 C9          1.9490   -0.2780   -2.4620 ca        1 HTT      0.653200
      9 N13         0.6390   -0.2650   -3.0760 nh        1 HTT     -0.666300
     10 C17         0.2490    1.0760   -3.5470 c3        1 HTT      0.142800
     11 C16         0.3710    1.1300   -5.0850 c3        1 HTT     -0.125400
     12 C15         0.7970   -0.2880   -5.5180 c3        1 HTT      0.083500
     13 N18         2.2390   -0.3550   -5.9030 n4        1 HTT     -0.867600
     14 C14         0.5210   -1.1460   -4.2390 c3        1 HTT      0.138800
     15 N10         3.0810   -0.2620   -3.2210 nb        1 HTT     -0.864000
     16 C11         4.3030   -0.2950   -2.5910 ca        1 HTT      0.751300
     17 N12         4.5280   -0.3380   -1.2530 nb        1 HTT     -0.682000
     18 C2          3.3960   -0.3500   -0.4920 ca        1 HTT      0.481800
     19 S19         5.6470   -0.2730   -3.6860 ss        1 HTT     -0.180200
     20 C20         7.0510   -0.3830   -2.7500 ca        1 HTT     -0.183400
     21 C25         7.6210   -1.6390   -2.4560 ca        1 HTT      0.460200
     22 N24         8.7830   -1.7940   -1.8060 nb        1 HTT     -0.662000
     23 C23         9.4570   -0.6890   -1.4080 ca        1 HTT      0.457600
     24 C26        10.7550   -0.8730   -0.6720 c3        1 HTT     -0.103500
     25 C27        11.1760    0.3590    0.0330 c2        1 HTT     -0.194200
     26 C28        10.6730    1.5690   -0.2580 c2        1 HTT     -0.015000
     27 N29         9.7740    1.7830   -1.3590 nh        1 HTT     -0.246300
     28 O30         9.0180    2.8790   -1.1650 oh        1 HTT     -0.404300
     29 C22         8.9670    0.6310   -1.6710 ca        1 HTT     -0.040700
     30 C21         7.7320    0.7640   -2.3320 ca        1 HTT     -0.027000
     31 H1          0.7470    0.4590    2.7790 hc        1 HTT      0.081200
     32 H2          0.7550   -1.3510    2.7240 hc        1 HTT      0.081200
     33 H3          1.9960   -0.4960    4.6960 hc        1 HTT      0.049033
     34 H4          3.1230    0.4430    3.6390 hc        1 HTT      0.049033
     35 H5          3.1240   -1.3740    3.5900 hc        1 HTT      0.049033
     36 H6          4.0280   -0.4240    1.5410 hn        1 HTT      0.332700
     37 H7          0.8620    1.8830   -3.0650 h1        1 HTT      0.091200
     38 H8         -0.8240    1.2200   -3.2400 h1        1 HTT      0.091200
     39 H9          1.0910    1.9240   -5.4000 hc        1 HTT      0.084700
     40 H10        -0.6210    1.3690   -5.5440 hc        1 HTT      0.084700
     41 H11         0.1900   -0.6560   -6.3900 hx        1 HTT      0.111700
     42 H12         2.8270   -0.2300   -5.0290 hn        1 HTT      0.466800
     43 H13         2.4490   -1.2660   -6.3120 hn        1 HTT      0.466800
     44 H15         1.1730   -2.0530   -4.1610 h1        1 HTT      0.100200
     45 H16        -0.5530   -1.4830   -4.2840 h1        1 HTT      0.100200
     46 H17         7.1170   -2.5760   -2.7580 h4        1 HTT      0.035100
     47 H18        11.5490   -1.1680   -1.4170 hc        1 HTT      0.087200
     48 H19        11.9500    0.2400    0.8060 ha        1 HTT      0.156000
     49 H20        10.9650    2.4950    0.2680 h4        1 HTT      0.167000
     50 H21         9.3540    3.5230   -1.8190 ho        1 HTT      0.431000
     51 H22         7.3070    1.7650   -2.5150 ha        1 HTT      0.162000
     52 H14        10.6660   -1.7210    0.0630 hc        1 HTT      0.087200
     53 H183        2.4630    0.3790   -6.5740 hn        1 HTT      0.466800
@<TRIPOS>BOND
     1    1    2 1   
     2    2    3 2   
     3    2    7 1   
     4    3    4 1   
     5    3    6 1   
     6    4    5 1   
     7    4   31 1   
     8    4   32 1   
     9    5   33 1   
    10    5   34 1   
    11    5   35 1   
    12    6   18 1   
    13    6   36 1   
    14    7    8 ar  
    15    7   18 ar  
    16    8    9 1   
    17    8   15 ar  
    18    9   10 1   
    19    9   14 1   
    20   10   11 1   
    21   10   37 1   
    22   10   38 1   
    23   11   12 1   
    24   11   39 1   
    25   11   40 1   
    26   12   13 1   
    27   12   14 1   
    28   12   41 1   
    29   13   42 1   
    30   13   43 1   
    31   13   53 1   
    32   14   44 1   
    33   14   45 1   
    34   15   16 ar  
    35   16   17 ar  
    36   16   19 1   
    37   17   18 ar  
    38   19   20 1   
    39   20   21 ar  
    40   20   30 ar  
    41   21   22 ar  
    42   21   46 1   
    43   22   23 ar  
    44   23   24 1   
    45   23   29 ar  
    46   24   25 1   
    47   24   47 1   
    48   24   52 1   
    49   25   26 2   
    50   25   48 1   
    51   26   27 1   
    52   26   49 1   
    53   27   28 1   
    54   27   29 1   
    55   28   50 1   
    56   29   30 ar  
    57   30   51 1   
@<TRIPOS>SUBSTRUCTURE
     1 HTT         1 TEMP              0 ****  ****    0 ROOT
