@<TRIPOS>MOLECULE
HTT
   53    57     1     0     0
SMALL
bcc


@<TRIPOS>ATOM
      1 Cl8        -0.5390   -0.3320   -0.0460 cl        1 HTT     -0.020400
      2 C4          1.1220   -0.3490    0.0390 cc        1 HTT     -0.032800
      3 C5          1.8890   -0.4000    1.2150 cd        1 HTT     -0.012300
      4 C6          1.3720   -0.4480    2.6020 c3        1 HTT     -0.037200
      5 C7          2.4320   -0.4820    3.6730 c3        1 HTT     -0.107100
      6 N1          3.2550   -0.4020    0.8870 na        1 HTT     -0.258100
      7 C3          2.0330   -0.3180   -1.0740 ca        1 HTT     -0.273400
      8 C9          1.9540   -0.2730   -2.4800 ca        1 HTT      0.653200
      9 N13         0.6480   -0.2570   -3.1050 nh        1 HTT     -0.666300
     10 C17         0.2650    1.0870   -3.5740 c3        1 HTT      0.142800
     11 C16         0.3990    1.1450   -5.1110 c3        1 HTT     -0.125400
     12 C15         0.8260   -0.2730   -5.5450 c3        1 HTT      0.083500
     13 N18         2.2710   -0.3400   -5.9190 nz        1 HTT     -0.867600
     14 C14         0.5390   -1.1330   -4.2710 c3        1 HTT      0.138800
     15 N10         3.0910   -0.2570   -3.2300 nb        1 HTT     -0.864000
     16 C11         4.3090   -0.2940   -2.5900 ca        1 HTT      0.752300
     17 N12         4.5220   -0.3400   -1.2500 nb        1 HTT     -0.682000
     18 C2          3.3840   -0.3530   -0.4980 ca        1 HTT      0.481800
     19 S19         5.6620   -0.2710   -3.6740 ss        1 HTT     -0.180200
     20 C20         7.0580   -0.3820   -2.7260 ca        1 HTT     -0.183400
     21 C25         7.6220   -1.6380   -2.4220 ca        1 HTT      0.460200
     22 N24         8.7780   -1.7930   -1.7620 nb        1 HTT     -0.662000
     23 C23         9.4520   -0.6880   -1.3640 ca        1 HTT      0.457600
     24 C26        10.7440   -0.8730   -0.6160 c3        1 HTT     -0.103500
     25 C27        11.1620    0.3610    0.0870 c2        1 HTT     -0.194200
     26 C28        10.6640    1.5710   -0.2130 c2        1 HTT     -0.015000
     27 N29         9.7750    1.7820   -1.3210 nh        1 HTT     -0.246300
     28 O30         9.0200    2.8810   -1.1390 oh        1 HTT     -0.404300
     29 C22         8.9670    0.6320   -1.6360 ca        1 HTT     -0.040700
     30 C21         7.7380    0.7650   -2.3070 ca        1 HTT     -0.027000
     31 H1          0.7110    0.4520    2.7540 hc        1 HTT      0.081200
     32 H2          0.7140   -1.3580    2.6920 hc        1 HTT      0.081200
     33 H3          3.0800    0.4270    3.6330 hc        1 HTT      0.049033
     34 H4          1.9420   -0.5120    4.6780 hc        1 HTT      0.049033
     35 H5          3.0770   -1.3890    3.5770 hc        1 HTT      0.049033
     36 H6          4.0000   -0.4330    1.5390 hn        1 HTT      0.332700
     37 H7         -0.8110    1.2310   -3.2760 h1        1 HTT      0.091200
     38 H8          0.8750    1.8910   -3.0850 h1        1 HTT      0.091200
     39 H9         -0.5900    1.3870   -5.5770 hc        1 HTT      0.084700
     40 H10         1.1220    1.9390   -5.4180 hc        1 HTT      0.084700
     41 H11         0.2260   -0.6370   -6.4230 hx        1 HTT      0.111700
     42 H12         2.8530   -0.2190   -5.0400 hn        1 HTT      0.466800
     43 H13         2.5020    0.3960   -6.5850 hn        1 HTT      0.466800
     44 H15         1.1890   -2.0420   -4.1910 h1        1 HTT      0.100200
     45 H16        -0.5360   -1.4690   -4.3260 h1        1 HTT      0.100200
     46 H17         7.1180   -2.5750   -2.7250 h4        1 HTT      0.035100
     47 H18        11.5430   -1.1730   -1.3530 hc        1 HTT      0.087200
     48 H19        11.9290    0.2430    0.8670 ha        1 HTT      0.156000
     49 H20        10.9540    2.4980    0.3110 h4        1 HTT      0.167000
     50 H21         9.3640    3.5220   -1.7920 ho        1 HTT      0.431000
     51 H22         7.3170    1.7660   -2.4970 ha        1 HTT      0.162000
     52 H14        10.6460   -1.7180    0.1210 hc        1 HTT      0.087200
     53 H183        2.4830   -1.2500   -6.3290 hn        1 HTT      0.466800
@<TRIPOS>BOND
     1    1    2 1   
     2    2    3 2   
     3    2    7 1   
     4    3    4 1   
     5    3    6 1   
     6    4    5 1   
     7    4   31 1   
     8    4   32 1   
     9    5   33 1   
    10    5   34 1   
    11    5   35 1   
    12    6   18 1   
    13    6   36 1   
    14    7    8 ar  
    15    7   18 ar  
    16    8    9 1   
    17    8   15 ar  
    18    9   10 1   
    19    9   14 1   
    20   10   11 1   
    21   10   37 1   
    22   10   38 1   
    23   11   12 1   
    24   11   39 1   
    25   11   40 1   
    26   12   13 1   
    27   12   14 1   
    28   12   41 1   
    29   13   42 1   
    30   13   43 1   
    31   13   53 1   
    32   14   44 1   
    33   14   45 1   
    34   15   16 ar  
    35   16   17 ar  
    36   16   19 1   
    37   17   18 ar  
    38   19   20 1   
    39   20   21 ar  
    40   20   30 ar  
    41   21   22 ar  
    42   21   46 1   
    43   22   23 ar  
    44   23   24 1   
    45   23   29 ar  
    46   24   25 1   
    47   24   47 1   
    48   24   52 1   
    49   25   26 2   
    50   25   48 1   
    51   26   27 1   
    52   26   49 1   
    53   27   28 1   
    54   27   29 1   
    55   28   50 1   
    56   29   30 ar  
    57   30   51 1   
@<TRIPOS>SUBSTRUCTURE
     1 HTT         1 TEMP              0 ****  ****    0 ROOT
