@<TRIPOS>MOLECULE
HTT
   52    45     1     0     0
SMALL
bcc


@<TRIPOS>ATOM
      1 CL8        -4.6890   -0.5030    1.5180 cl        1 HTT      0.029000
      2 C4         -2.9360   -0.7750    1.5250 c2        1 HTT     -0.111000
      3 C5         -2.2750   -0.8560    2.7380 c1        1 HTT     -0.029000
      4 C6         -2.7360   -0.8240    4.2040 c2        1 HTT     -0.108000
      5 C7         -3.0770   -2.2630    4.6720 c3        1 HTT     -0.219000
      6 N1         -0.9230   -0.7620    2.4930 n2        1 HTT     -0.183000
      7 C3         -1.9740   -0.6270    0.5170 c1        1 HTT     -0.175000
      8 C9         -2.0820   -0.4690   -0.8600 c1        1 HTT      0.042000
      9 N13        -3.4210   -0.4440   -1.3490 n2        1 HTT     -0.190000
     10 C17        -3.6180    0.6600   -2.0220 c3        1 HTT     -0.070000
     11 C16        -4.5990    0.2570   -3.1970 c3        1 HTT     -0.184000
     12 C15        -4.6290   -1.2800   -3.1990 c3        1 HTT     -0.045000
     13 N18        -4.4000   -1.8020   -4.5880 n3        1 HTT     -0.345000
     14 C14        -3.6270   -1.6470   -2.3950 c3        1 HTT     -0.067000
     15 N10        -0.9670   -0.3070   -1.6130 n1        1 HTT     -0.218000
     16 C11         0.2740   -0.3000   -1.0140 c1        1 HTT      0.042000
     17 N12         0.3830   -0.4560    0.3460 n1        1 HTT     -0.218000
     18 C2         -0.7410   -0.6190    1.1090 c1        1 HTT      0.080000
     19 S19         1.8140   -0.1680   -1.9370 s         1 HTT      0.434000
     20 C20         2.9720    0.8020   -1.0170 c1        1 HTT     -0.326000
     21 C25         2.6610    2.1200   -0.6750 c1        1 HTT     -0.013000
     22 N24         3.5700    2.8850   -0.0020 n1        1 HTT     -0.142000
     23 C23         4.7870    2.3650    0.3390 c1        1 HTT      0.004000
     24 C26         5.8050    3.2310    1.1190 c2        1 HTT     -0.083000
     25 C27         7.2090    2.6970    1.1010 c2        1 HTT     -0.199000
     26 C28         7.4550    1.3010    0.7180 c1        1 HTT     -0.089000
     27 N29         6.3830    0.4670    0.4130 n2        1 HTT     -0.034000
     28 O30         6.5130   -0.8680    0.5360 oh        1 HTT     -0.252000
     29 C22         5.1050    1.0430   -0.0020 c2        1 HTT     -0.062000
     30 C21         4.1930    0.2740   -0.6770 c2        1 HTT     -0.054000
     31 H1         -3.5350   -0.2580    4.2840 ha        1 HTT      0.107000
     32 H2         -2.0180   -0.4580    4.7650 ha        1 HTT      0.107000
     33 H3         -3.7520   -2.6500    4.0730 hc        1 HTT      0.080667
     34 H4         -3.4320   -2.2340    5.5960 hc        1 HTT      0.080667
     35 H5         -2.2740   -2.8100    4.6510 hc        1 HTT      0.080667
     36 H6         -0.2650   -0.7860    3.1170 DU        1 HTT      0.266000
     37 H7         -4.0340    1.3350   -1.4510 h1        1 HTT      0.106500
     38 H8         -2.7580    0.9990   -2.3900 h1        1 HTT      0.106500
     39 H9         -5.5050    0.6180   -3.0260 hc        1 HTT      0.097500
     40 H10        -4.2630    0.5830   -4.0360 hc        1 HTT      0.097500
     41 H11        -5.4750   -1.6010   -2.8520 h1        1 HTT      0.055000
     42 H12        -4.5600   -2.7150   -4.6070 hn        1 HTT      0.149500
     43 H13        -4.9670   -1.3800   -5.1680 hn        1 HTT      0.149500
     44 H15        -3.8600   -2.4600   -1.9240 h1        1 HTT      0.106000
     45 H16        -2.8170   -1.7810   -2.9120 h1        1 HTT      0.106000
     46 H17         1.7980    2.5050   -0.9420 ha        1 HTT      0.175000
     47 H18         5.7160    4.1550    0.8220 ha        1 HTT      0.114500
     48 H19         7.9590    3.2850    1.3150 ha        1 HTT      0.144000
     49 H20         8.3590    0.9530    0.7050 ha        1 HTT      0.159000
     50 H21         7.2640   -1.1320    0.1280 ho        1 HTT      0.224000
     51 H22         4.4450   -0.6170   -0.9920 ha        1 HTT      0.160000
     52 H14         5.5430    3.3190    2.0400 ha        1 HTT      0.114500
@<TRIPOS>BOND
     1    1    2 1   
     2    2    3 1   
     3    2    7 1   
     4    3    6 1   
     5    4    5 1   
     6    4   31 1   
     7    4   32 1   
     8    5   33 1   
     9    5   34 1   
    10    5   35 1   
    11    6   18 1   
    12    7   18 1   
    13    8   15 1   
    14    9   10 1   
    15    9   14 1   
    16   10   11 1   
    17   10   37 1   
    18   10   38 1   
    19   11   12 1   
    20   11   39 1   
    21   11   40 1   
    22   12   13 1   
    23   12   14 1   
    24   12   41 1   
    25   13   42 1   
    26   13   43 1   
    27   14   44 1   
    28   14   45 1   
    29   16   17 1   
    30   19   20 1   
    31   20   30 1   
    32   21   22 1   
    33   21   46 1   
    34   23   29 1   
    35   24   25 1   
    36   24   47 1   
    37   24   52 1   
    38   25   26 1   
    39   25   48 1   
    40   26   49 1   
    41   27   28 1   
    42   27   29 1   
    43   28   50 1   
    44   29   30 1   
    45   30   51 1   
@<TRIPOS>SUBSTRUCTURE
     1 HTT         1 TEMP              0 ****  ****    0 ROOT
