@<TRIPOS>MOLECULE
HTT
   53    57     1     0     0
SMALL
bcc


@<TRIPOS>ATOM
      1 CL8        -0.5050   -0.3070    0.0520 cl        1 HTT     -0.020400
      2 C4          1.1580   -0.3290    0.1040 cc        1 HTT     -0.032800
      3 C5          1.9480   -0.3800    1.2640 cd        1 HTT     -0.012300
      4 C6          1.4590   -0.4220    2.6620 c3        1 HTT     -0.037200
      5 C7          2.5400   -0.4880    3.7100 c3        1 HTT     -0.107100
      6 N1          3.3070   -0.3870    0.9090 na        1 HTT     -0.258100
      7 C3          2.0470   -0.3030   -1.0270 ca        1 HTT     -0.273400
      8 C9          1.9390   -0.2610   -2.4310 ca        1 HTT      0.653200
      9 N13         0.6220   -0.2410   -3.0300 nh        1 HTT     -0.666300
     10 C17         0.2330    1.1020   -3.4950 c3        1 HTT      0.142800
     11 C16         0.3370    1.1570   -5.0340 c3        1 HTT     -0.125400
     12 C15         0.7500   -0.2630   -5.4730 c3        1 HTT      0.083500
     13 N18         2.1880   -0.3370   -5.8750 n4        1 HTT     -0.867600
     14 C14         0.4860   -1.1200   -4.1910 c3        1 HTT      0.138800
     15 N10         3.0620   -0.2490   -3.2040 nb        1 HTT     -0.864000
     16 C11         4.2910   -0.2890   -2.5880 ca        1 HTT      0.751300
     17 N12         4.5320   -0.3330   -1.2530 nb        1 HTT     -0.682000
     18 C2          3.4090   -0.3410   -0.4780 ca        1 HTT      0.481800
     19 S19         5.6220   -0.2710   -3.6990 ss        1 HTT     -0.180200
     20 C20         7.0370   -0.3880   -2.7800 ca        1 HTT     -0.183400
     21 C25         7.6050   -1.6470   -2.4930 ca        1 HTT      0.460200
     22 N24         8.7740   -1.8070   -1.8570 nb        1 HTT     -0.662000
     23 C23         9.4560   -0.7050   -1.4660 ca        1 HTT      0.457600
     24 C26        10.7630   -0.8960   -0.7450 c3        1 HTT     -0.103500
     25 C27        11.1960    0.3340   -0.0430 c2        1 HTT     -0.194200
     26 C28        10.6940    1.5460   -0.3270 c2        1 HTT     -0.015000
     27 N29         9.7840    1.7650   -1.4170 nh        1 HTT     -0.246300
     28 O30         9.0350    2.8640   -1.2140 oh        1 HTT     -0.404300
     29 C22         8.9690    0.6170   -1.7220 ca        1 HTT     -0.040700
     30 C21         7.7270    0.7560   -2.3680 ca        1 HTT     -0.027000
     31 H1          0.8240    0.4920    2.8320 hc        1 HTT      0.081200
     32 H2          0.7810   -1.3170    2.7610 hc        1 HTT      0.081200
     33 H3          3.1650   -1.4060    3.5920 hc        1 HTT      0.049033
     34 H4          3.2040    0.4090    3.6660 hc        1 HTT      0.049033
     35 H5          2.0700   -0.5200    4.7250 hc        1 HTT      0.049033
     36 H6          4.0650   -0.4200    1.5460 hn        1 HTT      0.332700
     37 H7         -0.8360    1.2510   -3.1750 h1        1 HTT      0.091200
     38 H8          0.8550    1.9060   -3.0200 h1        1 HTT      0.091200
     39 H9         -0.6600    1.4000   -5.4810 hc        1 HTT      0.084700
     40 H10         1.0560    1.9480   -5.3580 hc        1 HTT      0.084700
     41 H11         0.1310   -0.6270   -6.3380 hx        1 HTT      0.111700
     42 H12         2.7870   -0.2150   -5.0090 hn        1 HTT      0.466800
     43 H13         2.4070    0.3980   -6.5480 hn        1 HTT      0.466800
     44 H15         1.1350   -2.0310   -4.1220 h1        1 HTT      0.100200
     45 H16        -0.5900   -1.4530   -4.2240 h1        1 HTT      0.100200
     46 H17         7.0940   -2.5820   -2.7920 h4        1 HTT      0.035100
     47 H18        11.5470   -1.1920   -1.5000 hc        1 HTT      0.087200
     48 H19        11.9780    0.2110    0.7210 ha        1 HTT      0.156000
     49 H20        10.9960    2.4700    0.1970 h4        1 HTT      0.167000
     50 H21         9.3670    3.5070   -1.8710 ho        1 HTT      0.431000
     51 H22         7.3040    1.7580   -2.5450 ha        1 HTT      0.162000
     52 H14        10.6780   -1.7450   -0.0110 hc        1 HTT      0.087200
     53 H183        2.3890   -1.2480   -6.2870 hn        1 HTT      0.466800
@<TRIPOS>BOND
     1    1    2 1   
     2    2    3 2   
     3    2    7 1   
     4    3    4 1   
     5    3    6 1   
     6    4    5 1   
     7    4   31 1   
     8    4   32 1   
     9    5   33 1   
    10    5   34 1   
    11    5   35 1   
    12    6   18 1   
    13    6   36 1   
    14    7    8 ar  
    15    7   18 ar  
    16    8    9 1   
    17    8   15 ar  
    18    9   10 1   
    19    9   14 1   
    20   10   11 1   
    21   10   37 1   
    22   10   38 1   
    23   11   12 1   
    24   11   39 1   
    25   11   40 1   
    26   12   13 1   
    27   12   14 1   
    28   12   41 1   
    29   13   42 1   
    30   13   43 1   
    31   13   53 1   
    32   14   44 1   
    33   14   45 1   
    34   15   16 ar  
    35   16   17 ar  
    36   16   19 1   
    37   17   18 ar  
    38   19   20 1   
    39   20   21 ar  
    40   20   30 ar  
    41   21   22 ar  
    42   21   46 1   
    43   22   23 ar  
    44   23   24 1   
    45   23   29 ar  
    46   24   25 1   
    47   24   47 1   
    48   24   52 1   
    49   25   26 2   
    50   25   48 1   
    51   26   27 1   
    52   26   49 1   
    53   27   28 1   
    54   27   29 1   
    55   28   50 1   
    56   29   30 ar  
    57   30   51 1   
@<TRIPOS>SUBSTRUCTURE
     1 HTT         1 TEMP              0 ****  ****    0 ROOT
