@<TRIPOS>MOLECULE
HTT
   52    56     1     0     0
SMALL
bcc


@<TRIPOS>ATOM
      1 CL8         4.6620    2.3480    0.2370 cl        1 HTT     -0.046400
      2 C4          3.0110    2.1690    0.0730 cc        1 HTT     -0.009800
      3 C5          2.0700    3.2100    0.1070 cd        1 HTT     -0.060300
      4 C6          2.3410    4.6500    0.3170 c3        1 HTT     -0.027200
      5 C7          1.2600    5.5660   -0.1990 c3        1 HTT     -0.101100
      6 N1          0.7820    2.6780   -0.0620 na        1 HTT     -0.271100
      7 C3          2.2980    0.9370   -0.1410 ca        1 HTT     -0.310400
      8 C9          2.6170   -0.4440   -0.2970 ca        1 HTT      0.692200
      9 N13         3.9980   -0.8250   -0.2570 nh        1 HTT     -0.699300
     10 C17         4.5300   -0.9250    1.1120 c3        1 HTT      0.163800
     11 C16         4.8000   -2.4000    1.4390 c3        1 HTT     -0.144400
     12 C15         4.6540   -3.1760    0.1050 c3        1 HTT      0.151500
     13 N18         3.6750   -4.2350    0.0770 n3        1 HTT     -0.907800
     14 C14         4.3740   -2.0590   -0.9490 c3        1 HTT      0.157800
     15 N10         1.6230   -1.3430   -0.5140 nb        1 HTT     -0.757000
     16 C11         0.3270   -0.8830   -0.6020 ca        1 HTT      0.742300
     17 N12        -0.1110    0.3940   -0.4660 nb        1 HTT     -0.729000
     18 C2          0.8900    1.2970   -0.2390 ca        1 HTT      0.467800
     19 S19        -0.8110   -2.1500   -0.9250 ss        1 HTT     -0.114200
     20 C20        -2.3460   -1.4390   -0.9710 ca        1 HTT     -0.167400
     21 C25        -3.1360   -1.6750   -2.1190 ca        1 HTT      0.435200
     22 N24        -4.4130   -1.2910   -2.2390 nb        1 HTT     -0.663000
     23 C23        -4.9810   -0.6040   -1.2190 ca        1 HTT      0.426600
     24 C26        -6.4130   -0.1680   -1.3670 c3        1 HTT     -0.094500
     25 C27        -7.0140    0.2210   -0.0710 c2        1 HTT     -0.202200
     26 C28        -6.2770    0.4990    1.0160 c2        1 HTT     -0.008000
     27 N29        -4.8440    0.5650    0.9780 nh        1 HTT     -0.249300
     28 O30        -4.3260    0.3300    2.1980 oh        1 HTT     -0.401300
     29 C22        -4.2570   -0.2850   -0.0300 ca        1 HTT     -0.047700
     30 C21        -2.9270   -0.7350    0.0850 ca        1 HTT     -0.034000
     31 H1          2.4910    4.8270    1.4180 hc        1 HTT      0.068200
     32 H2          3.3140    4.8940   -0.1940 hc        1 HTT      0.068200
     33 H3          1.5980    6.6280   -0.1160 hc        1 HTT      0.041367
     34 H4          1.0320    5.3540   -1.2720 hc        1 HTT      0.041367
     35 H5          0.3190    5.4580    0.3940 hc        1 HTT      0.041367
     36 H6         -0.0460    3.2090   -0.1540 hn        1 HTT      0.314700
     37 H7          5.4920   -0.3420    1.1170 h1        1 HTT      0.061200
     38 H8          3.8390   -0.4610    1.8630 h1        1 HTT      0.061200
     39 H9          5.8330   -2.5210    1.8470 hc        1 HTT      0.051700
     40 H10         4.0830   -2.7640    2.2150 hc        1 HTT      0.051700
     41 H11         5.6440   -3.6570   -0.1420 h1        1 HTT      0.064700
     42 H12         3.7570   -4.8090    0.8930 hn        1 HTT      0.356800
     43 H13         2.7430   -3.8710    0.0220 hn        1 HTT      0.356800
     44 H15         3.6270   -2.3760   -1.7210 h1        1 HTT      0.075200
     45 H16         5.3400   -1.8250   -1.4770 h1        1 HTT      0.075200
     46 H17        -2.7150   -2.2170   -2.9870 h4        1 HTT      0.037100
     47 H18        -6.4500    0.7080   -2.0750 hc        1 HTT      0.076700
     48 H19        -8.1110    0.2900   -0.0410 ha        1 HTT      0.145000
     49 H20        -6.7110    0.7710    1.9940 h4        1 HTT      0.160000
     50 H21        -3.7910    1.1240    2.3900 ho        1 HTT      0.425000
     51 H22        -2.3530   -0.5320    1.0030 ha        1 HTT      0.159000
     52 H14        -7.0200   -0.9930   -1.8340 hc        1 HTT      0.076700
@<TRIPOS>BOND
     1    1    2 1   
     2    2    3 2   
     3    2    7 1   
     4    3    4 1   
     5    3    6 1   
     6    4    5 1   
     7    4   31 1   
     8    4   32 1   
     9    5   33 1   
    10    5   34 1   
    11    5   35 1   
    12    6   18 1   
    13    6   36 1   
    14    7    8 ar  
    15    7   18 ar  
    16    8    9 1   
    17    8   15 ar  
    18    9   10 1   
    19    9   14 1   
    20   10   11 1   
    21   10   37 1   
    22   10   38 1   
    23   11   12 1   
    24   11   39 1   
    25   11   40 1   
    26   12   13 1   
    27   12   14 1   
    28   12   41 1   
    29   13   42 1   
    30   13   43 1   
    31   14   44 1   
    32   14   45 1   
    33   15   16 ar  
    34   16   17 ar  
    35   16   19 1   
    36   17   18 ar  
    37   19   20 1   
    38   20   21 ar  
    39   20   30 ar  
    40   21   22 ar  
    41   21   46 1   
    42   22   23 ar  
    43   23   24 1   
    44   23   29 ar  
    45   24   25 1   
    46   24   47 1   
    47   24   52 1   
    48   25   26 2   
    49   25   48 1   
    50   26   27 1   
    51   26   49 1   
    52   27   28 1   
    53   27   29 1   
    54   28   50 1   
    55   29   30 ar  
    56   30   51 1   
@<TRIPOS>SUBSTRUCTURE
     1 HTT         1 TEMP              0 ****  ****    0 ROOT
