@<TRIPOS>MOLECULE
HTX
   22    21     1     0     0
SMALL
bcc


@<TRIPOS>ATOM
      1 C1          0.0320    0.0000   -0.0740 c3        1 HTX     -0.205100
      2 C2          1.5200    0.0000    0.0830 c         1 HTX      0.563100
      3 O2          2.0620   -0.0000    1.1920 o         1 HTX     -0.530100
      4 C3          2.2880   -0.0000   -1.2080 c3        1 HTX     -0.182400
      5 C5          3.7860   -0.0000   -0.9980 c3        1 HTX     -0.075400
      6 C11         4.5230   -0.0000   -2.3200 c3        1 HTX     -0.078400
      7 C12         6.0220   -0.0000   -2.1100 c3        1 HTX     -0.079400
      8 C13         6.7640   -0.0000   -3.4220 c3        1 HTX     -0.093100
      9 H1         -0.4720    0.0000    0.9230 hc        1 HTX      0.063033
     10 H1A        -0.2880    0.9080   -0.6410 hc        1 HTX      0.063033
     11 H1B        -0.2880   -0.9070   -0.6410 hc        1 HTX      0.063033
     12 H3          1.9840    0.9040   -1.8000 hc        1 HTX      0.063700
     13 H3A         1.9840   -0.9050   -1.8000 hc        1 HTX      0.063700
     14 H5          4.0770    0.9000   -0.3960 hc        1 HTX      0.054700
     15 H5A         4.0780   -0.9010   -0.3960 hc        1 HTX      0.054700
     16 H11         4.2280    0.9020   -2.9170 hc        1 HTX      0.037700
     17 H11A        4.2280   -0.9030   -2.9170 hc        1 HTX      0.037700
     18 H12         6.3160   -0.9020   -1.5110 hc        1 HTX      0.041700
     19 H12A        6.3150    0.9020   -1.5110 hc        1 HTX      0.041700
     20 H13         6.5030    0.9050   -4.0230 hc        1 HTX      0.032367
     21 H13A        6.5030   -0.9050   -4.0230 hc        1 HTX      0.032367
     22 H13B        7.8660    0.0000   -3.2450 hc        1 HTX      0.032367
@<TRIPOS>BOND
     1    1    2 1   
     2    1    9 1   
     3    1   10 1   
     4    1   11 1   
     5    2    3 2   
     6    2    4 1   
     7    4    5 1   
     8    4   12 1   
     9    4   13 1   
    10    5    6 1   
    11    5   14 1   
    12    5   15 1   
    13    6    7 1   
    14    6   16 1   
    15    6   17 1   
    16    7    8 1   
    17    7   18 1   
    18    7   19 1   
    19    8   20 1   
    20    8   21 1   
    21    8   22 1   
@<TRIPOS>SUBSTRUCTURE
     1 HTX         1 TEMP              0 ****  ****    0 ROOT
