@<TRIPOS>MOLECULE
HTX
   22    21     1     0     0
SMALL
bcc


@<TRIPOS>ATOM
      1 C1          3.4330   -0.7620   -0.0010 c3        1 HTX     -0.205100
      2 C2          2.2240    0.1210   -0.0000 c         1 HTX      0.563100
      3 O2          2.3120    1.3530    0.0000 o         1 HTX     -0.530100
      4 C3          0.9120   -0.6090    0.0000 c3        1 HTX     -0.182400
      5 C5         -0.2780    0.3250   -0.0000 c3        1 HTX     -0.075400
      6 C11        -1.5790   -0.4480    0.0000 c3        1 HTX     -0.078400
      7 C12        -2.7710    0.4860    0.0000 c3        1 HTX     -0.079400
      8 C13        -4.0710   -0.2760    0.0000 c3        1 HTX     -0.093100
      9 H1          4.3690   -0.1530   -0.0000 hc        1 HTX      0.063033
     10 H1A         3.4240   -1.4140    0.9060 hc        1 HTX      0.063033
     11 H1B         3.4240   -1.4130   -0.9080 hc        1 HTX      0.063033
     12 H3          0.8770   -1.2740   -0.9040 hc        1 HTX      0.063700
     13 H3A         0.8770   -1.2740    0.9050 hc        1 HTX      0.063700
     14 H5         -0.2280    0.9920    0.9000 hc        1 HTX      0.054700
     15 H5A        -0.2280    0.9920   -0.9010 hc        1 HTX      0.054700
     16 H11        -1.6240   -1.1130   -0.9020 hc        1 HTX      0.037700
     17 H11A       -1.6240   -1.1130    0.9030 hc        1 HTX      0.037700
     18 H12        -2.7230    1.1520    0.9020 hc        1 HTX      0.041700
     19 H12A       -2.7230    1.1510   -0.9020 hc        1 HTX      0.041700
     20 H13        -4.9350    0.4310    0.0000 hc        1 HTX      0.032367
     21 H13A       -4.1470   -0.9260   -0.9040 hc        1 HTX      0.032367
     22 H13B       -4.1470   -0.9260    0.9050 hc        1 HTX      0.032367
@<TRIPOS>BOND
     1    1    2 1   
     2    1    9 1   
     3    1   10 1   
     4    1   11 1   
     5    2    3 2   
     6    2    4 1   
     7    4    5 1   
     8    4   12 1   
     9    4   13 1   
    10    5    6 1   
    11    5   14 1   
    12    5   15 1   
    13    6    7 1   
    14    6   16 1   
    15    6   17 1   
    16    7    8 1   
    17    7   18 1   
    18    7   19 1   
    19    8   20 1   
    20    8   21 1   
    21    8   22 1   
@<TRIPOS>SUBSTRUCTURE
     1 HTX         1 TEMP              0 ****  ****    0 ROOT
