@<TRIPOS>MOLECULE
HTX
   22    21     1     0     0
SMALL
bcc


@<TRIPOS>ATOM
      1 C1          0.0330    0.0130   -0.0720 c3        1 HTX     -0.205100
      2 C2          1.5210    0.0020    0.0840 c         1 HTX      0.564100
      3 O2          2.0640   -0.0050    1.1930 o         1 HTX     -0.530100
      4 C3          2.2880   -0.0010   -1.2070 c3        1 HTX     -0.182400
      5 C5          3.7860   -0.0000   -0.9980 c3        1 HTX     -0.075400
      6 C11         4.5220   -0.0040   -2.3200 c3        1 HTX     -0.078400
      7 C12         6.0220   -0.0040   -2.1110 c3        1 HTX     -0.080400
      8 C13         6.7630   -0.0070   -3.4240 c3        1 HTX     -0.093100
      9 H1         -0.4710    0.0060    0.9250 hc        1 HTX      0.063033
     10 H1A        -0.2820    0.9290   -0.6290 hc        1 HTX      0.063033
     11 H1B        -0.2940   -0.8860   -0.6490 hc        1 HTX      0.063033
     12 H3          1.9840    0.9030   -1.8010 hc        1 HTX      0.063700
     13 H3A         1.9840   -0.9060   -1.7970 hc        1 HTX      0.063700
     14 H5          4.0790    0.9010   -0.3980 hc        1 HTX      0.055200
     15 H5A         4.0780   -0.9000   -0.3940 hc        1 HTX      0.055200
     16 H11         4.2280    0.8980   -2.9200 hc        1 HTX      0.037200
     17 H11A        4.2270   -0.9080   -2.9150 hc        1 HTX      0.037200
     18 H12         6.3150   -0.9060   -1.5110 hc        1 HTX      0.041200
     19 H12A        6.3160    0.8990   -1.5140 hc        1 HTX      0.041200
     20 H13         6.5030    0.8970   -4.0260 hc        1 HTX      0.032700
     21 H13A        6.5010   -0.9130   -4.0230 hc        1 HTX      0.032700
     22 H13B        7.8650   -0.0080   -3.2470 hc        1 HTX      0.032700
@<TRIPOS>BOND
     1    1    2 1   
     2    1    9 1   
     3    1   10 1   
     4    1   11 1   
     5    2    3 2   
     6    2    4 1   
     7    4    5 1   
     8    4   12 1   
     9    4   13 1   
    10    5    6 1   
    11    5   14 1   
    12    5   15 1   
    13    6    7 1   
    14    6   16 1   
    15    6   17 1   
    16    7    8 1   
    17    7   18 1   
    18    7   19 1   
    19    8   20 1   
    20    8   21 1   
    21    8   22 1   
@<TRIPOS>SUBSTRUCTURE
     1 HTX         1 TEMP              0 ****  ****    0 ROOT
