@<TRIPOS>MOLECULE
HTY
   24    22     1     0     0
SMALL
bcc


@<TRIPOS>ATOM
      1 C           1.6580    0.2580   -2.7500 c1        1 HTY      0.305000
      2 N           0.0760    1.9840   -2.2150 n3        1 HTY     -0.314000
      3 O           1.6420   -0.9220   -3.2760 o         1 HTY     -0.573000
      4 CA          0.5390    0.6910   -1.8290 c2        1 HTY     -0.158000
      5 CB          1.0490    0.7460   -0.4080 c3        1 HTY      0.094000
      6 OB          2.2840    0.1250   -0.3320 oh        1 HTY     -0.378000
      7 CG          0.0580    0.0270    0.5200 c2        1 HTY     -0.058000
      8 OH         -2.5810   -1.9000    3.0710 oh        1 HTY     -0.270000
      9 CZ         -1.6970   -1.2590    2.2290 c2        1 HTY      0.049000
     10 CD1        -0.0040   -1.3600    0.5310 c2        1 HTY     -0.068000
     11 CD2        -0.7630    0.7690    1.3680 c1        1 HTY     -0.093000
     12 CE1        -0.8780   -2.0020    1.3830 c2        1 HTY     -0.220000
     13 CE2        -1.6340    0.1280    2.2160 c1        1 HTY     -0.164000
     14 OXT         2.6250    1.0380   -2.9780 o         1 HTY     -0.573000
     15 H2         -0.7560    2.1250   -1.8670 hn        1 HTY      0.129000
     16 H           0.0390    2.0340   -3.1160 hn        1 HTY      0.129000
     17 HA         -0.2190    0.0330   -1.8880 h4        1 HTY      0.097000
     18 HB          1.1350    1.6560   -0.1350 h1        1 HTY      0.074000
     19 HOB         2.8010    0.5650    0.2440 ho        1 HTY      0.257000
     20 HOH        -2.1490   -2.1900    3.7870 ho        1 HTY      0.204000
     21 HD1         0.6030   -1.9100   -0.0970 ha        1 HTY      0.151000
     22 HD2        -0.7210    1.7240    1.3600 ha        1 HTY      0.132000
     23 HE1        -0.9230   -2.9860    1.3930 ha        1 HTY      0.116000
     24 HE2        -2.1840    0.6270    2.7860 ha        1 HTY      0.132000
@<TRIPOS>BOND
     1    1    3 1   
     2    1   14 1   
     3    2    4 1   
     4    2   15 1   
     5    2   16 1   
     6    4    5 1   
     7    4   17 1   
     8    5    6 1   
     9    5    7 1   
    10    5   18 1   
    11    6   19 1   
    12    7   10 1   
    13    7   11 1   
    14    8    9 1   
    15    8   20 1   
    16    9   12 1   
    17    9   13 1   
    18   10   12 1   
    19   10   21 1   
    20   11   22 1   
    21   12   23 1   
    22   13   24 1   
@<TRIPOS>SUBSTRUCTURE
     1 HTY         1 TEMP              0 ****  ****    0 ROOT
