@<TRIPOS>MOLECULE
HTY
   24    24     1     0     0
SMALL
bcc


@<TRIPOS>ATOM
      1 C          -3.0900   -0.2650    0.0140 c         1 HTY      0.885600
      2 N          -1.1280   -1.6250   -0.8380 n3        1 HTY     -0.881800
      3 O          -3.7520   -1.3380    0.0060 o         1 HTY     -0.838300
      4 CA         -1.6170   -0.2950   -0.5140 c3        1 HTY     -0.010500
      5 CB         -0.7280    0.4600    0.5060 c3        1 HTY      0.212400
      6 OB         -0.9650    1.8580    0.4200 oh        1 HTY     -0.650800
      7 CG          0.7420    0.2390    0.2800 ca        1 HTY     -0.065300
      8 CZ          3.4690   -0.1930   -0.1220 ca        1 HTY      0.094100
      9 CD1         1.3880   -0.8340    0.9050 ca        1 HTY     -0.080500
     10 CD2         1.4770    1.0940   -0.5490 ca        1 HTY     -0.080500
     11 CE1         2.7480   -1.0610    0.7110 ca        1 HTY     -0.192000
     12 CE2         2.8380    0.8870   -0.7530 ca        1 HTY     -0.192000
     13 OXT        -3.5430    0.8490    0.4100 o         1 HTY     -0.838300
     14 H2         -0.8970   -2.1020    0.0160 hn        1 HTY      0.333800
     15 H          -1.8950   -2.1320   -1.2510 hn        1 HTY      0.333800
     16 HA         -1.6080    0.2980   -1.4740 h1        1 HTY      0.057700
     17 HB         -0.9990    0.1120    1.5450 h1        1 HTY      0.034700
     18 HOB        -1.9320    1.9790    0.4510 ho        1 HTY      0.458000
     19 HOH         5.1660    0.1900   -0.9050 ho        1 HTY      0.405000
     20 HD1         0.8140   -1.5120    1.5550 ha        1 HTY      0.141500
     21 HD2         0.9610    1.9390   -1.0320 ha        1 HTY      0.141500
     22 HE1         3.2600   -1.9030    1.1930 ha        1 HTY      0.124000
     23 HE2         3.4120    1.5600   -1.4050 ha        1 HTY      0.124000
     24 OH          4.8180   -0.4550   -0.2750 oh        1 HTY     -0.516100
@<TRIPOS>BOND
     1    1    3 1   
     2    1    4 1   
     3    1   13 1   
     4    2    4 1   
     5    2   14 1   
     6    2   15 1   
     7    4    5 1   
     8    4   16 1   
     9    5    6 1   
    10    5    7 1   
    11    5   17 1   
    12    6   18 1   
    13    7    9 ar  
    14    7   10 ar  
    15    8   11 ar  
    16    8   12 ar  
    17    8   24 1   
    18    9   11 ar  
    19    9   20 1   
    20   10   12 ar  
    21   10   21 1   
    22   11   22 1   
    23   12   23 1   
    24   19   24 1   
@<TRIPOS>SUBSTRUCTURE
     1 HTY         1 TEMP              0 ****  ****    0 ROOT
