@<TRIPOS>MOLECULE
HU1
   85    87     1     0     0
SMALL
bcc


@<TRIPOS>ATOM
      1 C1          1.4260    0.6520    3.4540 c1        1 HU1      0.384000
      2 O2          1.0640    1.3860    4.3580 o         1 HU1     -0.386000
      3 O3          2.4930   -0.2800    3.6720 os        1 HU1     -0.295000
      4 C4          3.1310   -0.1500    4.9590 c3        1 HU1      0.114000
      5 C5          3.7740    1.2410    5.0750 c3        1 HU1     -0.233333
      6 C6          4.2140   -1.2290    5.1050 c3        1 HU1     -0.233333
      7 C7          2.0830   -0.3230    6.0700 c3        1 HU1     -0.233333
      8 N8          0.7430    0.6910    2.1640 n2        1 HU1     -0.330000
      9 C9         -0.1330    1.7620    1.8590 c3        1 HU1      0.009000
     10 C10         0.2300    2.3470    0.5030 c3        1 HU1     -0.125000
     11 C11        -0.8160    3.3960    0.1190 c3        1 HU1     -0.154500
     12 C12         1.6370    2.9280    0.5780 c3        1 HU1     -0.154500
     13 C13        -0.7450    4.6390    0.9990 c3        1 HU1     -0.160000
     14 C14         1.7080    4.1730    1.4570 c3        1 HU1     -0.160000
     15 C15         0.6640    5.2210    1.0730 c3        1 HU1     -0.155000
     16 C16        -1.5810    1.2490    1.8260 c2        1 HU1      0.305000
     17 O17        -2.4520    1.8380    2.4490 o         1 HU1     -0.359000
     18 N18        -1.9260    0.0350    1.0360 n         1 HU1     -0.308000
     19 C19        -3.2030   -0.5530    0.9110 c3        1 HU1     -0.018000
     20 C20        -0.9230   -0.8550    0.1680 c3        1 HU1      0.050000
     21 C21        -1.4610   -2.1890    0.3290 cx        1 HU1     -0.188000
     22 C22        -2.9570   -1.9850    0.6460 cx        1 HU1     -0.159000
     23 C23        -2.0560   -2.6800    1.6660 cx        1 HU1     -0.080000
     24 C24        -2.2440   -4.2020    1.7930 c3        1 HU1     -0.190000
     25 C25        -1.6900   -1.8540    2.9000 c3        1 HU1     -0.190000
     26 C26        -0.9150   -0.3780   -1.2010 c2        1 HU1      0.305000
     27 O27        -1.6720    0.5170   -1.5380 o         1 HU1     -0.354000
     28 N28        -0.0670   -1.0290   -2.1950 n         1 HU1     -0.386000
     29 C29        -0.5990   -1.3630   -3.4830 c3        1 HU1     -0.008000
     30 C30        -0.1100   -0.3530   -4.5130 c3        1 HU1     -0.168000
     31 C31        -0.5870   -0.7430   -5.8450 cy        1 HU1     -0.129000
     32 C32        -1.4520    0.2990   -6.4800 cy        1 HU1     -0.167500
     33 C33         0.4450   -0.5400   -6.9150 cy        1 HU1     -0.167500
     34 C34        -0.4210    0.5030   -7.5530 cy        1 HU1     -0.173000
     35 O35         1.0430   -3.0430   -3.7880 o         1 HU1     -0.272000
     36 C36        -0.1370   -2.7460   -3.8740 c2        1 HU1      0.209000
     37 O37        -2.3430   -3.5330   -4.3280 o         1 HU1     -0.341000
     38 N38        -0.6970   -5.0400   -4.8810 n         1 HU1     -0.410000
     39 C39        -1.1500   -3.7770   -4.3760 c2        1 HU1      0.257000
     40 H51         4.3940    1.2530    5.8390 hc        1 HU1      0.091667
     41 H52         4.2680    1.4420    4.2490 hc        1 HU1      0.091667
     42 H53         3.0740    1.9150    5.2100 hc        1 HU1      0.091667
     43 H61         3.8010   -2.1190    5.0410 hc        1 HU1      0.091667
     44 H62         4.8800   -1.1240    4.3890 hc        1 HU1      0.091667
     45 H63         4.6560   -1.1350    5.9800 hc        1 HU1      0.091667
     46 H71         1.2650   -0.7090    5.6910 hc        1 HU1      0.091667
     47 H72         1.8780    0.5530    6.4670 hc        1 HU1      0.091667
     48 H73         2.4370   -0.9230    6.7650 hc        1 HU1      0.091667
     49 HN8         0.9240    0.0560    1.5320 hn        1 HU1      0.231000
     50 H9         -0.0500    2.4590    2.5480 h1        1 HU1      0.157000
     51 H10         0.2190    1.6300   -0.1640 hc        1 HU1      0.130000
     52 H111       -1.7100    2.9990    0.2040 hc        1 HU1      0.087000
     53 H112       -0.6730    3.6610   -0.8180 hc        1 HU1      0.087000
     54 H121        1.9330    3.1640   -0.3320 hc        1 HU1      0.087000
     55 H122        2.2440    2.2470    0.9420 hc        1 HU1      0.087000
     56 H131       -1.3530    5.3230    0.6330 hc        1 HU1      0.083750
     57 H132       -1.0400    4.4040    1.9050 hc        1 HU1      0.083750
     58 H141        1.5650    3.9100    2.3920 hc        1 HU1      0.083750
     59 H142        2.6050    4.5720    1.3720 hc        1 HU1      0.083750
     60 H151        0.6750    5.9420    1.7430 hc        1 HU1      0.078000
     61 H152        0.8990    5.5980    0.1950 hc        1 HU1      0.078000
     62 H191       -3.6920   -0.1470    0.1590 h1        1 HU1      0.111000
     63 H192       -3.7120   -0.4440    1.7470 h1        1 HU1      0.111000
     64 H20         0.0320   -0.8260    0.3890 h1        1 HU1      0.121000
     65 H21        -1.3420   -2.8420   -0.3970 hc        1 HU1      0.145000
     66 H22        -3.5750   -2.5310    0.1080 hc        1 HU1      0.143000
     67 H241       -1.3660   -4.6340    1.8850 hc        1 HU1      0.084000
     68 H242       -2.7910   -4.3990    2.5880 hc        1 HU1      0.084000
     69 H243       -2.6960   -4.5450    0.9910 hc        1 HU1      0.084000
     70 H251       -2.4170   -1.2230    3.0990 hc        1 HU1      0.084000
     71 H252       -1.5570   -2.4540    3.6690 hc        1 HU1      0.084000
     72 H253       -0.8660   -1.3570    2.7270 hc        1 HU1      0.084000
     73 HN28        0.8030   -1.2400   -1.9880 hn        1 HU1      0.236000
     74 H29        -1.5800   -1.3440   -3.4460 h1        1 HU1      0.178000
     75 H301       -0.4570    0.5380   -4.2890 hc        1 HU1      0.101000
     76 H302        0.8740   -0.3320   -4.5100 hc        1 HU1      0.101000
     77 H31        -0.9890   -1.6380   -5.8730 hc        1 HU1      0.103000
     78 H321       -2.2960   -0.0680   -6.8280 hc        1 HU1      0.092500
     79 H322       -1.5710    1.0920   -5.9120 hc        1 HU1      0.092500
     80 H331        0.5660   -1.3340   -7.4840 hc        1 HU1      0.092500
     81 H332        1.2880   -0.1720   -6.5670 hc        1 HU1      0.092500
     82 H341       -0.7420    0.2380   -8.4440 hc        1 HU1      0.089000
     83 H342       -0.0180    1.3990   -7.5280 hc        1 HU1      0.089000
     84 H381       -1.3040   -5.6520   -5.1980 hn        1 HU1      0.235500
     85 H382        0.1970   -5.2380   -4.8830 hn        1 HU1      0.235500
@<TRIPOS>BOND
     1    1    2 1   
     2    1    3 1   
     3    3    4 1   
     4    4    5 1   
     5    4    6 1   
     6    4    7 1   
     7    5   40 1   
     8    5   41 1   
     9    5   42 1   
    10    6   43 1   
    11    6   44 1   
    12    6   45 1   
    13    7   46 1   
    14    7   47 1   
    15    7   48 1   
    16    8    9 1   
    17    8   49 1   
    18    9   10 1   
    19    9   16 1   
    20    9   50 1   
    21   10   11 1   
    22   10   12 1   
    23   10   51 1   
    24   11   13 1   
    25   11   52 1   
    26   11   53 1   
    27   12   14 1   
    28   12   54 1   
    29   12   55 1   
    30   13   15 1   
    31   13   56 1   
    32   13   57 1   
    33   14   15 1   
    34   14   58 1   
    35   14   59 1   
    36   15   60 1   
    37   15   61 1   
    38   16   17 1   
    39   16   18 1   
    40   18   19 1   
    41   18   20 1   
    42   19   22 1   
    43   19   62 1   
    44   19   63 1   
    45   20   21 1   
    46   20   26 1   
    47   20   64 1   
    48   21   22 1   
    49   21   23 1   
    50   21   65 1   
    51   22   23 1   
    52   22   66 1   
    53   23   24 1   
    54   23   25 1   
    55   24   67 1   
    56   24   68 1   
    57   24   69 1   
    58   25   70 1   
    59   25   71 1   
    60   25   72 1   
    61   26   27 1   
    62   26   28 1   
    63   28   29 1   
    64   28   73 1   
    65   29   30 1   
    66   29   36 1   
    67   29   74 1   
    68   30   31 1   
    69   30   75 1   
    70   30   76 1   
    71   31   32 1   
    72   31   33 1   
    73   31   77 1   
    74   32   34 1   
    75   32   78 1   
    76   32   79 1   
    77   33   34 1   
    78   33   80 1   
    79   33   81 1   
    80   34   82 1   
    81   34   83 1   
    82   35   36 1   
    83   36   39 1   
    84   37   39 1   
    85   38   39 1   
    86   38   84 1   
    87   38   85 1   
@<TRIPOS>SUBSTRUCTURE
     1 HU1         1 TEMP              0 ****  ****    0 ROOT
