@<TRIPOS>MOLECULE
HU1
   88    86     1     0     0
SMALL
bcc


@<TRIPOS>ATOM
      1 C1        137.8370 -128.7980  244.8830 c         1 HU1      0.659100
      2 O2        138.4120 -128.8590  243.8010 o         1 HU1     -0.492000
      3 O3        138.3210 -128.5800  246.0970 os        1 HU1     -0.415900
      4 C4        139.7980 -128.3410  246.3010 c3        1 HU1      0.210800
      5 C5        140.1930 -127.0940  245.5460 c3        1 HU1     -0.132100
      6 C6        139.8460 -128.1480  247.8070 c3        1 HU1     -0.132100
      7 C7        140.5500 -129.5730  245.8530 c3        1 HU1     -0.132100
      8 N8        136.3490 -128.9900  244.9570 nz        1 HU1     -0.727400
      9 C9        134.2950 -131.6280  242.1030 ce        1 HU1     -0.308200
     10 C10       133.1680 -132.0040  241.4810 c2        1 HU1     -0.018200
     11 C11       140.1680 -132.9230  239.0290 c2        1 HU1     -0.089000
     12 C12       132.2180 -132.9860  242.0550 c3        1 HU1     -0.080200
     13 C13       140.2670 -131.6390  239.3780 c2        1 HU1     -0.301200
     14 C14       130.7830 -132.6320  241.7480 c3        1 HU1     -0.100100
     15 C15       139.8140 -130.5290  238.5110 c3        1 HU1      0.151600
     16 C16       135.2720 -130.6560  241.5790 c         1 HU1      0.722300
     17 O17       135.9450 -129.9300  242.3650 o         1 HU1     -0.753100
     18 N18       135.4850 -130.6020  240.2160 ns        1 HU1     -0.540900
     19 C19       136.0010 -127.3300  240.7680 c2        1 HU1     -0.157000
     20 C20       136.2490 -129.6220  239.5080 cy        1 HU1      0.075300
     21 C21       135.8500 -129.4290  237.9870 cy        1 HU1     -0.072400
     22 C22       135.9550 -128.1270  239.7160 cv        1 HU1     -0.160400
     23 C23       135.5680 -127.9220  238.2590 cy        1 HU1     -0.007800
     24 C24       136.4870 -126.9940  237.5050 c3        1 HU1     -0.089100
     25 C25       134.1220 -127.5400  238.0630 c3        1 HU1     -0.089100
     26 C26       137.7690 -129.8840  239.6870 c2        1 HU1      0.562600
     27 O27       138.3710 -130.3160  238.5770 os        1 HU1     -0.370400
     28 N28       138.3850 -129.6770  240.8410 nv        1 HU1     -0.433100
     29 C29      -472.3460  446.7150 -848.2290 cx        1 HU1     -0.298700
     30 C30      -473.6830  446.7590 -848.9500 cx        1 HU1     -0.065400
     31 C31      -473.5550  445.9190 -847.7240 cx        1 HU1     -0.035700
     32 C32         7.8670   -5.6290    2.1230 c1        1 HU1     -0.160500
     33 C33      -473.5060  444.4360 -847.8180 c3        1 HU1     -0.092100
     34 C34         8.4820   -4.6150    2.2790 c1        1 HU1     -0.160500
     35 C36      -471.9200  447.8830 -847.4690 c         1 HU1      0.591100
     36 O37      -469.5190  447.3310 -847.8490 o         1 HU1     -0.358100
     37 N38      -469.9170  449.4270 -846.9370 nz        1 HU1     -0.760400
     38 C39      -470.3890  448.0930 -847.4770 c         1 HU1      0.418100
     39 H51       139.5560 -126.2280  245.8500 hc        1 HU1      0.076700
     40 H52       140.1040 -127.2470  244.4430 hc        1 HU1      0.076700
     41 H53       141.2580 -126.8480  245.7850 hc        1 HU1      0.076700
     42 H61       139.2330 -127.2670  248.1130 hc        1 HU1      0.076700
     43 H62       140.9100 -127.9720  248.1030 hc        1 HU1      0.076700
     44 H63       139.4670 -129.0560  248.3350 hc        1 HU1      0.076700
     45 H71       140.1610 -130.4840  246.3690 hc        1 HU1      0.076700
     46 H72       140.4690 -129.7110  244.7480 hc        1 HU1      0.076700
     47 H73       141.6310 -129.4530  246.1180 hc        1 HU1      0.076700
     48 HN8       136.0900 -129.8320  244.4100 hn        1 HU1      0.487467
     49 H9        135.8870 -128.1840  244.5230 hn        1 HU1      0.487467
     50 H10       134.5640 -132.0220  243.0970 ha        1 HU1      0.162000
     51 H111      132.8720 -131.5940  240.4970 ha        1 HU1      0.136000
     52 H112      140.5630 -133.7320  239.6630 ha        1 HU1      0.145000
     53 H121      132.4570 -133.9950  241.6120 hc        1 HU1      0.077700
     54 H122      132.3580 -133.0770  243.1660 hc        1 HU1      0.077700
     55 H131      139.7000 -133.2550  238.0890 ha        1 HU1      0.145000
     56 H132      140.7830 -131.3450  240.3070 ha        1 HU1      0.135000
     57 H141      130.6080 -132.5900  240.6460 hc        1 HU1      0.054700
     58 H142      130.1030 -133.4060  242.1820 hc        1 HU1      0.054700
     59 H151      130.5130 -131.6420  242.1880 hc        1 HU1      0.054700
     60 H152      140.3260 -129.5600  238.7460 h1        1 HU1      0.106200
     61 H191      135.7360 -126.2630  240.6920 ha        1 HU1      0.134000
     62 H192      136.2940 -127.6800  241.7680 ha        1 HU1      0.134000
     63 H20       134.9400 -131.2080  239.6370 hn        1 HU1      0.349500
     64 H21       134.9510 -130.0060  237.6810 hc        1 HU1      0.093700
     65 H22       136.6820 -129.6180  237.2760 hc        1 HU1      0.093700
     66 H241      136.3550 -125.9440  237.8640 hc        1 HU1      0.056200
     67 H242      136.2480 -127.0270  236.4140 hc        1 HU1      0.056200
     68 H243      137.5550 -127.2870  237.6440 hc        1 HU1      0.056200
     69 H251      133.8600 -127.5930  236.9780 hc        1 HU1      0.056200
     70 H252      133.9480 -126.4950  238.4180 hc        1 HU1      0.056200
     71 H253      133.4460 -128.2250  238.6270 hc        1 HU1      0.056200
     72 HN28      137.8590 -129.3680  241.6450 hn        1 HU1      0.336700
     73 H29       139.3650 -129.8390  240.9610 hn        1 HU1      0.336700
     74 H301     -471.5170  446.1460 -848.7010 hc        1 HU1      0.132700
     75 H302     -473.7360  446.2760 -849.9440 hc        1 HU1      0.105700
     76 H31      -474.2780  447.6910 -848.9000 hc        1 HU1      0.105700
     77 H321     -474.0410  446.2870 -846.7940 hc        1 HU1      0.106700
     78 H322        7.3230   -6.5280    1.9850 ha        1 HU1      0.160500
     79 H331     -474.5480  444.0260 -847.7920 hc        1 HU1      0.064033
     80 H332     -473.0200  444.0990 -848.7670 hc        1 HU1      0.064033
     81 H341     -472.9380  444.0080 -846.9560 hc        1 HU1      0.064033
     82 H342        9.0260   -3.7150    2.4170 ha        1 HU1      0.160500
     83 H381     -470.4460  449.6510 -846.0840 hn        1 HU1      0.475133
     84 H382     -468.9130  449.4070 -846.7260 hn        1 HU1      0.475133
     85 O35      -472.5970  448.6870 -846.8360 o         1 HU1     -0.466100
     86 H82       136.0440 -129.0840  245.9330 hn        1 HU1      0.487467
     87 H282      139.9270 -130.7680  237.4120 h1        1 HU1      0.106200
     88 H383     -470.0980  450.1600 -847.6300 hn        1 HU1      0.475133
@<TRIPOS>BOND
     1    1    2 2   
     2    1    3 1   
     3    1    8 1   
     4    3    4 1   
     5    4    5 1   
     6    4    6 1   
     7    4    7 1   
     8    5   39 1   
     9    5   40 1   
    10    5   41 1   
    11    6   42 1   
    12    6   43 1   
    13    6   44 1   
    14    7   45 1   
    15    7   46 1   
    16    7   47 1   
    17    8   48 1   
    18    8   49 1   
    19    8   86 1   
    20    9   10 2   
    21    9   16 1   
    22    9   50 1   
    23   10   12 1   
    24   10   51 1   
    25   11   13 2   
    26   11   52 1   
    27   11   55 1   
    28   12   14 1   
    29   12   53 1   
    30   12   54 1   
    31   13   15 1   
    32   13   56 1   
    33   14   57 1   
    34   14   58 1   
    35   14   59 1   
    36   15   27 1   
    37   15   60 1   
    38   15   87 1   
    39   16   17 2   
    40   16   18 1   
    41   18   20 1   
    42   18   63 1   
    43   19   22 2   
    44   19   61 1   
    45   19   62 1   
    46   20   21 1   
    47   20   22 1   
    48   20   26 1   
    49   21   23 1   
    50   21   64 1   
    51   21   65 1   
    52   22   23 1   
    53   23   24 1   
    54   23   25 1   
    55   24   66 1   
    56   24   67 1   
    57   24   68 1   
    58   25   69 1   
    59   25   70 1   
    60   25   71 1   
    61   26   27 1   
    62   26   28 2   
    63   28   72 1   
    64   28   73 1   
    65   29   30 1   
    66   29   31 1   
    67   29   35 1   
    68   29   74 1   
    69   30   31 1   
    70   30   75 1   
    71   30   76 1   
    72   31   33 1   
    73   31   77 1   
    74   32   34 3   
    75   32   78 1   
    76   33   79 1   
    77   33   80 1   
    78   33   81 1   
    79   34   82 1   
    80   35   38 1   
    81   35   85 2   
    82   36   38 2   
    83   37   38 1   
    84   37   83 1   
    85   37   84 1   
    86   37   88 1   
@<TRIPOS>SUBSTRUCTURE
     1 HU1         1 TEMP              0 ****  ****    0 ROOT
