@<TRIPOS>MOLECULE
HU1
   85    82     1     0     0
SMALL
bcc


@<TRIPOS>ATOM
      1 C1         -2.1370   -0.2700   -0.0880 c2        1 HU1      0.411000
      2 O2         -1.0860    0.4020   -0.1730 o         1 HU1     -0.476000
      3 O3         -2.6370   -0.6510    1.1300 os        1 HU1     -0.283000
      4 C4         -2.0300   -0.1410    2.3480 c3        1 HU1      0.115000
      5 C5         -2.1030    1.3750    2.3900 c3        1 HU1     -0.231333
      6 C6         -2.9110   -0.7490    3.4380 c3        1 HU1     -0.231333
      7 C7         -0.6010   -0.6400    2.4830 c3        1 HU1     -0.231333
      8 N8         -2.9190   -0.6700   -1.1380 n         1 HU1     -0.392000
      9 C9          1.7030   -0.7360   -3.1160 c2        1 HU1     -0.276000
     10 C10         2.3560   -1.0310   -4.2450 c2        1 HU1     -0.024000
     11 C11        -0.0840   -1.8420   -7.4450 c2        1 HU1     -0.038000
     12 C12         3.6880   -1.6850   -4.2580 c3        1 HU1     -0.146000
     13 C13         0.7020   -2.5520   -8.2820 c2        1 HU1     -0.297000
     14 C14         3.6610   -2.9590   -5.0680 c3        1 HU1     -0.236000
     15 C15         2.0950   -2.6370   -8.0660 c1        1 HU1     -0.099000
     16 C16         0.3580   -0.1370   -3.0740 c2        1 HU1      0.382000
     17 O17        -0.7050   -0.7430   -3.2140 o         1 HU1     -0.286000
     18 N18         0.2450    1.2900   -2.5870 n4        1 HU1      0.056000
     19 C19         1.3660    1.6680   -1.6540 c3        1 HU1     -0.174000
     20 C20         0.1150    2.2800   -3.6420 c2        1 HU1     -0.585000
     21 C21        -0.0980    3.6610   -3.1540 c3        1 HU1     -0.046000
     22 C22         1.6530    3.0740   -1.4430 c1        1 HU1     -0.007000
     23 C23         1.0590    4.1400   -2.2600 c3        1 HU1     -0.122000
     24 C24         2.1900    4.6860   -3.1400 c3        1 HU1     -0.181000
     25 C25         0.5730    5.2490   -1.3310 c3        1 HU1     -0.181000
     26 C26         0.1340    1.8580   -4.9980 c2        1 HU1      0.370000
     27 O27         0.2350    0.6300   -5.3300 o         1 HU1     -0.535000
     28 N28         0.0810    2.7860   -6.0410 n         1 HU1     -0.400000
     29 C29        -2.6110   -1.3130   -9.5320 c1        1 HU1     -0.049000
     30 C30        -2.5460    0.0970   -9.6760 c3        1 HU1     -0.160000
     31 C31        -2.3720    0.8530   -8.3730 c3        1 HU1     -0.153000
     32 C32        -1.3040    3.7950  -10.3040 c2        1 HU1     -0.217000
     33 C33        -2.3950    2.3500   -8.6020 c3        1 HU1     -0.142000
     34 C34        -1.2340    2.8240   -9.3960 c2        1 HU1     -0.179000
     35 C36        -2.6360   -2.4140  -10.3950 c2        1 HU1      0.190000
     36 O37        -4.8560   -1.7870  -11.1230 o         1 HU1     -0.383000
     37 N38        -4.4010   -4.0300  -11.0450 n         1 HU1     -0.395000
     38 C39        -4.0620   -2.7210  -10.8860 c2        1 HU1      0.271000
     39 H51        -3.1490    1.7150    2.2020 hc        1 HU1      0.091778
     40 H52        -1.7800    1.7330    3.3970 hc        1 HU1      0.091778
     41 H53        -1.4330    1.8210    1.6160 hc        1 HU1      0.091778
     42 H61        -3.9670   -0.4130    3.3110 hc        1 HU1      0.091778
     43 H62        -2.8800   -1.8620    3.3830 hc        1 HU1      0.091778
     44 H63        -2.5350   -0.4170    4.4340 hc        1 HU1      0.091778
     45 H71        -0.5640   -1.7440    2.3280 hc        1 HU1      0.091778
     46 H72         0.0590   -0.1470    1.7280 hc        1 HU1      0.091778
     47 H73        -0.2220   -0.4030    3.5060 hc        1 HU1      0.091778
     48 HN8        -2.5250   -0.6270   -2.0510 hn        1 HU1      0.248000
     49 H9         -3.6590   -1.3060   -0.9670 hn        1 HU1      0.248000
     50 H10         2.0990   -0.9860   -2.1170 ha        1 HU1      0.145000
     51 H111        1.9290   -0.7900   -5.2390 ha        1 HU1      0.183000
     52 H112       -1.1700   -1.7490   -7.6160 ha        1 HU1      0.142500
     53 H121        4.4220   -0.9660   -4.7170 hc        1 HU1      0.086500
     54 H122        4.0430   -1.9030   -3.2150 hc        1 HU1      0.086500
     55 H131        0.3110   -1.2790   -6.5820 ha        1 HU1      0.142500
     56 H132        0.2310   -3.0810   -9.1380 ha        1 HU1      0.117000
     57 H141        3.2360   -2.7720   -6.0920 hc        1 HU1      0.093667
     58 H142        4.6960   -3.3610   -5.1740 hc        1 HU1      0.093667
     59 H151        3.0320   -3.7310   -4.5620 hc        1 HU1      0.093667
     60 H152        2.7100   -2.9260   -8.9320 ha        1 HU1      0.040000
     61 H191        1.1510    1.1800   -0.6530 hx        1 HU1      0.173000
     62 H192        2.3460    1.2560   -2.0560 hx        1 HU1      0.173000
     63 H20        -0.6320    1.3330   -2.0370 hn        1 HU1      0.230000
     64 H21        -1.0530    3.7200   -2.5570 hc        1 HU1      0.068500
     65 H22        -0.2130    4.3820   -4.0020 hc        1 HU1      0.068500
     66 H241        2.4580    3.9390   -3.9250 hc        1 HU1      0.083333
     67 H242        1.8410    5.6220   -3.6390 hc        1 HU1      0.083333
     68 H243        3.0900    4.9190   -2.5230 hc        1 HU1      0.083333
     69 H251        0.1380    6.0770   -1.9400 hc        1 HU1      0.083333
     70 H252        1.4230    5.6460   -0.7260 hc        1 HU1      0.083333
     71 H253       -0.2120    4.8630   -0.6390 hc        1 HU1      0.083333
     72 HN28       -0.3250    3.6690   -5.8540 hn        1 HU1      0.191500
     73 H29        -0.1330    2.4040   -6.9340 hn        1 HU1      0.191500
     74 H301       -1.7600    0.4240  -10.4190 hc        1 HU1      0.158000
     75 H302       -3.5540    0.3620  -10.1500 hc        1 HU1      0.158000
     76 H31        -3.1940    0.5710   -7.6640 hc        1 HU1      0.106500
     77 H321       -1.4020    0.5530   -7.8890 hc        1 HU1      0.106500
     78 H322       -0.4230    4.1390  -10.8610 ha        1 HU1      0.114000
     79 H331       -2.2410    4.3110  -10.5530 ha        1 HU1      0.114000
     80 H332       -3.3580    2.6400   -9.1030 hc        1 HU1      0.091000
     81 H341       -2.3780    2.8650   -7.6010 hc        1 HU1      0.091000
     82 H342       -0.2760    2.3230   -9.1720 ha        1 HU1      0.127000
     83 H381       -3.7150   -4.7360  -10.9330 hn        1 HU1      0.239500
     84 H382       -5.2900   -4.2700  -11.4110 hn        1 HU1      0.239500
     85 O35        -1.6970   -3.1940  -10.6410 o         1 HU1     -0.328000
@<TRIPOS>BOND
     1    1    2 1   
     2    1    3 1   
     3    1    8 1   
     4    3    4 1   
     5    4    5 1   
     6    4    6 1   
     7    4    7 1   
     8    5   39 1   
     9    5   40 1   
    10    5   41 1   
    11    6   42 1   
    12    6   43 1   
    13    6   44 1   
    14    7   45 1   
    15    7   46 1   
    16    7   47 1   
    17    8   48 1   
    18    8   49 1   
    19    9   10 1   
    20    9   16 1   
    21    9   50 1   
    22   10   12 1   
    23   10   51 1   
    24   11   13 1   
    25   11   52 1   
    26   11   55 1   
    27   12   14 1   
    28   12   53 1   
    29   12   54 1   
    30   13   15 1   
    31   13   56 1   
    32   14   57 1   
    33   14   58 1   
    34   14   59 1   
    35   15   60 1   
    36   16   17 1   
    37   16   18 1   
    38   18   19 1   
    39   18   20 1   
    40   18   63 1   
    41   19   22 1   
    42   19   61 1   
    43   19   62 1   
    44   20   21 1   
    45   20   26 1   
    46   21   23 1   
    47   21   64 1   
    48   21   65 1   
    49   22   23 1   
    50   23   24 1   
    51   23   25 1   
    52   24   66 1   
    53   24   67 1   
    54   24   68 1   
    55   25   69 1   
    56   25   70 1   
    57   25   71 1   
    58   26   27 1   
    59   26   28 1   
    60   28   72 1   
    61   28   73 1   
    62   29   30 1   
    63   29   35 1   
    64   30   31 1   
    65   30   74 1   
    66   30   75 1   
    67   31   33 1   
    68   31   76 1   
    69   31   77 1   
    70   32   34 1   
    71   32   78 1   
    72   32   79 1   
    73   33   34 1   
    74   33   80 1   
    75   33   81 1   
    76   34   82 1   
    77   35   38 1   
    78   35   85 1   
    79   36   38 1   
    80   37   38 1   
    81   37   83 1   
    82   37   84 1   
@<TRIPOS>SUBSTRUCTURE
     1 HU1         1 TEMP              0 ****  ****    0 ROOT
