@<TRIPOS>MOLECULE
HU1
   85    88     1     0     0
SMALL
bcc


@<TRIPOS>ATOM
      1 C1          4.3430    0.1310    0.2480 c         1 HU1      0.742100
      2 O2          4.3830    0.6880   -0.8630 o         1 HU1     -0.606000
      3 O3          5.1550    0.5300    1.2800 os        1 HU1     -0.442900
      4 C4          6.2250    1.4780    1.0180 c3        1 HU1      0.185800
      5 C5          5.6550    2.8320    0.6320 c3        1 HU1     -0.114433
      6 C6          6.9310    1.5630    2.3710 c3        1 HU1     -0.114433
      7 C7          7.1720    0.9440   -0.0420 c3        1 HU1     -0.114433
      8 N8          3.5530   -0.9520    0.6060 n         1 HU1     -0.517900
      9 C9          2.4370   -1.3160   -0.2370 c3        1 HU1      0.047700
     10 C10         2.0350   -2.8030   -0.0880 c3        1 HU1     -0.060700
     11 C11         0.8870   -3.1060   -1.0440 c3        1 HU1     -0.079400
     12 C12         3.2180   -3.7170   -0.3740 c3        1 HU1     -0.079400
     13 C13         0.4860   -4.5650   -0.9680 c3        1 HU1     -0.074400
     14 C14         2.8120   -5.1760   -0.3050 c3        1 HU1     -0.074400
     15 C15         1.6630   -5.4780   -1.2430 c3        1 HU1     -0.079400
     16 C16         1.1870   -0.4700    0.1250 c         1 HU1      0.643100
     17 O17         0.7120   -0.5200    1.2780 o         1 HU1     -0.615100
     18 N18         0.6160    0.3310   -0.8370 n         1 HU1     -0.465800
     19 C19         1.2270    0.6740   -2.1160 c3        1 HU1      0.111000
     20 C20        -0.6070    1.0890   -0.5860 c3        1 HU1      0.075700
     21 C21        -0.7880    2.0260   -1.7800 cx        1 HU1     -0.142700
     22 C22         0.3710    1.7700   -2.7300 cx        1 HU1     -0.121700
     23 C23         0.2480    3.1050   -2.0240 cx        1 HU1     -0.074000
     24 C24        -0.2060    4.2530   -2.8790 c3        1 HU1     -0.071600
     25 C25         1.2000    3.5440   -0.9610 c3        1 HU1     -0.071600
     26 C26        -1.8630    0.1950   -0.4710 c         1 HU1      0.663100
     27 O27        -1.9180   -0.9690   -0.9080 o         1 HU1     -0.600100
     28 N28        -2.9560    0.7810    0.1380 n         1 HU1     -0.565900
     29 C29        -4.1910    0.0750    0.3470 c3        1 HU1      0.031700
     30 C30        -4.9030    0.4590    1.6580 c3        1 HU1     -0.084400
     31 C31        -4.0490    0.2010    2.8670 cy        1 HU1     -0.081700
     32 C32        -3.1350    1.3680    3.3220 cy        1 HU1     -0.091400
     33 C33        -4.8140    0.2940    4.2130 cy        1 HU1     -0.091400
     34 C34        -3.8780    1.4300    4.6720 cy        1 HU1     -0.094400
     35 C36        -5.1960    0.2980   -0.7860 c         1 HU1      0.490100
     36 O37        -6.7840   -1.3760   -0.0650 o         1 HU1     -0.599100
     37 N38        -6.2500   -1.3550   -2.2850 n         1 HU1     -0.650000
     38 C39        -6.1440   -0.8750   -1.0120 c         1 HU1      0.571100
     39 H51         4.8890    3.1520    1.3790 hc        1 HU1      0.052367
     40 H52         6.4770    3.5860    0.6080 hc        1 HU1      0.052367
     41 H53         5.1770    2.7810   -0.3760 hc        1 HU1      0.052367
     42 H61         7.3240    0.5610    2.6640 hc        1 HU1      0.052367
     43 H62         7.7780    2.2840    2.2930 hc        1 HU1      0.052367
     44 H63         6.2190    1.9120    3.1550 hc        1 HU1      0.052367
     45 H71         6.6700    0.9230   -1.0400 hc        1 HU1      0.052367
     46 H72         8.0700    1.6040   -0.1020 hc        1 HU1      0.052367
     47 H73         7.4980   -0.0900    0.2200 hc        1 HU1      0.052367
     48 HN8         3.4640   -1.1540    1.5770 hn        1 HU1      0.330500
     49 H9          2.7500   -1.1380   -1.3090 h1        1 HU1      0.095700
     50 H10         1.6810   -2.9750    0.9670 hc        1 HU1      0.072700
     51 H111       -0.0030   -2.4670   -0.7920 hc        1 HU1      0.051450
     52 H112        1.1990   -2.8570   -2.0920 hc        1 HU1      0.051450
     53 H121        3.6270   -3.4870   -1.3920 hc        1 HU1      0.051450
     54 H122        4.0370   -3.5340    0.3690 hc        1 HU1      0.051450
     55 H131        0.0700   -4.7850    0.0500 hc        1 HU1      0.042200
     56 H132       -0.3280   -4.7620   -1.7130 hc        1 HU1      0.042200
     57 H141        3.6930   -5.8170   -0.5690 hc        1 HU1      0.042200
     58 H142        2.5130   -5.4300    0.7460 hc        1 HU1      0.042200
     59 H151        1.3480   -6.5460   -1.1200 hc        1 HU1      0.038700
     60 H152        2.0000   -5.3460   -2.3040 hc        1 HU1      0.038700
     61 H191        2.2900    1.0160   -1.9580 h1        1 HU1      0.071200
     62 H192        1.2280   -0.2280   -2.7910 h1        1 HU1      0.071200
     63 H20        -0.4760    1.6630    0.3780 h1        1 HU1      0.085700
     64 H21        -1.8250    2.1810   -2.1150 hc        1 HU1      0.109700
     65 H22         0.2560    1.7220   -3.8230 hc        1 HU1      0.102700
     66 H241       -0.6670    5.0450   -2.2410 hc        1 HU1      0.044200
     67 H242        0.6680    4.6930   -3.4190 hc        1 HU1      0.044200
     68 H243       -0.9590    3.9230   -3.6350 hc        1 HU1      0.044200
     69 H251        1.6800    2.6870   -0.4330 hc        1 HU1      0.044200
     70 H252        2.0120    4.1660   -1.4140 hc        1 HU1      0.044200
     71 H253        0.6590    4.1660   -0.2050 hc        1 HU1      0.044200
     72 HN28       -2.8960    1.7080    0.4840 hn        1 HU1      0.321500
     73 H29        -3.9600   -1.0370    0.3700 h1        1 HU1      0.109700
     74 H301       -5.2130    1.5360    1.6220 hc        1 HU1      0.071200
     75 H302       -5.8370   -0.1670    1.7200 hc        1 HU1      0.071200
     76 H31        -3.4910   -0.7590    2.7590 hc        1 HU1      0.070700
     77 H321       -2.0630    1.0890    3.4030 hc        1 HU1      0.050450
     78 H322       -3.2370    2.2910    2.7130 hc        1 HU1      0.050450
     79 H331       -5.8770    0.5980    4.1070 hc        1 HU1      0.050450
     80 H332       -4.7480   -0.6280    4.8280 hc        1 HU1      0.050450
     81 H341       -3.2460    1.1690    5.5470 hc        1 HU1      0.049200
     82 H342       -4.3940    2.3940    4.8620 hc        1 HU1      0.049200
     83 H381       -5.7890   -0.9060   -3.0350 hn        1 HU1      0.321500
     84 H382       -6.8550   -2.1150   -2.4770 hn        1 HU1      0.321500
     85 O35        -5.2780    1.3190   -1.4670 o         1 HU1     -0.499100
@<TRIPOS>BOND
     1    1    2 2   
     2    1    3 1   
     3    1    8 1   
     4    3    4 1   
     5    4    5 1   
     6    4    6 1   
     7    4    7 1   
     8    5   39 1   
     9    5   40 1   
    10    5   41 1   
    11    6   42 1   
    12    6   43 1   
    13    6   44 1   
    14    7   45 1   
    15    7   46 1   
    16    7   47 1   
    17    8    9 1   
    18    8   48 1   
    19    9   10 1   
    20    9   16 1   
    21    9   49 1   
    22   10   11 1   
    23   10   12 1   
    24   10   50 1   
    25   11   13 1   
    26   11   51 1   
    27   11   52 1   
    28   12   14 1   
    29   12   53 1   
    30   12   54 1   
    31   13   15 1   
    32   13   55 1   
    33   13   56 1   
    34   14   15 1   
    35   14   57 1   
    36   14   58 1   
    37   15   59 1   
    38   15   60 1   
    39   16   17 2   
    40   16   18 1   
    41   18   19 1   
    42   18   20 1   
    43   19   22 1   
    44   19   61 1   
    45   19   62 1   
    46   20   21 1   
    47   20   26 1   
    48   20   63 1   
    49   21   22 1   
    50   21   23 1   
    51   21   64 1   
    52   22   23 1   
    53   22   65 1   
    54   23   24 1   
    55   23   25 1   
    56   24   66 1   
    57   24   67 1   
    58   24   68 1   
    59   25   69 1   
    60   25   70 1   
    61   25   71 1   
    62   26   27 2   
    63   26   28 1   
    64   28   29 1   
    65   28   72 1   
    66   29   30 1   
    67   29   35 1   
    68   29   73 1   
    69   30   31 1   
    70   30   74 1   
    71   30   75 1   
    72   31   32 1   
    73   31   33 1   
    74   31   76 1   
    75   32   34 1   
    76   32   77 1   
    77   32   78 1   
    78   33   34 1   
    79   33   79 1   
    80   33   80 1   
    81   34   81 1   
    82   34   82 1   
    83   35   38 1   
    84   35   85 2   
    85   36   38 2   
    86   37   38 1   
    87   37   83 1   
    88   37   84 1   
@<TRIPOS>SUBSTRUCTURE
     1 HU1         1 TEMP              0 ****  ****    0 ROOT
