@<TRIPOS>MOLECULE
HU2
   96    91     1     0     0
SMALL
bcc


@<TRIPOS>ATOM
      1 C1          0.2490    1.3050   -0.9500 c2        1 HU2      0.302000
      2 C2          1.7360    1.0840   -0.6430 c3        1 HU2     -0.095000
      3 C3          1.8730    0.1700    0.5700 c3        1 HU2     -0.125000
      4 C4          3.2850    0.0310    0.9980 c2        1 HU2     -0.162000
      5 C5          3.6730    0.0590    2.2760 c2        1 HU2     -0.173000
      6 C6          5.0780   -0.1310    2.7070 c3        1 HU2     -0.126000
      7 C7          5.4960    0.8700    3.7790 c3        1 HU2     -0.105000
      8 C8          4.9210    0.5010    5.1310 c3        1 HU2     -0.207500
      9 C9          7.0070    0.9470    3.8580 c3        1 HU2     -0.207500
     10 C10         2.4290    0.5170   -1.8350 c2        1 HU2     -0.167000
     11 C11        -0.7930   -2.4930    0.6970 c3        1 HU2     -0.277000
     12 C12         3.1870    1.2360   -2.6600 c2        1 HU2     -0.210000
     13 O13        -0.6420    0.8680   -0.1930 o         1 HU2     -0.383000
     14 N14        -0.0390    2.0820   -2.0530 n         1 HU2     -0.346000
     15 C15        -1.3840    2.2270   -2.5620 c3        1 HU2     -0.005000
     16 C16        -1.8800    3.6820   -2.5670 c3        1 HU2     -0.158000
     17 C17        -1.9220    4.3240   -1.1890 c3        1 HU2     -0.100000
     18 C18        -2.3840    5.7620   -1.3220 c3        1 HU2     -0.215000
     19 C19        -2.8280    3.5660   -0.2420 c3        1 HU2     -0.215000
     20 C20        -1.4770    1.7210   -4.0290 c2        1 HU2      0.275000
     21 O21        -0.4640    1.7080   -4.7660 o         1 HU2     -0.418000
     22 N22        -2.6960    1.3310   -4.4830 n         1 HU2     -0.414000
     23 C23        -6.8320   -0.8900   -4.6410 c2        1 HU2     -0.246000
     24 C24        -6.8660   -1.7580   -5.6590 c2        1 HU2     -0.085000
     25 C25        -7.6700   -3.0030   -5.6460 c3        1 HU2     -0.142000
     26 C26        -8.4460   -3.1800   -6.9290 c3        1 HU2     -0.225000
     27 C28        -6.0030    0.3230   -4.6470 c2        1 HU2      0.207000
     28 O29        -4.5430    0.4590   -6.5240 o         1 HU2     -0.568000
     29 N30        -5.5510    2.4650   -5.9290 n3        1 HU2     -0.131000
     30 C31        -6.5330    3.2920   -5.8510 c2        1 HU2      0.004000
     31 C32        -6.3310    4.7980   -5.7930 c2        1 HU2      0.280000
     32 O33        -5.1760    5.2650   -5.6360 o         1 HU2     -0.412000
     33 C34        -5.6660    0.8830   -6.0530 c3        1 HU2      0.214000
     34 N35        -7.4310    5.5690   -5.9500 n         1 HU2     -0.372000
     35 C36       -11.8450    3.4460   -5.5800 c2        1 HU2     -0.135000
     36 C37       -12.8450    3.5010   -6.4680 c2        1 HU2     -0.096000
     37 C38        -9.9630    0.9370   -8.9780 c1        1 HU2      0.310000
     38 C39       -12.7950    4.1270   -7.7230 c1        1 HU2     -0.096000
     39 C40       -10.2190    0.7180   -7.7050 c2        1 HU2     -0.583000
     40 C41       -12.7770    4.6530   -8.7990 c1        1 HU2     -0.243000
     41 C42       -10.5550   -0.4830   -7.0630 c1        1 HU2     -0.055000
     42 C43       -10.4840    4.0440   -5.7310 c2        1 HU2      0.356000
     43 O44        -9.5460    3.3480   -6.2530 o         1 HU2     -0.586000
     44 O45       -10.2500    5.2070   -5.2990 o         1 HU2     -0.586000
     45 H2          2.1750    2.0900   -0.3820 hc        1 HU2      0.114000
     46 H31         4.0110   -0.1160    0.1800 ha        1 HU2      0.122000
     47 H32         1.4580   -0.8460    0.3160 hc        1 HU2      0.107000
     48 H41A        1.2350    0.5780    1.4000 hc        1 HU2      0.107000
     49 H51         2.9440    0.2140    3.0880 ha        1 HU2      0.123000
     50 H61         5.1030    1.8850    3.4890 hc        1 HU2      0.092000
     51 H62         5.7700   -0.0360    1.8270 hc        1 HU2      0.083500
     52 H7          5.1980   -1.1740    3.1100 hc        1 HU2      0.083500
     53 H81         3.8070    0.4520    5.0830 hc        1 HU2      0.071333
     54 H82         5.3050   -0.4930    5.4630 hc        1 HU2      0.071333
     55 H83         5.2100    1.2640    5.8940 hc        1 HU2      0.071333
     56 H91         7.4390   -0.0550    4.0950 hc        1 HU2      0.071333
     57 H92         7.4320    1.2940    2.8850 hc        1 HU2      0.071333
     58 H93         7.3170    1.6640    4.6560 hc        1 HU2      0.071333
     59 H10         2.2610   -0.5600   -2.0000 ha        1 HU2      0.132000
     60 H111        0.2520   -2.8690    0.6460 hc        1 HU2      0.069000
     61 H112       -1.2140   -2.7070    1.7040 hc        1 HU2      0.069000
     62 H113       -1.4080   -3.0020   -0.0760 hc        1 HU2      0.069000
     63 H121       -0.8040   -1.3930    0.5150 hc        1 HU2      0.069000
     64 H122        3.6730    0.7940   -3.5390 ha        1 HU2      0.115000
     65 H123        3.3640    2.3120   -2.5240 ha        1 HU2      0.115000
     66 HN14        0.6880    2.2380   -2.7200 hn        1 HU2      0.240000
     67 H15        -0.8810    4.3280   -0.7570 hc        1 HU2      0.084000
     68 H161       -2.0760    1.6140   -1.9070 h1        1 HU2      0.140000
     69 H162       -2.9140    3.6870   -3.0040 hc        1 HU2      0.097000
     70 H17        -1.2240    4.2970   -3.2390 hc        1 HU2      0.097000
     71 H181       -3.4200    5.8040   -1.7380 hc        1 HU2      0.075833
     72 H182       -1.7070    6.3290   -2.0040 hc        1 HU2      0.075833
     73 H183       -2.3830    6.2620   -0.3230 hc        1 HU2      0.075833
     74 H191       -3.8360    3.4140   -0.6970 hc        1 HU2      0.075833
     75 H192       -2.9530    4.1370    0.7100 hc        1 HU2      0.075833
     76 H193       -2.3890    2.5660    0.0030 hc        1 HU2      0.075833
     77 HN22       -3.4830    1.2970   -3.8790 hn        1 HU2      0.254000
     78 H23        -2.8090    0.9750   -5.4100 hn        1 HU2      0.254000
     79 H241       -7.4150   -1.0490   -3.7180 ha        1 HU2      0.137000
     80 H242       -6.2600   -1.5890   -6.5700 ha        1 HU2      0.149000
     81 H251       -8.3790   -3.0100   -4.7750 hc        1 HU2      0.083500
     82 H252       -6.9680   -3.8720   -5.5070 hc        1 HU2      0.083500
     83 H261       -7.7590   -3.1750   -7.8100 hc        1 HU2      0.085333
     84 H262       -8.9930   -4.1530   -6.9120 hc        1 HU2      0.085333
     85 H263       -9.1960   -2.3560   -7.0600 hc        1 HU2      0.085333
     86 HN30       -6.5820    0.7820   -6.7140 h2        1 HU2      0.060000
     87 H311       -4.6010    2.8050   -5.9700 hn        1 HU2      0.239000
     88 H312       -7.5930    2.9210   -5.8240 h4        1 HU2      0.245000
     89 HN35       -8.3560    5.1660   -5.9820 hn        1 HU2      0.266500
     90 H36        -7.3490    6.5490   -5.8370 hn        1 HU2      0.266500
     91 H38       -11.9910    2.9300   -4.6170 ha        1 HU2      0.121000
     92 H39       -13.8180    3.0260   -6.2370 ha        1 HU2      0.115000
     93 H40       -10.1330    1.6910   -7.1000 ha        1 HU2      0.274000
     94 H41       -10.7820   -0.4000   -5.9850 ha        1 HU2      0.029000
     95 H42       -12.7470    5.1210   -9.7480 ha        1 HU2      0.212000
     96 O27        -5.5770    0.8270   -3.5980 o         1 HU2     -0.335000
@<TRIPOS>BOND
     1    1    2 1   
     2    1   13 1   
     3    1   14 1   
     4    2    3 1   
     5    2   10 1   
     6    2   45 1   
     7    3    4 1   
     8    3   47 1   
     9    3   48 1   
    10    4    5 1   
    11    4   46 1   
    12    5    6 1   
    13    5   49 1   
    14    6    7 1   
    15    6   51 1   
    16    6   52 1   
    17    7    8 1   
    18    7    9 1   
    19    7   50 1   
    20    8   53 1   
    21    8   54 1   
    22    8   55 1   
    23    9   56 1   
    24    9   57 1   
    25    9   58 1   
    26   10   12 1   
    27   10   59 1   
    28   11   60 1   
    29   11   61 1   
    30   11   62 1   
    31   11   63 1   
    32   12   64 1   
    33   12   65 1   
    34   14   15 1   
    35   14   66 1   
    36   15   16 1   
    37   15   20 1   
    38   15   68 1   
    39   16   17 1   
    40   16   69 1   
    41   16   70 1   
    42   17   18 1   
    43   17   19 1   
    44   17   67 1   
    45   18   71 1   
    46   18   72 1   
    47   18   73 1   
    48   19   74 1   
    49   19   75 1   
    50   19   76 1   
    51   20   21 1   
    52   20   22 1   
    53   22   77 1   
    54   22   78 1   
    55   23   24 1   
    56   23   27 1   
    57   23   79 1   
    58   24   25 1   
    59   24   80 1   
    60   25   26 1   
    61   25   81 1   
    62   25   82 1   
    63   26   83 1   
    64   26   84 1   
    65   26   85 1   
    66   27   33 1   
    67   27   96 1   
    68   28   33 1   
    69   29   30 1   
    70   29   33 1   
    71   29   87 1   
    72   30   31 1   
    73   30   88 1   
    74   31   32 1   
    75   31   34 1   
    76   33   86 1   
    77   34   89 1   
    78   34   90 1   
    79   35   36 1   
    80   35   42 1   
    81   35   91 1   
    82   36   38 1   
    83   36   92 1   
    84   37   39 1   
    85   38   40 1   
    86   39   41 1   
    87   39   93 1   
    88   40   95 1   
    89   41   94 1   
    90   42   43 1   
    91   42   44 1   
@<TRIPOS>SUBSTRUCTURE
     1 HU2         1 TEMP              0 ****  ****    0 ROOT
