@<TRIPOS>MOLECULE
HU2
   96    92     1     0     0
SMALL
bcc


@<TRIPOS>ATOM
      1 C1          2.0350   -3.0050    1.6800 c1        1 HU2      0.300000
      2 C2          3.4640   -2.5870    2.0080 c2        1 HU2     -0.114000
      3 C3          4.1350   -3.6760    2.8350 c3        1 HU2     -0.128000
      4 C4          5.0440   -3.0290    3.8960 c2        1 HU2     -0.170000
      5 C5          5.9260   -3.8230    4.6420 c1        1 HU2     -0.170000
      6 C6          5.9870   -5.3500    4.4010 c2        1 HU2     -0.131000
      7 C7          7.1100   -5.9740    5.2900 c3        1 HU2     -0.104000
      8 C8          6.4760   -6.8100    6.3900 c3        1 HU2     -0.208000
      9 C9          8.0050   -6.8590    4.4340 c3        1 HU2     -0.208000
     10 C10         4.2360   -2.3780    0.7210 c3        1 HU2     -0.101000
     11 C11         5.0900   -3.6280    0.4210 c3        1 HU2     -0.219500
     12 C12         3.2510   -2.1420   -0.4340 c3        1 HU2     -0.219500
     13 O13         1.8220   -4.0810    1.1860 o         1 HU2     -0.366000
     14 N14         0.9230   -2.0820    1.9360 n3        1 HU2     -0.353000
     15 C15        -0.3750   -2.3590    1.4030 c3        1 HU2      0.000000
     16 C16        -1.1180   -3.3090    2.3400 c3        1 HU2     -0.158000
     17 C17        -2.3780   -3.9200    1.5890 c3        1 HU2     -0.121000
     18 C18        -3.5740   -3.9930    2.5630 c3        1 HU2     -0.206500
     19 C19        -2.0420   -5.3310    1.0900 c3        1 HU2     -0.206500
     20 C20        -1.1590   -1.0590    1.2700 c2        1 HU2      0.279000
     21 O21        -1.8030   -0.6440    2.2060 o         1 HU2     -0.392000
     22 N22        -1.1200   -0.3020    0.0120 n         1 HU2     -0.344000
     23 C23        -1.6390    1.0400   -0.0380 c3        1 HU2     -0.011000
     24 C24        -0.5420    2.0200    0.3110 c3        1 HU2     -0.182000
     25 C25        -1.1580    3.2880    0.9130 c3        1 HU2     -0.138000
     26 C26        -0.0460    4.3280    1.1760 c3        1 HU2     -0.227000
     27 O27        -1.7030    0.7320   -2.3840 o         1 HU2     -0.273000
     28 C28        -2.1520    1.3340   -1.4340 c2        1 HU2      0.203000
     29 O29        -3.9330    2.7210   -0.6870 o         1 HU2     -0.355000
     30 N30        -3.5070    2.9220   -2.9280 n         1 HU2     -0.351000
     31 C31        -3.9140    4.3180   -3.0430 c3        1 HU2     -0.065000
     32 C32        -4.5640    4.5540   -4.4210 c2        1 HU2      0.265000
     33 O33        -5.1970    3.6650   -4.9520 o         1 HU2     -0.403000
     34 C34        -3.2820    2.3480   -1.6350 c2        1 HU2      0.263000
     35 N35        -4.5020    5.8700   -5.0390 n         1 HU2     -0.325000
     36 C36        -5.4300    6.2200   -6.0440 c3        1 HU2     -0.040000
     37 C37        -5.4690    7.7700   -6.2000 c2        1 HU2     -0.044000
     38 C38        -6.6420    8.4640   -5.9360 c2        1 HU2     -0.127000
     39 C39        -4.3230    8.4600   -6.5790 c1        1 HU2     -0.099000
     40 C40        -6.6710    9.8550   -6.0520 c1        1 HU2     -0.151000
     41 C41        -4.3520    9.8500   -6.6940 c1        1 HU2     -0.149000
     42 C42        -5.5240   10.5440   -6.4310 c1        1 HU2     -0.149000
     43 C43        -5.0170    5.5930   -7.3510 c2        1 HU2      0.333000
     44 O44        -5.8090    4.8120   -7.9540 o         1 HU2     -0.563500
     45 O45        -3.8440    5.7670   -7.7920 o         1 HU2     -0.563500
     46 H2          3.4500   -1.7510    2.5200 ha        1 HU2      0.101000
     47 H31         4.6720   -4.2460    2.2490 hc        1 HU2      0.106500
     48 H32         3.4510   -4.2170    3.2780 hc        1 HU2      0.106500
     49 H41A        5.0050   -2.0600    4.0500 ha        1 HU2      0.118000
     50 H51         6.5060   -3.4090    5.3200 ha        1 HU2      0.118000
     51 H61         6.1810   -5.5230    3.4640 ha        1 HU2      0.092500
     52 H62         5.1160   -5.7560    4.6380 ha        1 HU2      0.092500
     53 H7          7.6430   -5.2600    5.6890 hc        1 HU2      0.083000
     54 H81         7.1700   -7.1190    7.0080 hc        1 HU2      0.072167
     55 H82         6.0260   -7.5830    5.9920 hc        1 HU2      0.072167
     56 H83         5.8310   -6.2730    6.8720 hc        1 HU2      0.072167
     57 H91         8.7010   -7.2760    5.0060 hc        1 HU2      0.072167
     58 H92         8.4360   -6.3160    3.7410 hc        1 HU2      0.072167
     59 H93         7.4610   -7.5650    4.0090 hc        1 HU2      0.072167
     60 H10         4.8210   -1.6000    0.8160 hc        1 HU2      0.090000
     61 H111        4.5390   -4.4370    0.5360 hc        1 HU2      0.082167
     62 H112        5.4210   -3.5860   -0.5120 hc        1 HU2      0.082167
     63 H113        5.8600   -3.6600    1.0440 hc        1 HU2      0.082167
     64 H121        2.5600   -2.8380   -0.4230 hc        1 HU2      0.082167
     65 H122        2.8330   -1.2680   -0.3310 hc        1 HU2      0.082167
     66 H123        3.7330   -2.1750   -1.2860 hc        1 HU2      0.082167
     67 HN14        1.0470   -1.3580    2.4920 hn        1 HU2      0.230000
     68 H15        -0.2840   -2.7740    0.5260 h1        1 HU2      0.144000
     69 H161       -0.5240   -4.0270    2.6100 hc        1 HU2      0.093500
     70 H162       -1.4170   -2.8160    3.1330 hc        1 HU2      0.093500
     71 H17        -2.6110   -3.3530    0.8270 hc        1 HU2      0.117000
     72 H181       -3.3610   -4.6100    3.2990 hc        1 HU2      0.073500
     73 H182       -4.3830   -4.3250    2.0740 hc        1 HU2      0.073500
     74 H183       -3.7550   -3.1010    2.9270 hc        1 HU2      0.073500
     75 H191       -1.3190   -5.2820    0.4380 hc        1 HU2      0.073500
     76 H192       -2.8300   -5.7230    0.6730 hc        1 HU2      0.073500
     77 H193       -1.7630   -5.8880    1.8480 hc        1 HU2      0.073500
     78 HN22       -0.8210   -0.7040   -0.7530 hn        1 HU2      0.238000
     79 H23        -2.3660    1.1290    0.5980 h1        1 HU2      0.158000
     80 H241       -0.0450    2.2520   -0.4980 hc        1 HU2      0.127000
     81 H242        0.0630    1.6130    0.9590 hc        1 HU2      0.127000
     82 H251       -1.6030    3.0650    1.7550 hc        1 HU2      0.068000
     83 H252       -1.8120    3.6610    0.2870 hc        1 HU2      0.068000
     84 H261        0.5750    3.9790    1.8510 hc        1 HU2      0.086333
     85 H262       -0.4520    5.1670    1.5050 hc        1 HU2      0.086333
     86 H263        0.4420    4.5050    0.3410 hc        1 HU2      0.086333
     87 HN30       -3.4440    2.4000   -3.6790 hn        1 HU2      0.242000
     88 H311       -3.1400    4.8880   -2.9520 h1        1 HU2      0.123500
     89 H312       -4.5590    4.5290   -2.3370 h1        1 HU2      0.123500
     90 HN35       -3.9100    6.4980   -4.7230 hn        1 HU2      0.240000
     91 H36        -6.3110    5.8980   -5.7940 h1        1 HU2      0.118000
     92 H38        -7.4600    7.9720   -5.6650 ha        1 HU2      0.147000
     93 H39        -3.4940    7.9700   -6.7640 ha        1 HU2      0.164000
     94 H40        -7.5090   10.3520   -5.8640 ha        1 HU2      0.112000
     95 H41        -3.5390   10.3390   -6.9620 ha        1 HU2      0.111500
     96 H42        -5.5440   11.5280   -6.5130 ha        1 HU2      0.111500
@<TRIPOS>BOND
     1    1   13 1   
     2    1   14 1   
     3    2    3 1   
     4    2   10 1   
     5    2   46 1   
     6    3    4 1   
     7    3   47 1   
     8    3   48 1   
     9    4    5 1   
    10    4   49 1   
    11    5   50 1   
    12    6    7 1   
    13    6   51 1   
    14    6   52 1   
    15    7    8 1   
    16    7    9 1   
    17    7   53 1   
    18    8   54 1   
    19    8   55 1   
    20    8   56 1   
    21    9   57 1   
    22    9   58 1   
    23    9   59 1   
    24   10   11 1   
    25   10   12 1   
    26   10   60 1   
    27   11   61 1   
    28   11   62 1   
    29   11   63 1   
    30   12   64 1   
    31   12   65 1   
    32   12   66 1   
    33   14   15 1   
    34   14   67 1   
    35   15   16 1   
    36   15   20 1   
    37   15   68 1   
    38   16   17 1   
    39   16   69 1   
    40   16   70 1   
    41   17   18 1   
    42   17   19 1   
    43   17   71 1   
    44   18   72 1   
    45   18   73 1   
    46   18   74 1   
    47   19   75 1   
    48   19   76 1   
    49   19   77 1   
    50   20   21 1   
    51   20   22 1   
    52   22   23 1   
    53   22   78 1   
    54   23   24 1   
    55   23   28 1   
    56   23   79 1   
    57   24   25 1   
    58   24   80 1   
    59   24   81 1   
    60   25   26 1   
    61   25   82 1   
    62   25   83 1   
    63   26   84 1   
    64   26   85 1   
    65   26   86 1   
    66   27   28 1   
    67   28   34 1   
    68   29   34 1   
    69   30   31 1   
    70   30   34 1   
    71   30   87 1   
    72   31   32 1   
    73   31   88 1   
    74   31   89 1   
    75   32   33 1   
    76   32   35 1   
    77   35   36 1   
    78   35   90 1   
    79   36   37 1   
    80   36   43 1   
    81   36   91 1   
    82   37   38 1   
    83   37   39 1   
    84   38   40 1   
    85   38   92 1   
    86   39   93 1   
    87   40   94 1   
    88   41   42 1   
    89   41   95 1   
    90   42   96 1   
    91   43   44 1   
    92   43   45 1   
@<TRIPOS>SUBSTRUCTURE
     1 HU2         1 TEMP              0 ****  ****    0 ROOT
