@<TRIPOS>MOLECULE
HU2
   96    96     1     0     0
SMALL
bcc


@<TRIPOS>ATOM
      1 C1         -5.3910    0.1180    0.3930 c         1 HU2      0.660100
      2 C2         -6.5360    0.2400   -0.6130 c3        1 HU2     -0.123700
      3 C3         -7.8530    0.3900    0.1440 c3        1 HU2     -0.043200
      4 C4         -9.0180   -0.0020   -0.6860 c2        1 HU2     -0.174200
      5 C5        -10.0520   -0.7030   -0.2110 c2        1 HU2     -0.170200
      6 C6        -11.2420   -1.0540   -1.0220 c3        1 HU2     -0.045200
      7 C7        -11.6840   -2.4980   -0.8070 c3        1 HU2     -0.065700
      8 C8        -12.4080   -2.6610    0.5130 c3        1 HU2     -0.090100
      9 C9        -12.5750   -2.9430   -1.9490 c3        1 HU2     -0.090100
     10 C10        -6.2910    1.4040   -1.5770 c3        1 HU2     -0.061700
     11 C11        -5.8540    2.6680   -0.8670 c3        1 HU2     -0.102100
     12 C12        -5.2890    1.0390   -2.6550 c3        1 HU2     -0.102100
     13 O13        -5.4740    0.5670    1.5540 o         1 HU2     -0.614100
     14 N14        -4.2700   -0.5860   -0.0240 n         1 HU2     -0.541900
     15 C15        -3.0310   -0.5360    0.7130 c3        1 HU2      0.026700
     16 C16        -2.4430   -1.9250    1.0110 c3        1 HU2     -0.081400
     17 C17        -3.3660   -2.8120    1.8310 c3        1 HU2     -0.061700
     18 C18        -2.6920   -4.1490    2.0710 c3        1 HU2     -0.097100
     19 C19        -3.7450   -2.1700    3.1490 c3        1 HU2     -0.097100
     20 C20        -1.9460    0.2500   -0.0750 c         1 HU2      0.633100
     21 O21        -2.0150    0.3870   -1.3140 o         1 HU2     -0.616100
     22 N22        -0.9320    0.8130    0.6700 n         1 HU2     -0.544900
     23 C23         0.2380    1.4030    0.0670 c3        1 HU2      0.004700
     24 C24         0.4890    2.8510    0.5290 c3        1 HU2     -0.081400
     25 C25        -0.5830    3.7940    0.0300 c3        1 HU2     -0.077400
     26 C26        -0.2560    5.2220    0.3870 c3        1 HU2     -0.094100
     27 C28         1.5120    0.6080    0.3580 c         1 HU2      0.484100
     28 O29         2.4810    1.2160   -1.7560 o         1 HU2     -0.598100
     29 N30         3.9100    1.0790    0.0510 n         1 HU2     -0.521900
     30 C31         5.0980    1.3460   -0.7190 c3        1 HU2     -0.001000
     31 C32         6.3820    0.8520   -0.0170 c         1 HU2      0.638100
     32 O33         6.3150    0.2790    1.0980 o         1 HU2     -0.663100
     33 C34         2.6840    0.9720   -0.5480 c         1 HU2      0.561100
     34 N35         7.5420    1.0700   -0.6900 n         1 HU2     -0.508900
     35 C36         8.8600    0.8160   -0.1410 c3        1 HU2     -0.008000
     36 C37         9.3460   -0.5740   -0.4700 ca        1 HU2     -0.056300
     37 C38         8.9050   -1.6570    0.3000 ca        1 HU2     -0.112500
     38 C39        10.2370   -0.7980   -1.5260 ca        1 HU2     -0.112500
     39 C40         9.3600   -2.9450    0.0270 ca        1 HU2     -0.152000
     40 C41        10.6900   -2.0890   -1.7950 ca        1 HU2     -0.152000
     41 C42        10.2550   -3.1630   -1.0200 ca        1 HU2     -0.149000
     42 C43         9.8810    1.9050   -0.6600 c         1 HU2      0.916600
     43 O44        10.7660    2.2680    0.1510 o         1 HU2     -0.818800
     44 O45         9.7260    2.3410   -1.8350 o         1 HU2     -0.818800
     45 H2         -6.5940   -0.7100   -1.2180 hc        1 HU2      0.068700
     46 H31        -7.8090   -0.2310    1.0800 hc        1 HU2      0.065200
     47 H32        -7.9740    1.4580    0.4740 hc        1 HU2      0.065200
     48 H41A       -8.9940    0.3370   -1.7350 ha        1 HU2      0.119000
     49 H51       -10.0720   -1.0490    0.8360 ha        1 HU2      0.123000
     50 H61       -12.0850   -0.3640   -0.7470 hc        1 HU2      0.045700
     51 H62       -11.0280   -0.8950   -2.1140 hc        1 HU2      0.045700
     52 H7        -10.7670   -3.1520   -0.7950 hc        1 HU2      0.051700
     53 H81       -12.6930   -3.7290    0.6670 hc        1 HU2      0.032867
     54 H82       -11.7550   -2.3430    1.3610 hc        1 HU2      0.032867
     55 H83       -13.3370   -2.0420    0.5310 hc        1 HU2      0.032867
     56 H91       -12.0210   -2.9000   -2.9180 hc        1 HU2      0.032867
     57 H92       -12.9180   -3.9930   -1.7850 hc        1 HU2      0.032867
     58 H93       -13.4730   -2.2850   -2.0250 hc        1 HU2      0.032867
     59 H10        -7.2790    1.6130   -2.0830 hc        1 HU2      0.049700
     60 H111       -4.8810    2.5100   -0.3400 hc        1 HU2      0.043200
     61 H112       -5.7250    3.4940   -1.6070 hc        1 HU2      0.043200
     62 H113       -6.6130    2.9810   -0.1100 hc        1 HU2      0.043200
     63 H121       -5.5080    0.0300   -3.0790 hc        1 HU2      0.043200
     64 H122       -5.3410    1.7870   -3.4830 hc        1 HU2      0.043200
     65 H123       -4.2420    1.0440   -2.2600 hc        1 HU2      0.043200
     66 HN14       -4.1740   -0.7700   -1.0010 hn        1 HU2      0.320500
     67 H15        -3.2310   -0.0090    1.6970 h1        1 HU2      0.104700
     68 H161       -2.1980   -2.4430    0.0470 hc        1 HU2      0.056200
     69 H162       -1.4820   -1.7780    1.5720 hc        1 HU2      0.056200
     70 H17        -4.3100   -2.9950    1.2430 hc        1 HU2      0.054700
     71 H181       -1.7600   -4.0170    2.6720 hc        1 HU2      0.037200
     72 H182       -3.3780   -4.8320    2.6270 hc        1 HU2      0.037200
     73 H183       -2.4210   -4.6300    1.1000 hc        1 HU2      0.037200
     74 H191       -4.3970   -1.2770    2.9790 hc        1 HU2      0.037200
     75 H192       -4.3060   -2.8980    3.7840 hc        1 HU2      0.037200
     76 H193       -2.8330   -1.8470    3.7080 hc        1 HU2      0.037200
     77 HN22       -0.8570    0.5750    1.6320 hn        1 HU2      0.317500
     78 H23         0.1020    1.4060   -1.0630 h1        1 HU2      0.136700
     79 H241        0.5490    2.8970    1.6470 hc        1 HU2      0.056700
     80 H242        1.4860    3.1690    0.1180 hc        1 HU2      0.056700
     81 H251       -0.6790    3.6960   -1.0840 hc        1 HU2      0.048200
     82 H252       -1.5740    3.5150    0.4750 hc        1 HU2      0.048200
     83 H261       -1.0590    5.9050    0.0190 hc        1 HU2      0.033700
     84 H262       -0.1690    5.3430    1.4940 hc        1 HU2      0.033700
     85 H263        0.7120    5.5340   -0.0760 hc        1 HU2      0.033700
     86 HN30        4.0510    0.6770    0.9570 hn        1 HU2      0.348500
     87 H311        5.0140    0.8590   -1.7330 h1        1 HU2      0.074200
     88 H312        5.1770    2.4610   -0.8730 h1        1 HU2      0.074200
     89 HN35        7.5430    1.5870   -1.5450 hn        1 HU2      0.337500
     90 H36         8.8050    0.9090    0.9840 h1        1 HU2      0.075700
     91 H38         8.1880   -1.4760    1.1180 ha        1 HU2      0.158500
     92 H39        10.5780    0.0590   -2.1330 ha        1 HU2      0.158500
     93 H40         9.0120   -3.7900    0.6380 ha        1 HU2      0.112500
     94 H41        11.3950   -2.2580   -2.6210 ha        1 HU2      0.112500
     95 H42        10.6150   -4.1790   -1.2330 ha        1 HU2      0.107000
     96 O27         1.6040   -0.2580    1.2280 o         1 HU2     -0.506100
@<TRIPOS>BOND
     1    1    2 1   
     2    1   13 2   
     3    1   14 1   
     4    2    3 1   
     5    2   10 1   
     6    2   45 1   
     7    3    4 1   
     8    3   46 1   
     9    3   47 1   
    10    4    5 2   
    11    4   48 1   
    12    5    6 1   
    13    5   49 1   
    14    6    7 1   
    15    6   50 1   
    16    6   51 1   
    17    7    8 1   
    18    7    9 1   
    19    7   52 1   
    20    8   53 1   
    21    8   54 1   
    22    8   55 1   
    23    9   56 1   
    24    9   57 1   
    25    9   58 1   
    26   10   11 1   
    27   10   12 1   
    28   10   59 1   
    29   11   60 1   
    30   11   61 1   
    31   11   62 1   
    32   12   63 1   
    33   12   64 1   
    34   12   65 1   
    35   14   15 1   
    36   14   66 1   
    37   15   16 1   
    38   15   20 1   
    39   15   67 1   
    40   16   17 1   
    41   16   68 1   
    42   16   69 1   
    43   17   18 1   
    44   17   19 1   
    45   17   70 1   
    46   18   71 1   
    47   18   72 1   
    48   18   73 1   
    49   19   74 1   
    50   19   75 1   
    51   19   76 1   
    52   20   21 2   
    53   20   22 1   
    54   22   23 1   
    55   22   77 1   
    56   23   24 1   
    57   23   27 1   
    58   23   78 1   
    59   24   25 1   
    60   24   79 1   
    61   24   80 1   
    62   25   26 1   
    63   25   81 1   
    64   25   82 1   
    65   26   83 1   
    66   26   84 1   
    67   26   85 1   
    68   27   33 1   
    69   27   96 2   
    70   28   33 2   
    71   29   30 1   
    72   29   33 1   
    73   29   86 1   
    74   30   31 1   
    75   30   87 1   
    76   30   88 1   
    77   31   32 2   
    78   31   34 1   
    79   34   35 1   
    80   34   89 1   
    81   35   36 1   
    82   35   42 1   
    83   35   90 1   
    84   36   37 ar  
    85   36   38 ar  
    86   37   39 ar  
    87   37   91 1   
    88   38   40 ar  
    89   38   92 1   
    90   39   41 ar  
    91   39   93 1   
    92   40   41 ar  
    93   40   94 1   
    94   41   95 1   
    95   42   43 1   
    96   42   44 1   
@<TRIPOS>SUBSTRUCTURE
     1 HU2         1 TEMP              0 ****  ****    0 ROOT
