@<TRIPOS>MOLECULE
HU4
   89    92     1     0     0
SMALL
bcc


@<TRIPOS>ATOM
      1 C1         -0.7330    0.6920   -0.9180 c         1 HU4      0.649100
      2 O2         -0.4620    1.7140   -1.5380 o         1 HU4     -0.475000
      3 O3         -0.8820    0.4690    0.3740 os        1 HU4     -0.415900
      4 C4         -0.7200    1.6080    1.3760 c3        1 HU4      0.219800
      5 C5         -0.9780    0.8630    2.6720 c3        1 HU4     -0.136433
      6 C6          0.6920    2.1300    1.2700 c3        1 HU4     -0.136433
      7 C7         -1.7710    2.6480    1.0780 c3        1 HU4     -0.136433
      8 N8         -0.9580   -0.6050   -1.6790 n4        1 HU4     -0.661800
      9 C9         -0.0100   -0.7610   -2.8340 c3        1 HU4      0.081500
     10 C10         0.0110   -2.2080   -3.3880 c3        1 HU4     -0.082700
     11 C11         1.0730   -2.2860   -4.4810 c3        1 HU4     -0.082400
     12 C12         0.3110   -3.2270   -2.2950 c3        1 HU4     -0.082400
     13 C13         1.1680   -3.6870   -5.0530 c3        1 HU4     -0.078400
     14 C14         0.4320   -4.6280   -2.8680 c3        1 HU4     -0.078400
     15 C15         1.4670   -4.6990   -3.9680 c3        1 HU4     -0.088400
     16 C16        -0.4440    0.2040   -3.9610 c         1 HU4      0.678100
     17 O17        -1.6350    0.1870   -4.3610 o         1 HU4     -0.673100
     18 N18         0.4600    1.0500   -4.5510 n         1 HU4     -0.436800
     19 C19         1.8600    1.2040   -4.1460 c3        1 HU4      0.055000
     20 C20         0.0090    2.1320   -5.4180 c3        1 HU4      0.076700
     21 C21         1.1850    3.1040   -5.5940 cy        1 HU4     -0.159700
     22 C22         2.3850    2.4860   -4.8030 cy        1 HU4      0.135100
     23 O23         2.3910    3.5980   -3.8810 os        1 HU4     -0.377600
     24 C24         1.2870    4.2950   -4.5740 cy        1 HU4      0.169800
     25 C25         1.7880    5.5670   -5.2100 c3        1 HU4     -0.117100
     26 C26         0.1390    4.5280   -3.6310 c3        1 HU4     -0.117100
     27 C27        -0.4010    1.5980   -6.8090 c         1 HU4      0.536100
     28 O28         0.3160    1.3260   -7.7540 o         1 HU4     -0.407100
     29 N29        -1.8940    1.4090   -7.0160 n4        1 HU4     -0.688800
     30 C30        -2.2840    0.8400   -8.3480 c3        1 HU4      0.046500
     31 C31        -3.7610    0.3930   -8.3680 c3        1 HU4     -0.090400
     32 C32        -4.0740   -0.6050   -7.2870 cy        1 HU4     -0.136700
     33 C33        -5.4690   -1.2730   -7.4410 cy        1 HU4     -0.094900
     34 C34        -4.5230   -0.0180   -5.9230 cy        1 HU4     -0.094900
     35 C35        -5.8870   -0.7270   -6.0620 cy        1 HU4     -0.076400
     36 C37        -2.0700    1.8270   -9.4890 c         1 HU4      0.507100
     37 O38        -1.8970   -0.0180  -11.0820 o         1 HU4     -0.321100
     38 N39        -2.0230    2.0980  -12.0490 n4        1 HU4     -0.741400
     39 C40        -1.9960    1.1770  -10.8690 c         1 HU4      0.434100
     40 H51        -2.0020    0.4190    2.6810 hc        1 HU4      0.080589
     41 H52        -0.2270    0.0500    2.8210 hc        1 HU4      0.080589
     42 H53        -0.8920    1.5940    3.5160 hc        1 HU4      0.080589
     43 H61         0.8650    2.6240    0.2830 hc        1 HU4      0.080589
     44 H62         0.8560    2.8890    2.0780 hc        1 HU4      0.080589
     45 H63         1.4330    1.3070    1.4100 hc        1 HU4      0.080589
     46 H71        -1.7340    3.4360    1.8740 hc        1 HU4      0.080589
     47 H72        -1.5840    3.1360    0.0900 hc        1 HU4      0.080589
     48 H73        -2.7920    2.1950    1.0810 hc        1 HU4      0.080589
     49 HN8        -0.8340   -1.3980   -1.0280 hn        1 HU4      0.485800
     50 H9          1.0220   -0.5070   -2.4430 hx        1 HU4      0.134700
     51 H10        -0.9960   -2.4360   -3.8380 hc        1 HU4      0.083700
     52 H111        0.8220   -1.5690   -5.3050 hc        1 HU4      0.043700
     53 H112        2.0710   -1.9930   -4.0570 hc        1 HU4      0.043700
     54 H121       -0.5100   -3.2530   -1.5300 hc        1 HU4      0.043700
     55 H122        1.2680   -2.9530   -1.7760 hc        1 HU4      0.043700
     56 H131        0.2060   -3.9530   -5.5630 hc        1 HU4      0.066450
     57 H132        1.9810   -3.7120   -5.8260 hc        1 HU4      0.066450
     58 H141       -0.5650   -4.9570   -3.2640 hc        1 HU4      0.066450
     59 H142        0.7140   -5.3330   -2.0400 hc        1 HU4      0.066450
     60 H151        1.4730   -5.7310   -4.4090 hc        1 HU4      0.074200
     61 H152        2.4890   -4.5130   -3.5440 hc        1 HU4      0.074200
     62 H191        2.4390    0.3030   -4.4940 h1        1 HU4      0.096200
     63 H192        1.9340    1.3060   -3.0260 h1        1 HU4      0.096200
     64 H20        -0.8810    2.6530   -4.9500 h1        1 HU4      0.115700
     65 H21         1.3750    3.3900   -6.6490 hc        1 HU4      0.113700
     66 H22         3.3710    2.3750   -5.3010 h1        1 HU4      0.136700
     67 H251        2.6330    5.3580   -5.9100 hc        1 HU4      0.068867
     68 H252        0.9610    6.0710   -5.7630 hc        1 HU4      0.068867
     69 H253        2.1650    6.2580   -4.4130 hc        1 HU4      0.068867
     70 H261        0.4280    5.3220   -2.8940 hc        1 HU4      0.068867
     71 H262       -0.7590    4.8810   -4.1910 hc        1 HU4      0.068867
     72 H263       -0.1090    3.6040   -3.0530 hc        1 HU4      0.068867
     73 HN29       -2.3630    2.3150   -6.8830 hn        1 HU4      0.495800
     74 H30        -1.6210   -0.0670   -8.5310 hx        1 HU4      0.159700
     75 H311       -3.9410   -0.0910   -9.3680 hc        1 HU4      0.093200
     76 H312       -4.4390    1.2840   -8.2820 hc        1 HU4      0.093200
     77 H32        -3.2580   -1.3610   -7.1910 hc        1 HU4      0.069700
     78 H331       -5.4230   -2.3820   -7.5030 hc        1 HU4      0.065450
     79 H332       -6.0700   -0.8770   -8.2870 hc        1 HU4      0.065450
     80 H341       -4.6040    1.0900   -5.9050 hc        1 HU4      0.065450
     81 H342       -3.9110   -0.3670   -5.0620 hc        1 HU4      0.065450
     82 H351       -6.0660   -1.5160   -5.2990 hc        1 HU4      0.083700
     83 H352       -6.7580   -0.0370   -6.0880 hc        1 HU4      0.083700
     84 H391       -1.6100    1.6330  -12.8760 hn        1 HU4      0.498800
     85 H392       -2.9970    2.3530  -12.2770 hn        1 HU4      0.498800
     86 O36        -1.9600    3.0400   -9.3630 o         1 HU4     -0.415100
     87 H82        -1.9270   -0.6150   -2.0280 hn        1 HU4      0.485800
     88 H292       -2.2410    0.7600   -6.2720 hn        1 HU4      0.495800
     89 H393       -1.4980    2.9610  -11.8460 hn        1 HU4      0.498800
@<TRIPOS>BOND
     1    1    2 2   
     2    1    3 1   
     3    1    8 1   
     4    3    4 1   
     5    4    5 1   
     6    4    6 1   
     7    4    7 1   
     8    5   40 1   
     9    5   41 1   
    10    5   42 1   
    11    6   43 1   
    12    6   44 1   
    13    6   45 1   
    14    7   46 1   
    15    7   47 1   
    16    7   48 1   
    17    8    9 1   
    18    8   49 1   
    19    8   87 1   
    20    9   10 1   
    21    9   16 1   
    22    9   50 1   
    23   10   11 1   
    24   10   12 1   
    25   10   51 1   
    26   11   13 1   
    27   11   52 1   
    28   11   53 1   
    29   12   14 1   
    30   12   54 1   
    31   12   55 1   
    32   13   15 1   
    33   13   56 1   
    34   13   57 1   
    35   14   15 1   
    36   14   58 1   
    37   14   59 1   
    38   15   60 1   
    39   15   61 1   
    40   16   17 2   
    41   16   18 1   
    42   18   19 1   
    43   18   20 1   
    44   19   22 1   
    45   19   62 1   
    46   19   63 1   
    47   20   21 1   
    48   20   27 1   
    49   20   64 1   
    50   21   22 1   
    51   21   24 1   
    52   21   65 1   
    53   22   23 1   
    54   22   66 1   
    55   23   24 1   
    56   24   25 1   
    57   24   26 1   
    58   25   67 1   
    59   25   68 1   
    60   25   69 1   
    61   26   70 1   
    62   26   71 1   
    63   26   72 1   
    64   27   28 2   
    65   27   29 1   
    66   29   30 1   
    67   29   73 1   
    68   29   88 1   
    69   30   31 1   
    70   30   36 1   
    71   30   74 1   
    72   31   32 1   
    73   31   75 1   
    74   31   76 1   
    75   32   33 1   
    76   32   34 1   
    77   32   77 1   
    78   33   35 1   
    79   33   78 1   
    80   33   79 1   
    81   34   35 1   
    82   34   80 1   
    83   34   81 1   
    84   35   82 1   
    85   35   83 1   
    86   36   39 1   
    87   36   86 2   
    88   37   39 2   
    89   38   39 1   
    90   38   84 1   
    91   38   85 1   
    92   38   89 1   
@<TRIPOS>SUBSTRUCTURE
     1 HU4         1 TEMP              0 ****  ****    0 ROOT
