@<TRIPOS>MOLECULE
HU4
   86    89     1     0     0
SMALL
bcc


@<TRIPOS>ATOM
      1 C1          3.9680    0.5690    0.1460 c         1 HU4      0.753100
      2 O2          4.1550    0.3440   -1.0630 o         1 HU4     -0.601000
      3 O3          4.8070    1.3720    0.8750 os        1 HU4     -0.442900
      4 C4          5.9930    1.9230    0.2380 c3        1 HU4      0.186800
      5 C5          6.6500    2.6990    1.3790 c3        1 HU4     -0.115100
      6 C6          6.9090    0.8130   -0.2460 c3        1 HU4     -0.115100
      7 C7          5.6050    2.8640   -0.8900 c3        1 HU4     -0.115100
      8 N8          2.9520    0.0530    0.9280 n         1 HU4     -0.548900
      9 C9          1.8710   -0.6890    0.3330 c3        1 HU4      0.063700
     10 C10         1.4400   -1.9120    1.1760 c3        1 HU4     -0.068700
     11 C11         0.3020   -2.6350    0.4640 c3        1 HU4     -0.076400
     12 C12         2.6070   -2.8620    1.3990 c3        1 HU4     -0.076400
     13 C13        -0.1380   -3.8570    1.2440 c3        1 HU4     -0.077400
     14 C14         2.1670   -4.0880    2.1750 c3        1 HU4     -0.077400
     15 C15         1.0200   -4.8010    1.4910 c3        1 HU4     -0.078400
     16 C16         0.6260    0.2310    0.1870 c         1 HU4      0.635100
     17 O17         0.0050    0.6040    1.2060 o         1 HU4     -0.632100
     18 N18         0.1850    0.5860   -1.0720 n         1 HU4     -0.454800
     19 C19         1.0180    0.5010   -2.2650 c3        1 HU4      0.059000
     20 C20        -0.9260    1.5250   -1.2380 c3        1 HU4      0.042700
     21 C21        -0.7280    2.2320   -2.5820 cy        1 HU4     -0.120700
     22 C22         0.5020    1.5470   -3.2580 cy        1 HU4      0.117100
     23 O23         1.2550    2.7870   -3.2110 os        1 HU4     -0.412600
     24 C24         0.1400    3.5310   -2.5930 cy        1 HU4      0.144800
     25 C25        -0.3800    4.5780   -3.5480 c3        1 HU4     -0.100100
     26 C26         0.5620    4.1230   -1.2760 c3        1 HU4     -0.100100
     27 C27        -2.2940    0.8020   -1.2110 c         1 HU4      0.665100
     28 O28        -3.0140    0.7260   -2.2310 o         1 HU4     -0.649100
     29 N29        -2.6910    0.2670   -0.0120 n         1 HU4     -0.550900
     30 C30        -3.9580   -0.4090    0.1290 c3        1 HU4      0.024700
     31 C31        -4.2500   -0.8880    1.5610 c3        1 HU4     -0.079400
     32 C32        -3.1550   -1.7460    2.1260 cy        1 HU4     -0.091700
     33 C33        -3.5600   -2.5670    3.3760 cy        1 HU4     -0.094400
     34 C34        -2.0860   -1.0090    2.9740 cy        1 HU4     -0.094400
     35 C35        -2.4590   -1.8680    4.1990 cy        1 HU4     -0.093400
     36 C37        -5.1450    0.4620   -0.2970 c         1 HU4      0.499100
     37 O38        -7.0270   -0.9600   -0.7870 o         1 HU4     -0.605100
     38 N39        -5.9090   -0.0580   -2.5730 n         1 HU4     -0.650000
     39 C40        -6.1090   -0.2440   -1.2370 c         1 HU4      0.576100
     40 H51         6.9070    2.0080    2.2170 hc        1 HU4      0.053478
     41 H52         7.5800    3.1820    0.9990 hc        1 HU4      0.053478
     42 H53         5.9550    3.4830    1.7620 hc        1 HU4      0.053478
     43 H61         6.4510    0.2780   -1.1130 hc        1 HU4      0.053478
     44 H62         7.8850    1.2500   -0.5640 hc        1 HU4      0.053478
     45 H63         7.0900    0.0790    0.5760 hc        1 HU4      0.053478
     46 H71         4.8640    3.6150   -0.5250 hc        1 HU4      0.053478
     47 H72         6.5140    3.3980   -1.2550 hc        1 HU4      0.053478
     48 H73         5.1530    2.2950   -1.7380 hc        1 HU4      0.053478
     49 HN8         2.8420    0.3800    1.8600 hn        1 HU4      0.338500
     50 H9          2.2130   -1.0630   -0.6790 h1        1 HU4      0.102700
     51 H10         1.0670   -1.5460    2.1740 hc        1 HU4      0.072700
     52 H111       -0.5720   -1.9390    0.3490 hc        1 HU4      0.047450
     53 H112        0.6360   -2.9420   -0.5610 hc        1 HU4      0.047450
     54 H121        3.0290   -3.1740    0.4080 hc        1 HU4      0.047450
     55 H122        3.4230   -2.3460    1.9680 hc        1 HU4      0.047450
     56 H131       -0.5800   -3.5320    2.2240 hc        1 HU4      0.043700
     57 H132       -0.9440   -4.3880    0.6730 hc        1 HU4      0.043700
     58 H141        3.0360   -4.7900    2.2790 hc        1 HU4      0.043700
     59 H142        1.8550   -3.7840    3.2080 hc        1 HU4      0.043700
     60 H151        0.6770   -5.6580    2.1260 hc        1 HU4      0.042200
     61 H152        1.3710   -5.2240    0.5130 hc        1 HU4      0.042200
     62 H191        2.1030    0.6960   -2.0250 h1        1 HU4      0.081200
     63 H192        0.9170   -0.5290   -2.7050 h1        1 HU4      0.081200
     64 H20        -0.9250    2.2730   -0.3880 h1        1 HU4      0.097700
     65 H21        -1.6620    2.2970   -3.1770 hc        1 HU4      0.117700
     66 H22         0.4170    1.1830   -4.3010 h1        1 HU4      0.094700
     67 H251       -1.2900    5.0610   -3.1180 hc        1 HU4      0.050700
     68 H252        0.4010    5.3570   -3.7210 hc        1 HU4      0.050700
     69 H253       -0.6400    4.1170   -4.5310 hc        1 HU4      0.050700
     70 H261        1.0640    3.3580   -0.6370 hc        1 HU4      0.050700
     71 H262        1.2860    4.9560   -1.4540 hc        1 HU4      0.050700
     72 H263       -0.3280    4.5280   -0.7370 hc        1 HU4      0.050700
     73 HN29       -2.1280    0.3820    0.8050 hn        1 HU4      0.353500
     74 H30        -3.9390   -1.3120   -0.5590 h1        1 HU4      0.073700
     75 H311       -4.4310    0.0000    2.2220 hc        1 HU4      0.071700
     76 H312       -5.2070   -1.4780    1.5160 hc        1 HU4      0.071700
     77 H32        -2.6960   -2.3850    1.3320 hc        1 HU4      0.060700
     78 H331       -4.5910   -2.3630    3.7340 hc        1 HU4      0.055950
     79 H332       -3.4160   -3.6620    3.2570 hc        1 HU4      0.055950
     80 H341       -1.0470   -1.1490    2.6050 hc        1 HU4      0.055950
     81 H342       -2.2800    0.0770    3.1100 hc        1 HU4      0.055950
     82 H351       -2.8380   -1.2860    5.0640 hc        1 HU4      0.049200
     83 H352       -1.6480   -2.5480    4.5350 hc        1 HU4      0.049200
     84 H391       -5.1150    0.4390   -2.9010 hn        1 HU4      0.328000
     85 H392       -6.4950   -0.5190   -3.2240 hn        1 HU4      0.328000
     86 O36        -5.3350    1.6100    0.0920 o         1 HU4     -0.478100
@<TRIPOS>BOND
     1    1    2 2   
     2    1    3 1   
     3    1    8 1   
     4    3    4 1   
     5    4    5 1   
     6    4    6 1   
     7    4    7 1   
     8    5   40 1   
     9    5   41 1   
    10    5   42 1   
    11    6   43 1   
    12    6   44 1   
    13    6   45 1   
    14    7   46 1   
    15    7   47 1   
    16    7   48 1   
    17    8    9 1   
    18    8   49 1   
    19    9   10 1   
    20    9   16 1   
    21    9   50 1   
    22   10   11 1   
    23   10   12 1   
    24   10   51 1   
    25   11   13 1   
    26   11   52 1   
    27   11   53 1   
    28   12   14 1   
    29   12   54 1   
    30   12   55 1   
    31   13   15 1   
    32   13   56 1   
    33   13   57 1   
    34   14   15 1   
    35   14   58 1   
    36   14   59 1   
    37   15   60 1   
    38   15   61 1   
    39   16   17 2   
    40   16   18 1   
    41   18   19 1   
    42   18   20 1   
    43   19   22 1   
    44   19   62 1   
    45   19   63 1   
    46   20   21 1   
    47   20   27 1   
    48   20   64 1   
    49   21   22 1   
    50   21   24 1   
    51   21   65 1   
    52   22   23 1   
    53   22   66 1   
    54   23   24 1   
    55   24   25 1   
    56   24   26 1   
    57   25   67 1   
    58   25   68 1   
    59   25   69 1   
    60   26   70 1   
    61   26   71 1   
    62   26   72 1   
    63   27   28 2   
    64   27   29 1   
    65   29   30 1   
    66   29   73 1   
    67   30   31 1   
    68   30   36 1   
    69   30   74 1   
    70   31   32 1   
    71   31   75 1   
    72   31   76 1   
    73   32   33 1   
    74   32   34 1   
    75   32   77 1   
    76   33   35 1   
    77   33   78 1   
    78   33   79 1   
    79   34   35 1   
    80   34   80 1   
    81   34   81 1   
    82   35   82 1   
    83   35   83 1   
    84   36   39 1   
    85   36   86 2   
    86   37   39 2   
    87   38   39 1   
    88   38   84 1   
    89   38   85 1   
@<TRIPOS>SUBSTRUCTURE
     1 HU4         1 TEMP              0 ****  ****    0 ROOT
