@<TRIPOS>MOLECULE
HU4
   86    88     1     0     0
SMALL
bcc


@<TRIPOS>ATOM
      1 C1         -0.4640   -1.8010    2.6740 c1        1 HU4      0.399000
      2 O2          0.2110   -2.1690    1.7420 o         1 HU4     -0.421000
      3 O3         -0.3480   -2.4570    3.9540 os        1 HU4     -0.278000
      4 C4          0.0610   -3.8410    3.8700 c3        1 HU4      0.114000
      5 C5         -0.7070   -4.5250    2.7740 c3        1 HU4     -0.233000
      6 C6          1.5370   -3.9120    3.5690 c3        1 HU4     -0.233000
      7 C7         -0.2200   -4.5340    5.1930 c3        1 HU4     -0.233000
      8 N8         -1.3590   -0.6800    2.5180 n2        1 HU4     -0.319000
      9 C9         -1.0460    0.3640    1.5900 c3        1 HU4      0.020000
     10 C10        -2.2810    1.2210    1.3520 c3        1 HU4     -0.094000
     11 C11        -3.4650    0.3120    1.0780 c3        1 HU4     -0.152000
     12 C12        -2.5030    2.1140    2.5660 c3        1 HU4     -0.152000
     13 C13        -3.8900   -0.4730    2.3070 c3        1 HU4     -0.151500
     14 C14        -2.9290    1.3290    3.7940 c3        1 HU4     -0.151500
     15 C15        -4.1120    0.4190    3.5200 c3        1 HU4     -0.154000
     16 C16         0.0620    1.2240    2.1520 c2        1 HU4      0.278000
     17 O17         0.2350    1.2750    3.3660 o         1 HU4     -0.364000
     18 N18         0.7800    2.1910    1.2570 n         1 HU4     -0.319000
     19 C19         1.7800    3.3250    1.7080 c3        1 HU4     -0.035000
     20 C20         0.6980    2.2620   -0.0760 c3        1 HU4      0.029000
     21 C21         2.1510    2.9050   -0.4480 cy        1 HU4     -0.164000
     22 C22         2.7390    3.3720    0.7780 cy        1 HU4      0.009000
     23 O23         2.9050    4.6730    0.2060 os        1 HU4     -0.270000
     24 C24         2.1120    4.2270   -0.9390 cy        1 HU4      0.074000
     25 C25         0.7220    4.8070   -0.9470 c3        1 HU4     -0.219000
     26 C26         2.8470    4.3870   -2.2550 c3        1 HU4     -0.219000
     27 C27         0.4610    0.9030   -0.6400 c2        1 HU4      0.285000
     28 O28         0.8580   -0.0780   -0.0420 o         1 HU4     -0.335000
     29 N29        -0.1350    0.7580   -1.9600 n         1 HU4     -0.367000
     30 C30         0.6230    0.1410   -3.0350 c3        1 HU4     -0.010000
     31 C31         0.4280   -1.3410   -2.9950 c3        1 HU4     -0.176000
     32 C32         1.1160   -1.9550   -4.1310 cy        1 HU4     -0.125000
     33 C33         0.3490   -3.0970   -4.7270 cy        1 HU4     -0.170000
     34 C34         2.1960   -2.8960   -3.7130 cy        1 HU4     -0.170000
     35 C35         1.4310   -4.0390   -4.3110 cy        1 HU4     -0.174000
     36 O36        -1.0430    0.8400   -4.5480 o         1 HU4     -0.271000
     37 C37         0.1420    0.6750   -4.3570 c2        1 HU4      0.215000
     38 O38         2.3320    1.1490   -5.1680 o         1 HU4     -0.342000
     39 N39         0.6980    1.3310   -6.7680 n         1 HU4     -0.412000
     40 C40         1.1490    1.0480   -5.4430 c2        1 HU4      0.259000
     41 H51        -1.6620   -4.3230    2.8680 hc        1 HU4      0.092222
     42 H52        -0.5700   -5.4970    2.8350 hc        1 HU4      0.092222
     43 H53        -0.3920   -4.2080    1.9120 hc        1 HU4      0.092222
     44 H61         1.8680   -4.8220    3.7610 hc        1 HU4      0.092222
     45 H62         2.0120   -3.2700    4.1250 hc        1 HU4      0.092222
     46 H63         1.6890   -3.7020    2.6280 hc        1 HU4      0.092222
     47 H71         0.0260   -5.4880    5.1240 hc        1 HU4      0.092222
     48 H72         0.3060   -4.1120    5.9010 hc        1 HU4      0.092222
     49 H73        -1.1690   -4.4580    5.4040 hc        1 HU4      0.092222
     50 HN8        -2.0940   -0.6120    3.0430 hn        1 HU4      0.250000
     51 H9         -0.7570   -0.0270    0.7480 h1        1 HU4      0.127000
     52 H10        -2.1280    1.7890    0.5640 hc        1 HU4      0.082000
     53 H111       -3.2220   -0.3160    0.3710 hc        1 HU4      0.085500
     54 H112       -4.2200    0.8570    0.7740 hc        1 HU4      0.085500
     55 H121       -1.6730    2.5870    2.7670 hc        1 HU4      0.085500
     56 H122       -3.1990    2.7710    2.3530 hc        1 HU4      0.085500
     57 H131       -3.1950   -1.1300    2.5200 hc        1 HU4      0.083750
     58 H132       -4.7150   -0.9430    2.1080 hc        1 HU4      0.083750
     59 H141       -2.1790    0.7860    4.0980 hc        1 HU4      0.083750
     60 H142       -3.1700    1.9540    4.4980 hc        1 HU4      0.083750
     61 H151       -4.9040    0.9690    3.3660 hc        1 HU4      0.078500
     62 H152       -4.2680   -0.1510    4.3110 hc        1 HU4      0.078500
     63 H191        2.1670    3.1050    2.5810 h1        1 HU4      0.119500
     64 H192        1.3140    4.1840    1.7540 h1        1 HU4      0.119500
     65 H20        -0.0380    2.7710   -0.4740 h1        1 HU4      0.110000
     66 H21         2.7370    2.3160   -0.9530 hc        1 HU4      0.141000
     67 H22         3.5800    2.9190    1.0140 h1        1 HU4      0.137000
     68 H251        0.1780    4.3410   -1.6180 hc        1 HU4      0.089500
     69 H252        0.7660    5.7570   -1.1680 hc        1 HU4      0.089500
     70 H253        0.3170    4.6960   -0.0630 hc        1 HU4      0.089500
     71 H261        2.2730    4.0840   -2.9880 hc        1 HU4      0.089500
     72 H262        3.6620    3.8520   -2.2390 hc        1 HU4      0.089500
     73 H263        3.0790    5.3380   -2.3900 hc        1 HU4      0.089500
     74 HN29       -0.9970    1.0150   -2.1010 hn        1 HU4      0.229000
     75 H30         1.5620    0.3460   -2.9270 h1        1 HU4      0.172000
     76 H311       -0.5260   -1.5440   -3.0440 hc        1 HU4      0.114000
     77 H312        0.7940   -1.6950   -2.1630 hc        1 HU4      0.114000
     78 H32         1.4150   -1.3120   -4.8010 hc        1 HU4      0.089000
     79 H331        0.2620   -3.0280   -5.6900 hc        1 HU4      0.095250
     80 H332       -0.4950   -3.2640   -4.2670 hc        1 HU4      0.095250
     81 H341        3.0380   -2.7290   -4.1680 hc        1 HU4      0.095250
     82 H342        2.2820   -2.9650   -2.7370 hc        1 HU4      0.095250
     83 H351        1.8900   -4.4440   -5.0690 hc        1 HU4      0.087500
     84 H352        1.1330   -4.6880   -3.6400 hc        1 HU4      0.087500
     85 H391        1.3010    1.5480   -7.4210 hn        1 HU4      0.234500
     86 H392       -0.1980    1.2860   -6.9670 hn        1 HU4      0.234500
@<TRIPOS>BOND
     1    1    2 1   
     2    1    3 1   
     3    3    4 1   
     4    4    5 1   
     5    4    6 1   
     6    4    7 1   
     7    5   41 1   
     8    5   42 1   
     9    5   43 1   
    10    6   44 1   
    11    6   45 1   
    12    6   46 1   
    13    7   47 1   
    14    7   48 1   
    15    7   49 1   
    16    8    9 1   
    17    8   50 1   
    18    9   10 1   
    19    9   16 1   
    20    9   51 1   
    21   10   11 1   
    22   10   12 1   
    23   10   52 1   
    24   11   13 1   
    25   11   53 1   
    26   11   54 1   
    27   12   14 1   
    28   12   55 1   
    29   12   56 1   
    30   13   15 1   
    31   13   57 1   
    32   13   58 1   
    33   14   15 1   
    34   14   59 1   
    35   14   60 1   
    36   15   61 1   
    37   15   62 1   
    38   16   17 1   
    39   16   18 1   
    40   18   19 1   
    41   18   20 1   
    42   19   22 1   
    43   19   63 1   
    44   19   64 1   
    45   20   21 1   
    46   20   27 1   
    47   20   65 1   
    48   21   22 1   
    49   21   24 1   
    50   21   66 1   
    51   22   23 1   
    52   22   67 1   
    53   23   24 1   
    54   24   25 1   
    55   24   26 1   
    56   25   68 1   
    57   25   69 1   
    58   25   70 1   
    59   26   71 1   
    60   26   72 1   
    61   26   73 1   
    62   27   28 1   
    63   27   29 1   
    64   29   30 1   
    65   29   74 1   
    66   30   31 1   
    67   30   37 1   
    68   30   75 1   
    69   31   32 1   
    70   31   76 1   
    71   31   77 1   
    72   32   33 1   
    73   32   34 1   
    74   32   78 1   
    75   33   35 1   
    76   33   79 1   
    77   33   80 1   
    78   34   35 1   
    79   34   81 1   
    80   34   82 1   
    81   35   83 1   
    82   35   84 1   
    83   36   37 1   
    84   37   40 1   
    85   38   40 1   
    86   39   40 1   
    87   39   85 1   
    88   39   86 1   
@<TRIPOS>SUBSTRUCTURE
     1 HU4         1 TEMP              0 ****  ****    0 ROOT
