@<TRIPOS>MOLECULE
HU4
   89    86     1     0     0
SMALL
bcc


@<TRIPOS>ATOM
      1 C1          0.0300    0.5740    0.4860 c2        1 HU4      0.365000
      2 O2          0.1670    1.5940   -0.1760 o         1 HU4     -0.267000
      3 O3          0.0140    0.3910    1.7990 os        1 HU4     -0.256000
      4 C4          0.1740    1.5760    2.7290 c3        1 HU4      0.141000
      5 C5          0.0930    0.8820    4.0770 c3        1 HU4     -0.252000
      6 C6          1.5250    2.2020    2.4790 c3        1 HU4     -0.252000
      7 C7         -0.9770    2.5260    2.4950 c3        1 HU4     -0.252000
      8 N8         -0.1640   -0.7630   -0.2010 ny        1 HU4     -0.091000
      9 C9          0.6030   -0.8660   -1.4920 c3        1 HU4     -0.071000
     10 C10         0.9870   -2.3110   -1.8320 c3        1 HU4     -0.198000
     11 C11         3.1400   -1.5240   -4.6820 c2        1 HU4     -0.359000
     12 C12         1.7090   -3.0210   -0.7040 c3        1 HU4     -0.166000
     13 C13         3.7600   -2.6960   -4.4650 c2        1 HU4     -0.159000
     14 C14         2.3860   -4.2720   -1.2060 c3        1 HU4     -0.232000
     15 C15         4.6680   -3.0160   -3.4650 c1        1 HU4     -0.027000
     16 C16        -0.2540   -0.2970   -2.6480 c2        1 HU4      0.309000
     17 O17        -1.4990   -0.3060   -2.5780 o         1 HU4     -0.358000
     18 N18         0.4030    0.1960   -3.7560 ns        1 HU4     -0.349000
     19 C19         3.0340    1.7980   -5.1930 c2        1 HU4     -0.221000
     20 C20        -0.3030    0.9450   -4.7570 c3        1 HU4      0.063000
     21 C21         0.4080    2.2160   -5.2270 cy        1 HU4     -0.165000
     22 C22         1.8770    2.3670   -4.8920 cv        1 HU4     -0.027000
     23 O23         1.6790    3.4950   -4.0680 os        1 HU4     -0.181000
     24 C24         0.2210    3.5100   -4.3360 cy        1 HU4      0.090000
     25 C25        -0.1490    4.7320   -5.1370 c3        1 HU4     -0.231500
     26 C26        -0.5550    3.3960   -3.0560 c3        1 HU4     -0.231500
     27 C27        -0.5360    0.0660   -6.0130 c2        1 HU4      0.219000
     28 O28         0.1650   -0.8300   -6.4480 o         1 HU4     -0.154000
     29 N29        -1.7760    0.3660   -6.8130 nz        1 HU4     -0.141000
     30 C30        -4.3940    0.6920  -10.4970 c2        1 HU4     -0.407000
     31 C31        -5.2540    0.7180  -11.6850 c3        1 HU4     -0.175000
     32 C32        -6.6890    0.7340  -11.5190 c2        1 HU4      0.269000
     33 C33        -8.5070    3.8370   -9.5480 c1        1 HU4     -0.224500
     34 C34        -7.4240    0.5620  -10.3010 c3        1 HU4     -0.333000
     35 C35        -9.4940    3.2240   -9.2600 c1        1 HU4     -0.224500
     36 C37        -3.0300    0.5610  -10.5160 c2        1 HU4      0.240000
     37 O38        -2.9170    0.3300  -12.9910 o         1 HU4     -0.207000
     38 N39        -0.8740    0.4100  -11.9160 nz        1 HU4     -0.138000
     39 C40        -2.3870    0.4280  -11.8940 c2        1 HU4      0.217000
     40 H51        -0.8880    0.3640    4.1990 hc        1 HU4      0.117111
     41 H52         0.9150    0.1350    4.1890 hc        1 HU4      0.117111
     42 H53         0.1970    1.6580    4.8750 hc        1 HU4      0.117111
     43 H61         1.7000    3.0000    3.2450 hc        1 HU4      0.117111
     44 H62         1.5690    2.6710    1.4660 hc        1 HU4      0.117111
     45 H63         2.3380    1.4420    2.5710 hc        1 HU4      0.117111
     46 H71        -0.9140    2.9890    1.4810 hc        1 HU4      0.117111
     47 H72        -0.9310    3.3420    3.2600 hc        1 HU4      0.117111
     48 H73        -1.9550    1.9980    2.6020 hc        1 HU4      0.117111
     49 HN8        -1.1730   -0.8790   -0.3920 hn        1 HU4      0.282500
     50 H9          0.0750   -2.8940   -2.1270 hc        1 HU4      0.135500
     51 H10         1.5430   -0.2460   -1.3600 hx        1 HU4      0.177000
     52 H111        1.6700   -2.2590   -2.7310 hc        1 HU4      0.135500
     53 H112        2.3580   -1.4230   -5.4420 ha        1 HU4      0.108000
     54 H121        2.4800   -2.3410   -0.2520 hc        1 HU4      0.085000
     55 H122        0.9850   -3.3120    0.1050 hc        1 HU4      0.085000
     56 H131        3.4490   -0.6010   -4.1780 ha        1 HU4      0.108000
     57 H132        3.4480   -3.6090   -5.0310 ha        1 HU4      0.187000
     58 H141        3.2020   -4.0160   -1.9310 hc        1 HU4      0.105000
     59 H142        2.8420   -4.8250   -0.3480 hc        1 HU4      0.105000
     60 H151        1.6520   -4.9460   -1.7080 hc        1 HU4      0.105000
     61 H152        5.7480   -3.1270   -3.5480 ha        1 HU4      0.155000
     62 H191        3.9860    2.1920   -4.8060 ha        1 HU4      0.159000
     63 H192        3.1020    0.9240   -5.8530 ha        1 HU4      0.159000
     64 H20         1.4030    0.1630   -3.8180 hn        1 HU4      0.283000
     65 H21        -1.3180    1.2380   -4.3330 h1        1 HU4      0.164000
     66 H22         0.1830    2.4170   -6.3020 hc        1 HU4      0.115000
     67 H251        0.4630    4.8000   -6.0680 hc        1 HU4      0.105167
     68 H252        0.0520    5.6500   -4.5280 hc        1 HU4      0.105167
     69 H253       -1.2320    4.7060   -5.4010 hc        1 HU4      0.105167
     70 H261       -1.6450    3.2880   -3.2710 hc        1 HU4      0.105167
     71 H262       -0.2080    2.5340   -2.4360 hc        1 HU4      0.105167
     72 H263       -0.4030    4.3280   -2.4530 hc        1 HU4      0.105167
     73 HN29       -2.6030    0.3480   -6.2120 hn        1 HU4      0.275000
     74 H30        -1.9000   -0.3200   -7.5820 hn        1 HU4      0.275000
     75 H311       -4.8690    0.8090   -9.5140 ha        1 HU4      0.151000
     76 H312       -5.0560   -0.2010  -12.3520 hc        1 HU4      0.204500
     77 H32        -4.9660    1.5810  -12.3750 hc        1 HU4      0.204500
     78 H331       -7.2840    0.8880  -12.4520 ha        1 HU4      0.184000
     79 H332       -7.6660    4.4400   -9.7890 ha        1 HU4      0.232000
     80 H341       -7.8670    1.5800  -10.0010 hc        1 HU4      0.192667
     81 H342       -8.3300   -0.0960  -10.4560 hc        1 HU4      0.192667
     82 H351       -6.8250    0.1790   -9.4380 hc        1 HU4      0.192667
     83 H352      -10.3890    2.7100   -8.9990 ha        1 HU4      0.232000
     84 H391       -0.5400    0.1430  -10.9820 hn        1 HU4      0.266667
     85 H392       -0.5240   -0.2470  -12.6210 hn        1 HU4      0.266667
     86 O36        -2.2270    0.5390   -9.5230 o         1 HU4     -0.594000
     87 H82         0.1390   -1.5130    0.4390 hn        1 HU4      0.282500
     88 H292       -1.7070    1.2890   -7.2620 hn        1 HU4      0.275000
     89 H393       -0.5220    1.3460  -12.1400 hn        1 HU4      0.266667
@<TRIPOS>BOND
     1    1    2 1   
     2    1    3 1   
     3    1    8 1   
     4    3    4 1   
     5    4    5 1   
     6    4    6 1   
     7    4    7 1   
     8    5   40 1   
     9    5   41 1   
    10    5   42 1   
    11    6   43 1   
    12    6   44 1   
    13    6   45 1   
    14    7   46 1   
    15    7   47 1   
    16    7   48 1   
    17    8    9 1   
    18    8   49 1   
    19    8   87 1   
    20    9   10 1   
    21    9   16 1   
    22    9   51 1   
    23   10   12 1   
    24   10   50 1   
    25   10   52 1   
    26   11   13 1   
    27   11   53 1   
    28   11   56 1   
    29   12   14 1   
    30   12   54 1   
    31   12   55 1   
    32   13   15 1   
    33   13   57 1   
    34   14   58 1   
    35   14   59 1   
    36   14   60 1   
    37   15   61 1   
    38   16   17 1   
    39   16   18 1   
    40   18   20 1   
    41   18   64 1   
    42   19   22 1   
    43   19   62 1   
    44   19   63 1   
    45   20   21 1   
    46   20   27 1   
    47   20   65 1   
    48   21   22 1   
    49   21   24 1   
    50   21   66 1   
    51   22   23 1   
    52   23   24 1   
    53   24   25 1   
    54   24   26 1   
    55   25   67 1   
    56   25   68 1   
    57   25   69 1   
    58   26   70 1   
    59   26   71 1   
    60   26   72 1   
    61   27   28 1   
    62   27   29 1   
    63   29   73 1   
    64   29   74 1   
    65   29   88 1   
    66   30   31 1   
    67   30   36 1   
    68   30   75 1   
    69   31   32 1   
    70   31   76 1   
    71   31   77 1   
    72   32   34 1   
    73   32   78 1   
    74   33   35 1   
    75   33   79 1   
    76   34   80 1   
    77   34   81 1   
    78   34   82 1   
    79   35   83 1   
    80   36   39 1   
    81   36   86 1   
    82   37   39 1   
    83   38   39 1   
    84   38   84 1   
    85   38   85 1   
    86   38   89 1   
@<TRIPOS>SUBSTRUCTURE
     1 HU4         1 TEMP              0 ****  ****    0 ROOT
