@<TRIPOS>MOLECULE
HU5
   82    84     1     0     0
SMALL
bcc


@<TRIPOS>ATOM
      1 C1          4.7100    0.5100    0.3530 c         1 HU5      0.752100
      2 O2          4.9610   -0.6380    0.7960 o         1 HU5     -0.646100
      3 N3          5.7180    1.3670   -0.1270 n         1 HU5     -0.535900
      4 C4          7.0380    0.8310   -0.4820 c3        1 HU5      0.114400
      5 C5          7.7860    0.3250    0.7610 c3        1 HU5     -0.108100
      6 C6          6.9600   -0.3220   -1.4960 c3        1 HU5     -0.108100
      7 C7          7.8860    1.9520   -1.1140 c3        1 HU5     -0.108100
      8 N8          3.3790    0.9790    0.3290 n         1 HU5     -0.550900
      9 C9          2.3790    0.3240    1.1390 c3        1 HU5      0.046700
     10 C10         2.0850    1.0030    2.5100 c3        1 HU5     -0.068000
     11 C11         3.2770    0.7670    3.4290 c3        1 HU5     -0.097767
     12 C12         1.8480    2.4970    2.3630 c3        1 HU5     -0.097767
     13 C13         0.8540    0.3520    3.1230 c3        1 HU5     -0.097767
     14 C14         1.0690    0.2650    0.3110 c         1 HU5      0.678100
     15 O15         0.5650    1.2960   -0.1790 o         1 HU5     -0.619100
     16 N16         0.4600   -0.9570    0.1130 n         1 HU5     -0.470800
     17 C17         1.0450   -2.2560    0.4170 c3        1 HU5      0.120000
     18 C18        -0.8020   -1.0750   -0.6130 c3        1 HU5      0.077700
     19 C19        -1.0440   -2.5690   -0.8250 cx        1 HU5     -0.138700
     20 C20         0.1170   -3.3060   -0.1750 cx        1 HU5     -0.125700
     21 C21        -0.0710   -3.3600   -1.6770 cx        1 HU5     -0.075000
     22 C22        -0.5990   -4.6560   -2.2210 c3        1 HU5     -0.072100
     23 C23         0.8800   -2.7060   -2.6240 c3        1 HU5     -0.072100
     24 C24        -2.0090   -0.4930    0.1590 c         1 HU5      0.663100
     25 O25        -2.0140   -0.3170    1.3910 o         1 HU5     -0.599100
     26 N26        -3.1200   -0.1990   -0.6090 n         1 HU5     -0.565900
     27 C27        -4.3130    0.3740   -0.0460 c3        1 HU5      0.031700
     28 C28        -5.0290    1.3520   -0.9950 c3        1 HU5     -0.084400
     29 C29        -4.1490    2.5000   -1.4040 cy        1 HU5     -0.081700
     30 C30        -3.2970    2.2900   -2.6820 cy        1 HU5     -0.091400
     31 C31        -4.9030    3.6550   -2.1130 cy        1 HU5     -0.091400
     32 C32        -4.0270    3.4630   -3.3670 cy        1 HU5     -0.094400
     33 C34        -5.3400   -0.6850    0.3610 c         1 HU5      0.491100
     34 O35        -6.8470    0.8140    1.5130 o         1 HU5     -0.599100
     35 N36        -6.2970   -1.1210    2.5940 n         1 HU5     -0.650000
     36 C37        -6.2260   -0.2670    1.5300 c         1 HU5      0.571100
     37 HN3         5.4260    2.1140   -0.7180 hn        1 HU5      0.291500
     38 H51         7.2270   -0.5190    1.2360 hc        1 HU5      0.046700
     39 H52         8.7950   -0.0370    0.4530 hc        1 HU5      0.046700
     40 H53         7.9090    1.1440    1.5080 hc        1 HU5      0.046700
     41 H61         6.4720    0.0140   -2.4420 hc        1 HU5      0.046700
     42 H62         7.9910   -0.6740   -1.7330 hc        1 HU5      0.046700
     43 H63         6.3790   -1.1740   -1.0670 hc        1 HU5      0.046700
     44 H71         8.0040    2.8080   -0.4090 hc        1 HU5      0.046700
     45 H72         8.8970    1.5440   -1.3510 hc        1 HU5      0.046700
     46 H73         7.4230    2.3200   -2.0610 hc        1 HU5      0.046700
     47 HN8         3.2090    1.9470    0.1690 hn        1 HU5      0.310500
     48 H9          2.7500   -0.7220    1.3680 h1        1 HU5      0.103700
     49 H111        4.2170    1.1560    2.9690 hc        1 HU5      0.044478
     50 H112        3.1130    1.2900    4.4010 hc        1 HU5      0.044478
     51 H113        3.4070   -0.3240    3.6270 hc        1 HU5      0.044478
     52 H121        1.1260    2.7000    1.5350 hc        1 HU5      0.044478
     53 H122        1.4240    2.9060    3.3130 hc        1 HU5      0.044478
     54 H123        2.8040    3.0350    2.1540 hc        1 HU5      0.044478
     55 H131        0.9810   -0.7570    3.1710 hc        1 HU5      0.044478
     56 H132        0.7010    0.7350    4.1610 hc        1 HU5      0.044478
     57 H133       -0.0630    0.5800    2.5240 hc        1 HU5      0.044478
     58 H171        2.0750   -2.3310   -0.0300 h1        1 HU5      0.061700
     59 H172        1.1180   -2.3930    1.5320 h1        1 HU5      0.061700
     60 H18        -0.6980   -0.5250   -1.5950 h1        1 HU5      0.084700
     61 H19        -2.0910   -2.9010   -0.7480 hc        1 HU5      0.110700
     62 H20        -0.0060   -4.2200    0.4240 hc        1 HU5      0.103700
     63 H221       -1.1420   -4.4750   -3.1810 hc        1 HU5      0.044367
     64 H222        0.2470   -5.3590   -2.4180 hc        1 HU5      0.044367
     65 H223       -1.3030   -5.1410   -1.5020 hc        1 HU5      0.044367
     66 H231        1.2590   -1.7270   -2.2470 hc        1 HU5      0.044367
     67 H232        1.7600   -3.3770   -2.7940 hc        1 HU5      0.044367
     68 H233        0.3750   -2.5310   -3.6060 hc        1 HU5      0.044367
     69 HN26       -3.0990   -0.3370   -1.5900 hn        1 HU5      0.321500
     70 H27        -4.0210    0.9320    0.8990 h1        1 HU5      0.108700
     71 H281       -5.3990    0.8030   -1.9000 hc        1 HU5      0.071200
     72 H282       -5.9270    1.7480   -0.4430 hc        1 HU5      0.071200
     73 H29        -3.5390    2.8560   -0.5400 hc        1 HU5      0.070700
     74 H301       -2.2110    2.4550   -2.5260 hc        1 HU5      0.050700
     75 H302       -3.4590    1.3110   -3.1810 hc        1 HU5      0.050700
     76 H311       -5.9820    3.4540   -2.2790 hc        1 HU5      0.050700
     77 H312       -4.7790    4.6400   -1.6160 hc        1 HU5      0.050700
     78 H321       -3.3720    4.3290   -3.5980 hc        1 HU5      0.049200
     79 H322       -4.5950    3.1750   -4.2770 hc        1 HU5      0.049200
     80 H361       -5.8470   -2.0000    2.5690 hn        1 HU5      0.321500
     81 H362       -6.8590   -0.8880    3.3760 hn        1 HU5      0.321500
     82 O33        -5.4850   -1.7760   -0.1850 o         1 HU5     -0.499100
@<TRIPOS>BOND
     1    1    2 2   
     2    1    3 1   
     3    1    8 1   
     4    3    4 1   
     5    3   37 1   
     6    4    5 1   
     7    4    6 1   
     8    4    7 1   
     9    5   38 1   
    10    5   39 1   
    11    5   40 1   
    12    6   41 1   
    13    6   42 1   
    14    6   43 1   
    15    7   44 1   
    16    7   45 1   
    17    7   46 1   
    18    8    9 1   
    19    8   47 1   
    20    9   10 1   
    21    9   14 1   
    22    9   48 1   
    23   10   11 1   
    24   10   12 1   
    25   10   13 1   
    26   11   49 1   
    27   11   50 1   
    28   11   51 1   
    29   12   52 1   
    30   12   53 1   
    31   12   54 1   
    32   13   55 1   
    33   13   56 1   
    34   13   57 1   
    35   14   15 2   
    36   14   16 1   
    37   16   17 1   
    38   16   18 1   
    39   17   20 1   
    40   17   58 1   
    41   17   59 1   
    42   18   19 1   
    43   18   24 1   
    44   18   60 1   
    45   19   20 1   
    46   19   21 1   
    47   19   61 1   
    48   20   21 1   
    49   20   62 1   
    50   21   22 1   
    51   21   23 1   
    52   22   63 1   
    53   22   64 1   
    54   22   65 1   
    55   23   66 1   
    56   23   67 1   
    57   23   68 1   
    58   24   25 2   
    59   24   26 1   
    60   26   27 1   
    61   26   69 1   
    62   27   28 1   
    63   27   33 1   
    64   27   70 1   
    65   28   29 1   
    66   28   71 1   
    67   28   72 1   
    68   29   30 1   
    69   29   31 1   
    70   29   73 1   
    71   30   32 1   
    72   30   74 1   
    73   30   75 1   
    74   31   32 1   
    75   31   76 1   
    76   31   77 1   
    77   32   78 1   
    78   32   79 1   
    79   33   36 1   
    80   33   82 2   
    81   34   36 2   
    82   35   36 1   
    83   35   80 1   
    84   35   81 1   
@<TRIPOS>SUBSTRUCTURE
     1 HU5         1 TEMP              0 ****  ****    0 ROOT
