@<TRIPOS>MOLECULE
HU5
   82    83     1     0     0
SMALL
bcc


@<TRIPOS>ATOM
      1 C1         -0.7370    3.0550    0.4840 c1        1 HU5      0.391000
      2 O2          0.2970    2.8220    1.0870 o         1 HU5     -0.417000
      3 N3         -0.7480    4.0370   -0.5860 n3        1 HU5     -0.351000
      4 C4         -0.3590    5.4170   -0.3150 c3        1 HU5      0.084000
      5 C5          0.0850    5.5460    1.1510 c3        1 HU5     -0.227333
      6 C6          0.8030    5.8120   -1.2380 c3        1 HU5     -0.227333
      7 C7         -1.5570    6.3480   -0.5720 c3        1 HU5     -0.227333
      8 N8         -1.9370    2.2950    0.7830 n2        1 HU5     -0.358000
      9 C9         -1.8330    0.9540    1.2500 c3        1 HU5      0.029000
     10 C10        -2.0050    0.9280    2.7780 c3        1 HU5     -0.047000
     11 C11        -1.9550    2.3670    3.3250 c3        1 HU5     -0.212333
     12 C12        -0.8710    0.1000    3.4080 c3        1 HU5     -0.212333
     13 C13        -3.3650    0.2910    3.1320 c3        1 HU5     -0.212333
     14 C14        -2.9120    0.1110    0.6070 c2        1 HU5      0.287000
     15 O15        -4.0670    0.5050    0.6010 o         1 HU5     -0.383000
     16 N16        -2.6020   -1.2660    0.1570 n         1 HU5     -0.318000
     17 C17        -3.6370   -2.3390   -0.3530 c3        1 HU5      0.002000
     18 C18        -1.3080   -1.8760    0.1040 c3        1 HU5      0.046000
     19 C19        -1.5120   -2.9750   -1.0970 cx        1 HU5     -0.175000
     20 C20        -3.0210   -3.0310   -1.3440 cx        1 HU5     -0.163000
     21 C21        -2.2870   -4.2770   -0.8940 cx        1 HU5     -0.079000
     22 C22        -2.5170   -4.6950    0.5660 c3        1 HU5     -0.188000
     23 C23        -2.0770   -5.3530   -1.9720 c3        1 HU5     -0.188000
     24 C24        -0.3170   -0.8860   -0.1630 c2        1 HU5      0.295000
     25 O25        -0.6340    0.1620   -0.7000 o         1 HU5     -0.339000
     26 N26         1.0970   -1.1760    0.0990 n         1 HU5     -0.376000
     27 C27         1.9470   -1.6090   -0.9670 c3        1 HU5      0.008000
     28 C28         3.1520   -0.6790   -1.0670 c3        1 HU5     -0.184000
     29 C29         3.9960   -1.0910   -2.1950 cy        1 HU5     -0.125000
     30 C30         4.1810   -0.0070   -3.2080 cy        1 HU5     -0.169500
     31 C31         5.4620   -1.0430   -1.8730 cy        1 HU5     -0.169500
     32 C32         5.6480    0.0420   -2.8880 cy        1 HU5     -0.174000
     33 O33         2.1290   -3.9170   -1.4680 o         1 HU5     -0.256000
     34 C34         2.4190   -3.0190   -0.6960 c2        1 HU5      0.210000
     35 O35         3.4340   -2.4750    1.3930 o         1 HU5     -0.372000
     36 N36         3.9750   -4.5740    0.6280 n         1 HU5     -0.408000
     37 C37         3.3110   -3.3080    0.5130 c2        1 HU5      0.261000
     38 HN3        -1.0340    3.7980   -1.4250 hn        1 HU5      0.210000
     39 H51         0.8640    4.9670    1.3100 hc        1 HU5      0.085889
     40 H52         0.3290    6.4820    1.3390 hc        1 HU5      0.085889
     41 H53        -0.6500    5.2740    1.7410 hc        1 HU5      0.085889
     42 H61         0.5280    5.7030   -2.1760 hc        1 HU5      0.085889
     43 H62         1.0460    6.7510   -1.0750 hc        1 HU5      0.085889
     44 H63         1.5770    5.2360   -1.0550 hc        1 HU5      0.085889
     45 H71        -2.1600    6.3280    0.2040 hc        1 HU5      0.085889
     46 H72        -1.2340    7.2680   -0.7130 hc        1 HU5      0.085889
     47 H73        -2.0430    6.0450   -1.3720 hc        1 HU5      0.085889
     48 HN8        -2.7640    2.6600    0.6170 hn        1 HU5      0.229000
     49 H9         -0.9550    0.5940    1.0150 h1        1 HU5      0.136000
     50 H111       -2.6260    2.9170    2.8640 hc        1 HU5      0.081222
     51 H112       -1.0620    2.7450    3.1730 hc        1 HU5      0.081222
     52 H113       -2.1470    2.3580    4.2930 hc        1 HU5      0.081222
     53 H121       -0.9000    0.1970    4.3890 hc        1 HU5      0.081222
     54 H122       -0.0060    0.4200    3.0720 hc        1 HU5      0.081222
     55 H123       -0.9850   -0.8460    3.1700 hc        1 HU5      0.081222
     56 H131       -4.0890    0.8140    2.7190 hc        1 HU5      0.081222
     57 H132       -3.3920   -0.6300    2.7940 hc        1 HU5      0.081222
     58 H133       -3.4800    0.2860    4.1110 hc        1 HU5      0.081222
     59 H171       -3.8810   -2.9460    0.3800 h1        1 HU5      0.109000
     60 H172       -4.4410   -1.8920   -0.7030 h1        1 HU5      0.109000
     61 H18        -0.9540   -2.2940    0.9200 h1        1 HU5      0.113000
     62 H19        -1.0230   -2.8530   -1.9410 hc        1 HU5      0.149000
     63 H20        -3.2860   -2.9420   -2.2880 hc        1 HU5      0.144000
     64 H221       -1.9320   -5.4560    0.7860 hc        1 HU5      0.082333
     65 H222       -3.4580   -4.9590    0.6870 hc        1 HU5      0.082333
     66 H223       -2.3110   -3.9430    1.1570 hc        1 HU5      0.082333
     67 H231       -1.8770   -4.9210   -2.8310 hc        1 HU5      0.082333
     68 H232       -1.3270   -5.9330   -1.7140 hc        1 HU5      0.082333
     69 H233       -2.8960   -5.8940   -2.0590 hc        1 HU5      0.082333
     70 HN26        1.4280   -1.1090    0.9500 hn        1 HU5      0.248000
     71 H27         1.4480   -1.5880   -1.8130 h1        1 HU5      0.157000
     72 H281        2.8430    0.2430   -1.2090 hc        1 HU5      0.119000
     73 H282        3.6720   -0.7270   -0.2330 hc        1 HU5      0.119000
     74 H29         3.7250   -1.9450   -2.5980 hc        1 HU5      0.085000
     75 H301        3.7120    0.8220   -2.9680 hc        1 HU5      0.093250
     76 H302        4.0020   -0.3100   -4.1270 hc        1 HU5      0.093250
     77 H311        5.6400   -0.7390   -0.9560 hc        1 HU5      0.093250
     78 H312        5.9320   -1.8730   -2.1140 hc        1 HU5      0.093250
     79 H321        5.9210    0.8970   -2.4860 hc        1 HU5      0.088500
     80 H322        6.2120   -0.2370   -3.6450 hc        1 HU5      0.088500
     81 H361        4.5110   -4.7470    1.3530 hn        1 HU5      0.235500
     82 H362        3.8460   -5.2180   -0.0120 hn        1 HU5      0.235500
@<TRIPOS>BOND
     1    1    2 1   
     2    1    3 1   
     3    3    4 1   
     4    3   38 1   
     5    4    5 1   
     6    4    6 1   
     7    4    7 1   
     8    5   39 1   
     9    5   40 1   
    10    5   41 1   
    11    6   42 1   
    12    6   43 1   
    13    6   44 1   
    14    7   45 1   
    15    7   46 1   
    16    7   47 1   
    17    8    9 1   
    18    8   48 1   
    19    9   10 1   
    20    9   14 1   
    21    9   49 1   
    22   10   11 1   
    23   10   12 1   
    24   10   13 1   
    25   11   50 1   
    26   11   51 1   
    27   11   52 1   
    28   12   53 1   
    29   12   54 1   
    30   12   55 1   
    31   13   56 1   
    32   13   57 1   
    33   13   58 1   
    34   14   15 1   
    35   14   16 1   
    36   16   17 1   
    37   16   18 1   
    38   17   20 1   
    39   17   59 1   
    40   17   60 1   
    41   18   19 1   
    42   18   24 1   
    43   18   61 1   
    44   19   20 1   
    45   19   21 1   
    46   19   62 1   
    47   20   21 1   
    48   20   63 1   
    49   21   22 1   
    50   21   23 1   
    51   22   64 1   
    52   22   65 1   
    53   22   66 1   
    54   23   67 1   
    55   23   68 1   
    56   23   69 1   
    57   24   25 1   
    58   24   26 1   
    59   26   27 1   
    60   26   70 1   
    61   27   28 1   
    62   27   34 1   
    63   27   71 1   
    64   28   29 1   
    65   28   72 1   
    66   28   73 1   
    67   29   30 1   
    68   29   31 1   
    69   29   74 1   
    70   30   32 1   
    71   30   75 1   
    72   30   76 1   
    73   31   32 1   
    74   31   77 1   
    75   31   78 1   
    76   32   79 1   
    77   32   80 1   
    78   33   34 1   
    79   34   37 1   
    80   35   37 1   
    81   36   37 1   
    82   36   81 1   
    83   36   82 1   
@<TRIPOS>SUBSTRUCTURE
     1 HU5         1 TEMP              0 ****  ****    0 ROOT
