@<TRIPOS>MOLECULE
HU5
   86    88     1     0     0
SMALL
bcc


@<TRIPOS>ATOM
      1 C1         -0.5860    0.6100   -0.1490 c         1 HU5      0.507100
      2 O2          0.0090    1.6370   -0.4390 o         1 HU5     -0.327100
      3 N3         -1.3110    0.4760    1.1330 n4        1 HU5     -0.687800
      4 C4         -0.3830    0.0290    2.3550 c3        1 HU5      0.209200
      5 C5          0.4330   -1.1770    1.9310 c3        1 HU5     -0.162767
      6 C6          0.5020    1.2060    2.7290 c3        1 HU5     -0.162767
      7 C7         -1.3350   -0.3220    3.4910 c3        1 HU5     -0.162767
      8 N8         -0.5850   -0.5490   -1.0980 n4        1 HU5     -0.665800
      9 C9          0.3820   -0.3960   -2.2760 c3        1 HU5      0.076500
     10 C10         0.9840   -1.7980   -2.6250 c3        1 HU5     -0.055000
     11 C11         1.9270   -2.2210   -1.5050 c3        1 HU5     -0.124767
     12 C12        -0.1080   -2.8390   -2.8140 c3        1 HU5     -0.124767
     13 C13         1.7910   -1.6680   -3.9100 c3        1 HU5     -0.124767
     14 C14        -0.3960    0.2070   -3.4780 c         1 HU5      0.652100
     15 O15        -1.5950   -0.1180   -3.6240 o         1 HU5     -0.605100
     16 N16         0.2420    1.0400   -4.3650 n         1 HU5     -0.435800
     17 C17         1.4470    1.8240   -4.0420 c3        1 HU5      0.096000
     18 C18        -0.4700    1.5990   -5.5220 c3        1 HU5      0.093700
     19 C19         0.3430    2.8010   -5.9980 cx        1 HU5     -0.211700
     20 C20         1.5300    2.9480   -5.0570 cx        1 HU5     -0.104700
     21 C21         0.4600    4.0140   -5.0830 cx        1 HU5     -0.014000
     22 C22         0.8360    5.2990   -5.7670 c3        1 HU5     -0.092100
     23 C23        -0.4810    4.2420   -3.9470 c3        1 HU5     -0.092100
     24 C24        -0.5730    0.5890   -6.6850 c         1 HU5      0.535100
     25 O25        -0.0310   -0.4930   -6.8050 o         1 HU5     -0.392100
     26 N26        -1.4860    1.0420   -7.8200 n4        1 HU5     -0.685800
     27 C27        -1.5440    0.1400   -9.0250 c3        1 HU5      0.039500
     28 C28        -2.9680    0.0810   -9.6200 c3        1 HU5     -0.093400
     29 C29        -3.9940   -0.4020   -8.6320 cy        1 HU5     -0.143700
     30 C30        -4.7400    0.6890   -7.8190 cy        1 HU5     -0.096400
     31 C31        -5.3440   -0.8060   -9.2940 cy        1 HU5     -0.096400
     32 C32        -6.0800    0.2520   -8.4510 cy        1 HU5     -0.071400
     33 C34        -0.5780    0.5780  -10.1210 c         1 HU5      0.501100
     34 O35        -0.6110   -1.6410  -11.1290 o         1 HU5     -0.314100
     35 N36         0.1950    0.0500  -12.5200 n4        1 HU5     -0.740400
     36 C37        -0.3740   -0.4500  -11.2300 c         1 HU5      0.435100
     37 HN3        -2.0980   -0.1830    1.0790 hn        1 HU5      0.496800
     38 H51         1.0070   -1.5350    2.8340 hc        1 HU5      0.103589
     39 H52         1.1910   -0.9190    1.1510 hc        1 HU5      0.103589
     40 H53        -0.2040   -2.0340    1.6020 hc        1 HU5      0.103589
     41 H61         1.1420    1.5440    1.8770 hc        1 HU5      0.103589
     42 H62        -0.0930    2.0720    3.1160 hc        1 HU5      0.103589
     43 H63         1.1850    0.8770    3.5610 hc        1 HU5      0.103589
     44 H71        -0.7100   -0.5860    4.3900 hc        1 HU5      0.103589
     45 H72        -1.9820    0.5420    3.7880 hc        1 HU5      0.103589
     46 H73        -1.9720   -1.2100    3.2550 hc        1 HU5      0.103589
     47 HN8        -1.5380   -0.6820   -1.5020 hn        1 HU5      0.507300
     48 H9          1.2220    0.2880   -1.9500 hx        1 HU5      0.142700
     49 H111        2.7040   -1.4410   -1.3130 hc        1 HU5      0.072367
     50 H112        2.4590   -3.1620   -1.8090 hc        1 HU5      0.072367
     51 H113        1.3870   -2.4480   -0.5540 hc        1 HU5      0.072367
     52 H121       -0.5110   -3.2070   -1.8400 hc        1 HU5      0.072367
     53 H122        0.3190   -3.7310   -3.3440 hc        1 HU5      0.072367
     54 H123       -0.9450   -2.4390   -3.4370 hc        1 HU5      0.072367
     55 H131        2.3340   -2.6320   -4.0950 hc        1 HU5      0.072367
     56 H132        2.5550   -0.8600   -3.8240 hc        1 HU5      0.072367
     57 H133        1.1270   -1.4780   -4.7870 hc        1 HU5      0.072367
     58 H171        2.3530    1.1600   -4.1200 h1        1 HU5      0.087200
     59 H172        1.3660    2.2380   -2.9980 h1        1 HU5      0.087200
     60 H18        -1.5240    1.8810   -5.2150 h1        1 HU5      0.123700
     61 H19         0.4400    2.9450   -7.0850 hc        1 HU5      0.109700
     62 H20         2.5510    3.1890   -5.4060 hc        1 HU5      0.153700
     63 H221       -0.0800    5.8230   -6.1360 hc        1 HU5      0.066867
     64 H222        1.3570    5.9730   -5.0400 hc        1 HU5      0.066867
     65 H223        1.5220    5.1200   -6.6300 hc        1 HU5      0.066867
     66 H231        0.0020    4.9190   -3.1960 hc        1 HU5      0.066867
     67 H232       -0.7750    3.2980   -3.4310 hc        1 HU5      0.066867
     68 H233       -1.4090    4.7490   -4.3150 hc        1 HU5      0.066867
     69 HN26       -2.4480    1.1060   -7.4360 hn        1 HU5      0.487800
     70 H27        -1.2500   -0.9090   -8.6890 hx        1 HU5      0.172700
     71 H281       -2.9290   -0.6510  -10.4760 hc        1 HU5      0.097200
     72 H282       -3.2640    1.0840  -10.0300 hc        1 HU5      0.097200
     73 H29        -3.5840   -1.2210   -7.9940 hc        1 HU5      0.069700
     74 H301       -4.4590    1.7330   -8.0760 hc        1 HU5      0.065200
     75 H302       -4.6960    0.5370   -6.7200 hc        1 HU5      0.065200
     76 H311       -5.6420   -1.8560   -9.0800 hc        1 HU5      0.065200
     77 H312       -5.3850   -0.6230  -10.3890 hc        1 HU5      0.065200
     78 H321       -6.8050   -0.1730   -7.7220 hc        1 HU5      0.091200
     79 H322       -6.5820    1.0450   -9.0460 hc        1 HU5      0.091200
     80 H361        0.6380   -0.7300  -13.0410 hn        1 HU5      0.503133
     81 H362        0.8970    0.7850  -12.3480 hn        1 HU5      0.503133
     82 O33         0.0180    1.6480  -10.1400 o         1 HU5     -0.419100
     83 H32        -1.6780    1.4140    1.3850 hn        1 HU5      0.496800
     84 H82        -0.3170   -1.4150   -0.5890 hn        1 HU5      0.507300
     85 H262       -1.1950    1.9880   -8.1100 hn        1 HU5      0.487800
     86 H363       -0.5540    0.4420  -13.1130 hn        1 HU5      0.503133
@<TRIPOS>BOND
     1    1    2 2   
     2    1    3 1   
     3    1    8 1   
     4    3    4 1   
     5    3   37 1   
     6    3   83 1   
     7    4    5 1   
     8    4    6 1   
     9    4    7 1   
    10    5   38 1   
    11    5   39 1   
    12    5   40 1   
    13    6   41 1   
    14    6   42 1   
    15    6   43 1   
    16    7   44 1   
    17    7   45 1   
    18    7   46 1   
    19    8    9 1   
    20    8   47 1   
    21    8   84 1   
    22    9   10 1   
    23    9   14 1   
    24    9   48 1   
    25   10   11 1   
    26   10   12 1   
    27   10   13 1   
    28   11   49 1   
    29   11   50 1   
    30   11   51 1   
    31   12   52 1   
    32   12   53 1   
    33   12   54 1   
    34   13   55 1   
    35   13   56 1   
    36   13   57 1   
    37   14   15 2   
    38   14   16 1   
    39   16   17 1   
    40   16   18 1   
    41   17   20 1   
    42   17   58 1   
    43   17   59 1   
    44   18   19 1   
    45   18   24 1   
    46   18   60 1   
    47   19   20 1   
    48   19   21 1   
    49   19   61 1   
    50   20   21 1   
    51   20   62 1   
    52   21   22 1   
    53   21   23 1   
    54   22   63 1   
    55   22   64 1   
    56   22   65 1   
    57   23   66 1   
    58   23   67 1   
    59   23   68 1   
    60   24   25 2   
    61   24   26 1   
    62   26   27 1   
    63   26   69 1   
    64   26   85 1   
    65   27   28 1   
    66   27   33 1   
    67   27   70 1   
    68   28   29 1   
    69   28   71 1   
    70   28   72 1   
    71   29   30 1   
    72   29   31 1   
    73   29   73 1   
    74   30   32 1   
    75   30   74 1   
    76   30   75 1   
    77   31   32 1   
    78   31   76 1   
    79   31   77 1   
    80   32   78 1   
    81   32   79 1   
    82   33   36 1   
    83   33   82 2   
    84   34   36 2   
    85   35   36 1   
    86   35   80 1   
    87   35   81 1   
    88   35   86 1   
@<TRIPOS>SUBSTRUCTURE
     1 HU5         1 TEMP              0 ****  ****    0 ROOT
