@<TRIPOS>MOLECULE
HUB
   39    42     1     0     0
SMALL
bcc


@<TRIPOS>ATOM
      1 C1         -0.0750   -0.0750   -0.2480 c         1 HUB      0.685700
      2 O1         -0.6050   -0.0610   -1.3770 o         1 HUB     -0.647500
      3 N1          1.3290   -0.0660   -0.1730 n         1 HUB     -0.440100
      4 C2         -0.7860   -0.1070    1.0260 cc        1 HUB     -0.259200
      5 C3         -0.1080   -0.0940    2.2010 cd        1 HUB     -0.037000
      6 C4          1.3250   -0.0360    2.2360 cd        1 HUB     -0.217200
      7 C5          2.0100   -0.0650    1.0320 cc        1 HUB      0.087400
      8 C6          3.5110   -0.1060    0.9510 c3        1 HUB     -0.048200
      9 C7          4.1500   -0.4000    2.3010 c3        1 HUB     -0.017500
     10 C8          4.0240   -1.8500    2.6250 c2        1 HUB     -0.188200
     11 C9          2.9470    2.7300    4.2120 c3        1 HUB     -0.075400
     12 C10         3.6390    1.9320    3.1290 c3        1 HUB     -0.075400
     13 C11         3.5140    0.4430    3.4000 c3        1 HUB     -0.051700
     14 C12         2.0380   -0.0090    3.5790 c3        1 HUB      0.261400
     15 N2          1.3860    0.8430    4.5860 n3        1 HUB     -0.814200
     16 C13         2.0670   -1.4700    4.1170 c3        1 HUB     -0.039200
     17 C14         3.0720   -2.3330    3.4360 c2        1 HUB     -0.092400
     18 C15         2.9540   -3.7800    3.7390 c3        1 HUB     -0.062900
     19 C90         1.4990    2.2680    4.3580 c3        1 HUB      0.167800
     20 H1          1.8490   -0.0850   -1.0230 hn        1 HUB      0.328500
     21 H2         -1.8820   -0.1520    0.9620 ha        1 HUB      0.162000
     22 H3         -0.6690   -0.1530    3.1480 ha        1 HUB      0.132000
     23 H6C1        3.8830    0.8830    0.5670 hc        1 HUB      0.062700
     24 H6C2        3.8350   -0.8950    0.2170 hc        1 HUB      0.062700
     25 H7          5.2430   -0.1360    2.2330 hc        1 HUB      0.060700
     26 H8          4.7600   -2.5110    2.1420 ha        1 HUB      0.125000
     27 H9C1        3.4890    2.6060    5.1850 hc        1 HUB      0.048200
     28 H9C2        2.9530    3.8200    3.9520 hc        1 HUB      0.048200
     29 H101        4.7240    2.2100    3.0790 hc        1 HUB      0.041700
     30 H102        3.1770    2.1840    2.1380 hc        1 HUB      0.041700
     31 H11         4.0520    0.2200    4.3660 hc        1 HUB      0.071700
     32 HA          0.4220    0.5850    4.6810 hn        1 HUB      0.360800
     33 H131        2.3080   -1.4600    5.2150 hc        1 HUB      0.060200
     34 H132        1.0460   -1.9190    3.9970 hc        1 HUB      0.060200
     35 H151        2.9620   -3.9440    4.8460 hc        1 HUB      0.044033
     36 H152        1.9900   -4.1780    3.3340 hc        1 HUB      0.044033
     37 H153        3.7930   -4.3640    3.2890 hc        1 HUB      0.044033
     38 H901        0.9280    2.5990    3.4400 h1        1 HUB      0.031700
     39 H902        1.0380    2.7800    5.2500 h1        1 HUB      0.031700
@<TRIPOS>BOND
     1    1    2 2   
     2    1    3 1   
     3    1    4 1   
     4    3    7 1   
     5    3   20 1   
     6    4    5 2   
     7    4   21 1   
     8    5    6 1   
     9    5   22 1   
    10    6    7 2   
    11    6   14 1   
    12    7    8 1   
    13    8    9 1   
    14    8   23 1   
    15    8   24 1   
    16    9   10 1   
    17    9   13 1   
    18    9   25 1   
    19   10   17 2   
    20   10   26 1   
    21   11   12 1   
    22   11   19 1   
    23   11   27 1   
    24   11   28 1   
    25   12   13 1   
    26   12   29 1   
    27   12   30 1   
    28   13   14 1   
    29   13   31 1   
    30   14   15 1   
    31   14   16 1   
    32   15   19 1   
    33   15   32 1   
    34   16   17 1   
    35   16   33 1   
    36   16   34 1   
    37   17   18 1   
    38   18   35 1   
    39   18   36 1   
    40   18   37 1   
    41   19   38 1   
    42   19   39 1   
@<TRIPOS>SUBSTRUCTURE
     1 HUB         1 TEMP              0 ****  ****    0 ROOT
