@<TRIPOS>MOLECULE
HUB
   39    42     1     0     0
SMALL
bcc


@<TRIPOS>ATOM
      1 C1         -0.0930   -0.0590   -0.2120 c         1 HUB      0.685700
      2 O1         -0.6320   -0.0680   -1.3380 o         1 HUB     -0.651500
      3 N1          1.3120   -0.0800   -0.1550 ns        1 HUB     -0.442100
      4 C2         -0.7920   -0.0320    1.0680 cc        1 HUB     -0.270200
      5 C3         -0.1020   -0.0140    2.2370 cd        1 HUB     -0.016000
      6 C4          1.3330   -0.0110    2.2500 cd        1 HUB     -0.175200
      7 C5          2.0080   -0.0670    1.0430 cc        1 HUB      0.073400
      8 C6          3.5070   -0.1150    0.9460 c3        1 HUB     -0.046200
      9 C7          4.1640   -0.3960    2.2920 c3        1 HUB     -0.013500
     10 C8          4.0490   -1.8460    2.6200 c2        1 HUB     -0.185200
     11 C9          2.9450    2.7440    4.1870 c3        1 HUB     -0.113400
     12 C10         3.6600    1.9330    3.1280 c3        1 HUB     -0.074400
     13 C11         3.5330    0.4430    3.3970 c3        1 HUB     -0.087700
     14 C12         2.0560   -0.0080    3.5820 c3        1 HUB      0.252400
     15 N2          1.3470    0.8420    4.5630 n7        1 HUB     -0.797200
     16 C13         2.0850   -1.4740    4.1040 c3        1 HUB     -0.040200
     17 C14         3.0960   -2.3320    3.4290 c2        1 HUB     -0.097400
     18 C15         2.9820   -3.7800    3.7310 c3        1 HUB     -0.061900
     19 C90         1.5010    2.2610    4.3180 c3        1 HUB      0.151800
     20 H1          1.8220   -0.1230   -1.0100 hn        1 HUB      0.327500
     21 H2         -1.8890   -0.0340    1.0150 ha        1 HUB      0.161000
     22 H3         -0.6390   -0.0050    3.2000 ha        1 HUB      0.157000
     23 H6C1        3.8770    0.8690    0.5480 hc        1 HUB      0.061700
     24 H6C2        3.8220   -0.9110    0.2170 hc        1 HUB      0.061700
     25 H7          5.2550   -0.1240    2.2100 hc        1 HUB      0.060700
     26 H8          4.7900   -2.5030    2.1400 ha        1 HUB      0.127000
     27 H9C1        2.9480    3.8280    3.9050 hc        1 HUB      0.045200
     28 H9C2        3.4750    2.6480    5.1690 hc        1 HUB      0.045200
     29 H101        3.2200    2.1790    2.1260 hc        1 HUB      0.044700
     30 H102        4.7460    2.2120    3.0990 hc        1 HUB      0.044700
     31 H11         4.0790    0.2160    4.3570 hc        1 HUB      0.056700
     32 HA          1.6940    0.6200    5.4800 hn        1 HUB      0.353800
     33 H131        2.3140   -1.4860    5.2060 hc        1 HUB      0.058200
     34 H132        1.0630   -1.9190    3.9690 hc        1 HUB      0.058200
     35 H151        2.0220   -4.1810    3.3200 hc        1 HUB      0.045033
     36 H152        3.8270   -4.3600    3.2850 hc        1 HUB      0.045033
     37 H153        2.9840   -3.9450    4.8380 hc        1 HUB      0.045033
     38 H901        0.9490    2.5010    3.3650 h1        1 HUB      0.056700
     39 H902        0.9970    2.8110    5.1610 h1        1 HUB      0.056700
@<TRIPOS>BOND
     1    1    2 2   
     2    1    3 1   
     3    1    4 1   
     4    3    7 1   
     5    3   20 1   
     6    4    5 2   
     7    4   21 1   
     8    5    6 1   
     9    5   22 1   
    10    6    7 2   
    11    6   14 1   
    12    7    8 1   
    13    8    9 1   
    14    8   23 1   
    15    8   24 1   
    16    9   10 1   
    17    9   13 1   
    18    9   25 1   
    19   10   17 2   
    20   10   26 1   
    21   11   12 1   
    22   11   19 1   
    23   11   27 1   
    24   11   28 1   
    25   12   13 1   
    26   12   29 1   
    27   12   30 1   
    28   13   14 1   
    29   13   31 1   
    30   14   15 1   
    31   14   16 1   
    32   15   19 1   
    33   15   32 1   
    34   16   17 1   
    35   16   33 1   
    36   16   34 1   
    37   17   18 1   
    38   18   35 1   
    39   18   36 1   
    40   18   37 1   
    41   19   38 1   
    42   19   39 1   
@<TRIPOS>SUBSTRUCTURE
     1 HUB         1 TEMP              0 ****  ****    0 ROOT
