@<TRIPOS>MOLECULE
HUB
   39    42     1     0     0
SMALL
bcc


@<TRIPOS>ATOM
      1 C1          0.3310   -0.0570    3.3630 c         1 HUB      0.685700
      2 O1          0.5210   -0.3440    4.5620 o         1 HUB     -0.647500
      3 N1          0.5140   -1.0660    2.4010 n         1 HUB     -0.440100
      4 C2         -0.0610    1.2540    2.8540 cc        1 HUB     -0.259200
      5 C3         -0.2650    1.4510    1.5270 cd        1 HUB     -0.037000
      6 C4         -0.1170    0.3820    0.5820 cd        1 HUB     -0.217200
      7 C5          0.3130   -0.8500    1.0490 cc        1 HUB      0.087400
      8 C6          0.5960   -2.0120    0.1380 c3        1 HUB     -0.048200
      9 C7          0.6350   -1.5960   -1.3260 c3        1 HUB     -0.017500
     10 C8          1.9230   -0.9100   -1.6310 c2        1 HUB     -0.188200
     11 C9         -3.0160   -0.3990   -1.6930 c3        1 HUB     -0.075400
     12 C10        -1.8790   -1.3520   -1.3970 c3        1 HUB     -0.075400
     13 C11        -0.5410   -0.6870   -1.6670 c3        1 HUB     -0.051700
     14 C12        -0.3720    0.6500   -0.8940 c3        1 HUB      0.261400
     15 N2         -1.5350    1.5130   -1.1530 n3        1 HUB     -0.814200
     16 C13         0.8960    1.3520   -1.4620 c3        1 HUB     -0.039200
     17 C14         2.0410    0.4250   -1.6780 c2        1 HUB     -0.092400
     18 C15         3.3330    1.0920   -1.9730 c3        1 HUB     -0.062900
     19 C90        -2.8250    0.9010   -0.9140 c3        1 HUB      0.167800
     20 H1          0.8210   -1.9630    2.7080 hn        1 HUB      0.328500
     21 H2         -0.1650    2.0480    3.6050 ha        1 HUB      0.162000
     22 H3         -0.5280    2.4580    1.1660 ha        1 HUB      0.132000
     23 H6C1       -0.2000   -2.7930    0.2850 hc        1 HUB      0.062700
     24 H6C2        1.5810   -2.4810    0.4080 hc        1 HUB      0.062700
     25 H7          0.5610   -2.5290   -1.9540 hc        1 HUB      0.060700
     26 H8          2.7850   -1.5710   -1.8050 ha        1 HUB      0.125000
     27 H9C1       -3.9930   -0.8580   -1.3940 hc        1 HUB      0.048200
     28 H9C2       -3.0590   -0.1840   -2.7920 hc        1 HUB      0.048200
     29 H101       -1.9410   -1.6730   -0.3240 hc        1 HUB      0.041700
     30 H102       -1.9720   -2.2710   -2.0320 hc        1 HUB      0.041700
     31 H11        -0.4880   -0.4470   -2.7670 hc        1 HUB      0.071700
     32 HA         -1.4550    2.3630   -0.6280 hn        1 HUB      0.360800
     33 H131        1.2040    2.1680   -0.7560 hc        1 HUB      0.060200
     34 H132        0.6480    1.8310   -2.4490 hc        1 HUB      0.060200
     35 H151        4.1280    0.3510   -2.2300 hc        1 HUB      0.044033
     36 H152        3.2150    1.7990   -2.8320 hc        1 HUB      0.044033
     37 H153        3.6710    1.6790   -1.0820 hc        1 HUB      0.044033
     38 H901       -2.9970    0.6840    0.1820 h1        1 HUB      0.031700
     39 H902       -3.6060    1.6450   -1.2430 h1        1 HUB      0.031700
@<TRIPOS>BOND
     1    1    2 2   
     2    1    3 1   
     3    1    4 1   
     4    3    7 1   
     5    3   20 1   
     6    4    5 2   
     7    4   21 1   
     8    5    6 1   
     9    5   22 1   
    10    6    7 2   
    11    6   14 1   
    12    7    8 1   
    13    8    9 1   
    14    8   23 1   
    15    8   24 1   
    16    9   10 1   
    17    9   13 1   
    18    9   25 1   
    19   10   17 2   
    20   10   26 1   
    21   11   12 1   
    22   11   19 1   
    23   11   27 1   
    24   11   28 1   
    25   12   13 1   
    26   12   29 1   
    27   12   30 1   
    28   13   14 1   
    29   13   31 1   
    30   14   15 1   
    31   14   16 1   
    32   15   19 1   
    33   15   32 1   
    34   16   17 1   
    35   16   33 1   
    36   16   34 1   
    37   17   18 1   
    38   18   35 1   
    39   18   36 1   
    40   18   37 1   
    41   19   38 1   
    42   19   39 1   
@<TRIPOS>SUBSTRUCTURE
     1 HUB         1 TEMP              0 ****  ****    0 ROOT
