@<TRIPOS>MOLECULE
HUD
   80    82     1     0     0
SMALL
bcc


@<TRIPOS>ATOM
      1 O2         -3.9240    0.8620    0.1420 o         1 HUD     -0.607000
      2 C1         -4.0280   -0.3780    0.1210 c         1 HUD      0.738100
      3 O3         -4.8750   -1.0100   -0.7520 os        1 HUD     -0.439900
      4 C4         -5.7640   -0.2160   -1.5840 c3        1 HUD      0.185800
      5 C6         -6.5750   -1.2850   -2.3170 c3        1 HUD     -0.114767
      6 C5         -6.6760    0.6500   -0.7330 c3        1 HUD     -0.114767
      7 C7         -4.9640    0.6130   -2.5750 c3        1 HUD     -0.114767
      8 N8         -3.3850   -1.2780    0.9650 n         1 HUD     -0.505900
      9 C9         -2.2320   -0.8100    1.7030 c3        1 HUD      0.045700
     10 C10        -1.8620   -1.7290    2.9030 c3        1 HUD     -0.041000
     11 C11        -1.7150   -3.1830    2.4880 c3        1 HUD     -0.098767
     12 C12        -0.5480   -1.2300    3.4910 c3        1 HUD     -0.098767
     13 C13        -2.9530   -1.6130    3.9590 c3        1 HUD     -0.098767
     14 C14        -1.0040   -0.6630    0.7670 c         1 HUD      0.644100
     15 O15        -0.6090   -1.6250    0.0760 o         1 HUD     -0.622100
     16 N16        -0.3560    0.5510    0.6990 n         1 HUD     -0.457800
     17 C17        -0.8850    1.8150    1.2010 c3        1 HUD      0.107000
     18 C18         0.7990    0.7460   -0.1750 c3        1 HUD      0.071700
     19 C19         0.9870    2.2550   -0.3150 cx        1 HUD     -0.143700
     20 C20        -0.0770    2.9210    0.5400 cx        1 HUD     -0.123700
     21 C21        -0.1210    3.0600   -0.9680 cx        1 HUD     -0.071000
     22 C22         0.2900    4.3990   -1.5100 c3        1 HUD     -0.074100
     23 C23        -1.1760    2.4010   -1.7970 c3        1 HUD     -0.074100
     24 C24         2.0980    0.1260    0.3880 c         1 HUD      0.659100
     25 O25         2.2330   -0.2100    1.5810 o         1 HUD     -0.620100
     26 N26         3.1510    0.0230   -0.5060 n         1 HUD     -0.556900
     27 C27         4.3380   -0.7380   -0.1890 c3        1 HUD      0.074700
     28 C28         4.7030   -1.7690   -1.2700 c3        1 HUD     -0.067400
     29 C29         3.5850   -2.7200   -1.5430 cx        1 HUD     -0.133700
     30 C30         3.6640   -3.6110   -2.7540 cx        1 HUD     -0.131900
     31 C31         2.6690   -2.4910   -2.7170 cx        1 HUD     -0.131900
     32 O32         6.0840    0.6450   -1.1920 oh        1 HUD     -0.593800
     33 C33         5.5770    0.1720    0.0370 c3        1 HUD      0.068100
     34 C36         5.2710    1.3370    0.9830 c         1 HUD      0.623100
     35 H4         -7.1550   -1.8950   -1.5860 hc        1 HUD      0.052589
     36 H5         -7.2780   -0.7850   -3.0230 hc        1 HUD      0.052589
     37 H6         -5.8950   -1.9600   -2.8880 hc        1 HUD      0.052589
     38 H1         -6.0970    1.4790   -0.2580 hc        1 HUD      0.052589
     39 H2         -7.4760    1.0880   -1.3750 hc        1 HUD      0.052589
     40 H3         -7.1490    0.0350    0.0700 hc        1 HUD      0.052589
     41 H7         -4.2720   -0.0450   -3.1540 hc        1 HUD      0.052589
     42 H8         -5.6620    1.1190   -3.2820 hc        1 HUD      0.052589
     43 H9         -4.3610    1.3880   -2.0410 hc        1 HUD      0.052589
     44 H10        -3.3580   -2.2300    0.6650 hn        1 HUD      0.326500
     45 H11        -2.5120    0.1990    2.1360 h1        1 HUD      0.092700
     46 H12        -1.0830   -3.2690    1.5700 hc        1 HUD      0.045700
     47 H13        -1.2270   -3.7600    3.3110 hc        1 HUD      0.045700
     48 H14        -2.7120   -3.6460    2.2880 hc        1 HUD      0.045700
     49 H15         0.2960   -1.3800    2.7720 hc        1 HUD      0.045700
     50 H16        -0.6180   -0.1430    3.7360 hc        1 HUD      0.045700
     51 H17        -0.3190   -1.7920    4.4280 hc        1 HUD      0.045700
     52 H18        -2.6910   -2.2480    4.8390 hc        1 HUD      0.045700
     53 H19        -3.0550   -0.5550    4.3020 hc        1 HUD      0.045700
     54 H20        -3.9370   -1.9550    3.5570 hc        1 HUD      0.045700
     55 H21        -1.9820    1.9090    0.9560 h1        1 HUD      0.071200
     56 H22        -0.7510    1.8600    2.3180 h1        1 HUD      0.071200
     57 H23         0.5770    0.2600   -1.1730 h1        1 HUD      0.087700
     58 H24         2.0270    2.6110   -0.3730 hc        1 HUD      0.112700
     59 H25         0.1150    3.8060    1.1650 hc        1 HUD      0.103700
     60 H26         0.6300    4.2940   -2.5690 hc        1 HUD      0.045700
     61 H27        -0.5770    5.1030   -1.4810 hc        1 HUD      0.045700
     62 H28         1.1240    4.8400   -0.9120 hc        1 HUD      0.045700
     63 H29        -1.9620    1.9130   -1.1670 hc        1 HUD      0.045700
     64 H30        -1.6870    3.1540   -2.4480 hc        1 HUD      0.045700
     65 H31        -0.7190    1.6240   -2.4580 hc        1 HUD      0.045700
     66 H32         2.9600    0.1430   -1.4750 hn        1 HUD      0.314500
     67 H33         4.1520   -1.2970    0.7800 h1        1 HUD      0.079700
     68 H34         5.0110   -1.2350   -2.2090 hc        1 HUD      0.064200
     69 H35         5.5980   -2.3400   -0.9040 hc        1 HUD      0.064200
     70 H36         3.1390   -3.1400   -0.6180 hc        1 HUD      0.087700
     71 H37         4.5400   -3.5280   -3.4210 hc        1 HUD      0.071700
     72 H38         3.3050   -4.6520   -2.6720 hc        1 HUD      0.071700
     73 H39         1.5950   -2.7250   -2.6070 hc        1 HUD      0.071700
     74 H40         2.8360   -1.6090   -3.3620 hc        1 HUD      0.071700
     75 H41         5.7780    1.5560   -1.3240 ho        1 HUD      0.431000
     76 H42         6.4020   -0.4620    0.4740 h1        1 HUD      0.091700
     77 H43         4.5190    1.8350    2.8030 hn        1 HUD      0.315000
     78 H44         4.3110    0.2090    2.3960 hn        1 HUD      0.315000
     79 O34         5.5180    2.5060    0.6150 o         1 HUD     -0.626100
     80 N35         4.7920    1.0640    2.2390 n         1 HUD     -0.633000
@<TRIPOS>BOND
     1    1    2 2   
     2    2    3 1   
     3    2    8 1   
     4    3    4 1   
     5    4    5 1   
     6    4    6 1   
     7    4    7 1   
     8    5   35 1   
     9    5   36 1   
    10    5   37 1   
    11    6   38 1   
    12    6   39 1   
    13    6   40 1   
    14    7   41 1   
    15    7   42 1   
    16    7   43 1   
    17    8    9 1   
    18    8   44 1   
    19    9   10 1   
    20    9   14 1   
    21    9   45 1   
    22   10   11 1   
    23   10   12 1   
    24   10   13 1   
    25   11   46 1   
    26   11   47 1   
    27   11   48 1   
    28   12   49 1   
    29   12   50 1   
    30   12   51 1   
    31   13   52 1   
    32   13   53 1   
    33   13   54 1   
    34   14   15 2   
    35   14   16 1   
    36   16   17 1   
    37   16   18 1   
    38   17   20 1   
    39   17   55 1   
    40   17   56 1   
    41   18   19 1   
    42   18   24 1   
    43   18   57 1   
    44   19   20 1   
    45   19   21 1   
    46   19   58 1   
    47   20   21 1   
    48   20   59 1   
    49   21   22 1   
    50   21   23 1   
    51   22   60 1   
    52   22   61 1   
    53   22   62 1   
    54   23   63 1   
    55   23   64 1   
    56   23   65 1   
    57   24   25 2   
    58   24   26 1   
    59   26   27 1   
    60   26   66 1   
    61   27   28 1   
    62   27   33 1   
    63   27   67 1   
    64   28   29 1   
    65   28   68 1   
    66   28   69 1   
    67   29   30 1   
    68   29   31 1   
    69   29   70 1   
    70   30   31 1   
    71   30   71 1   
    72   30   72 1   
    73   31   73 1   
    74   31   74 1   
    75   32   33 1   
    76   32   75 1   
    77   33   34 1   
    78   33   76 1   
    79   34   79 2   
    80   34   80 1   
    81   77   80 1   
    82   78   80 1   
@<TRIPOS>SUBSTRUCTURE
     1 HUD         1 TEMP              0 ****  ****    0 ROOT
