@<TRIPOS>MOLECULE
HUL
   34    36     1     0     0
SMALL
bcc


@<TRIPOS>ATOM
      1 C1         -0.1100    0.0340    0.0590 ca        1 HUL     -0.010900
      2 C2          1.2990   -0.0470   -0.0200 ca        1 HUL      0.239100
      3 C3          2.0900   -0.0350    1.1540 ca        1 HUL     -0.324600
      4 C4          1.4230    0.0570    2.3920 ca        1 HUL      0.213100
      5 C5          0.0320    0.1540    2.4980 ca        1 HUL     -0.287000
      6 C6         -0.7280    0.1520    1.3210 ca        1 HUL      0.204100
      7 C7         -0.9090    1.0210   -1.9230 c3        1 HUL      0.111700
      8 C8          3.5510   -0.1210    1.1370 c         1 HUL      0.607900
      9 C9          4.1830   -0.1190    2.4520 cc        1 HUL     -0.321200
     10 C10         3.4660   -0.0230    3.5950 cd        1 HUL      0.210900
     11 C11         4.0180   -0.0090    4.9480 ca        1 HUL     -0.119800
     12 C12         5.3200    0.4630    5.1660 ca        1 HUL     -0.053000
     13 C13         5.8630    0.4650    6.4460 ca        1 HUL     -0.193500
     14 C14         5.0940   -0.0060    7.5210 ca        1 HUL      0.151100
     15 C15         3.7840   -0.4760    7.3180 ca        1 HUL     -0.193500
     16 O21        -0.8990   -0.1220   -1.0640 os        1 HUL     -0.303900
     17 O19         1.8020   -0.1130   -1.2830 oh        1 HUL     -0.486100
     18 O20        -2.0920    0.2630    1.3360 oh        1 HUL     -0.465100
     19 O17         2.0810    0.0690    3.6110 os        1 HUL     -0.225200
     20 O18         4.2210   -0.1910    0.0890 o         1 HUL     -0.588100
     21 O22         5.5610   -0.0360    8.8110 oh        1 HUL     -0.490100
     22 C16         3.2560   -0.4720    6.0340 ca        1 HUL     -0.053000
     23 H1         -0.4430    0.2320    3.4840 ha        1 HUL      0.159000
     24 H2          0.1220    1.2380   -2.2920 h1        1 HUL      0.043700
     25 H3         -1.5770    0.7070   -2.7640 h1        1 HUL      0.043700
     26 H4         -1.3320    1.9050   -1.3890 h1        1 HUL      0.043700
     27 H5          5.2790   -0.2090    2.4710 ha        1 HUL      0.171000
     28 H6          5.9190    0.8400    4.3220 ha        1 HUL      0.148500
     29 H7          6.8840    0.8350    6.6140 ha        1 HUL      0.150000
     30 H8          3.1990   -0.8390    8.1750 ha        1 HUL      0.150000
     31 H9          2.7700   -0.2240   -1.2580 ho        1 HUL      0.468000
     32 H10        -2.3830    0.2730    2.2620 ho        1 HUL      0.425000
     33 H11         6.4670    0.3090    8.8130 ho        1 HUL      0.425000
     34 H12         2.2300   -0.8340    5.8610 ha        1 HUL      0.148500
@<TRIPOS>BOND
     1    1    2 ar  
     2    1    6 ar  
     3    1   16 1   
     4    2    3 ar  
     5    2   17 1   
     6    3    4 ar  
     7    3    8 1   
     8    4    5 ar  
     9    4   19 1   
    10    5    6 ar  
    11    5   23 1   
    12    6   18 1   
    13    7   16 1   
    14    7   24 1   
    15    7   25 1   
    16    7   26 1   
    17    8    9 1   
    18    8   20 2   
    19    9   10 2   
    20    9   27 1   
    21   10   11 1   
    22   10   19 1   
    23   11   12 ar  
    24   11   22 ar  
    25   12   13 ar  
    26   12   28 1   
    27   13   14 ar  
    28   13   29 1   
    29   14   15 ar  
    30   14   21 1   
    31   15   22 ar  
    32   15   30 1   
    33   17   31 1   
    34   18   32 1   
    35   21   33 1   
    36   22   34 1   
@<TRIPOS>SUBSTRUCTURE
     1 HUL         1 TEMP              0 ****  ****    0 ROOT
