@<TRIPOS>MOLECULE
HUP
   37    39     1     0     0
SMALL
bcc


@<TRIPOS>ATOM
      1 C1         -0.0750    0.1660   -0.1130 c         1 HUP      0.685700
      2 O1         -0.6260    0.3220   -1.2100 o         1 HUP     -0.564500
      3 N1          1.3450    0.1780   -0.0710 ns        1 HUP     -0.432100
      4 C2         -0.7520   -0.0470    1.1690 cc        1 HUP     -0.214200
      5 C3         -0.0450   -0.1470    2.3180 cd        1 HUP     -0.068000
      6 C4          1.3860   -0.0240    2.3200 cd        1 HUP     -0.311200
      7 C5          2.0500    0.0610    1.0970 cc        1 HUP      0.168400
      8 C6          3.5510    0.0000    0.9980 c3        1 HUP     -0.066200
      9 C7          4.1850   -0.4680    2.3040 c3        1 HUP      0.019700
     10 C8          3.9670   -1.9280    2.5260 c2        1 HUP     -0.170200
     11 C9          5.6830    1.5880    3.9020 c3        1 HUP     -0.082900
     12 C10         4.2640    1.2440    4.1320 c2        1 HUP     -0.111200
     13 C11         3.5880    0.3300    3.4250 c2        1 HUP     -0.178400
     14 C12         2.1460   -0.0920    3.6160 c3        1 HUP      0.288600
     15 N2          1.4480    0.8310    4.6190 nz        1 HUP     -0.848600
     16 C13         2.1400   -1.5400    4.1690 c3        1 HUP     -0.053200
     17 C14         3.0460   -2.4170    3.3690 c2        1 HUP     -0.090400
     18 C15         2.8510   -3.8690    3.5900 c3        1 HUP     -0.068900
     19 HN1         1.8370    0.2340   -0.9410 hn        1 HUP      0.350500
     20 H2         -1.8480   -0.1390    1.1180 ha        1 HUP      0.186000
     21 H3         -0.5770   -0.3680    3.2580 ha        1 HUP      0.122000
     22 H61         3.8570   -0.7010    0.1730 hc        1 HUP      0.090700
     23 H62         3.9410    1.0230    0.7400 hc        1 HUP      0.090700
     24 H7          5.2970   -0.2810    2.2430 hc        1 HUP      0.096700
     25 H8          4.6260   -2.5950    1.9460 ha        1 HUP      0.157000
     26 H91         6.3420    0.7130    4.1360 hc        1 HUP      0.068700
     27 H92         5.9940    2.4420    4.5520 hc        1 HUP      0.068700
     28 H93         5.8560    1.8810    2.8350 hc        1 HUP      0.068700
     29 H10         3.8040    1.8140    4.9570 ha        1 HUP      0.105000
     30 HN21        1.4370    1.7820    4.2400 hn        1 HUP      0.455133
     31 HN22        0.4880    0.5130    4.7660 hn        1 HUP      0.455133
     32 H131        1.0950   -1.9490    4.1290 hc        1 HUP      0.071700
     33 H132        2.4880   -1.5560    5.2380 hc        1 HUP      0.071700
     34 H151        3.6290   -4.4690    3.0560 hc        1 HUP      0.060700
     35 H152        1.8450   -4.1840    3.2160 hc        1 HUP      0.060700
     36 H153        2.9110   -4.1080    4.6820 hc        1 HUP      0.060700
     37 H23         1.9530    0.8150    5.5080 hn        1 HUP      0.455133
@<TRIPOS>BOND
     1    1    2 2   
     2    1    3 1   
     3    1    4 1   
     4    3    7 1   
     5    3   19 1   
     6    4    5 2   
     7    4   20 1   
     8    5    6 1   
     9    5   21 1   
    10    6    7 2   
    11    6   14 1   
    12    7    8 1   
    13    8    9 1   
    14    8   22 1   
    15    8   23 1   
    16    9   10 1   
    17    9   13 1   
    18    9   24 1   
    19   10   17 2   
    20   10   25 1   
    21   11   12 1   
    22   11   26 1   
    23   11   27 1   
    24   11   28 1   
    25   12   13 2   
    26   12   29 1   
    27   13   14 1   
    28   14   15 1   
    29   14   16 1   
    30   15   30 1   
    31   15   31 1   
    32   15   37 1   
    33   16   17 1   
    34   16   32 1   
    35   16   33 1   
    36   17   18 1   
    37   18   34 1   
    38   18   35 1   
    39   18   36 1   
@<TRIPOS>SUBSTRUCTURE
     1 HUP         1 TEMP              0 ****  ****    0 ROOT
