@<TRIPOS>MOLECULE
HUP
   37    39     1     0     0
SMALL
bcc


@<TRIPOS>ATOM
      1 C1         -0.0690    0.2070   -0.1110 c         1 HUP      0.685700
      2 O1         -0.6190    0.3690   -1.2080 o         1 HUP     -0.564500
      3 N1          1.3500    0.2040   -0.0700 n         1 HUP     -0.432100
      4 C2         -0.7480   -0.0010    1.1710 cc        1 HUP     -0.214200
      5 C3         -0.0420   -0.1100    2.3200 cd        1 HUP     -0.068000
      6 C4          1.3900   -0.0010    2.3210 cd        1 HUP     -0.311200
      7 C5          2.0550    0.0800    1.0980 cc        1 HUP      0.168400
      8 C6          3.5550    0.0040    0.9990 c3        1 HUP     -0.066200
      9 C7          4.1850   -0.4720    2.3040 c3        1 HUP      0.019700
     10 C8          3.9530   -1.9310    2.5240 c2        1 HUP     -0.170200
     11 C9          5.7030    1.5670    3.9040 c3        1 HUP     -0.082900
     12 C10         4.2810    1.2360    4.1350 c2        1 HUP     -0.111200
     13 C11         3.5960    0.3300    3.4260 c2        1 HUP     -0.178400
     14 C12         2.1500   -0.0780    3.6170 c3        1 HUP      0.288600
     15 N2          1.4610    0.8500    4.6210 n4        1 HUP     -0.848600
     16 C13         2.1300   -1.5260    4.1680 c3        1 HUP     -0.053200
     17 C14         3.0270   -2.4110    3.3670 c2        1 HUP     -0.090400
     18 C15         2.8180   -3.8620    3.5860 c3        1 HUP     -0.068900
     19 HN1         1.8430    0.2570   -0.9390 hn        1 HUP      0.350500
     20 H2         -1.8450   -0.0830    1.1200 ha        1 HUP      0.186000
     21 H3         -0.5760   -0.3270    3.2590 ha        1 HUP      0.122000
     22 H61         3.8540   -0.6990    0.1730 hc        1 HUP      0.090700
     23 H62         3.9550    1.0230    0.7420 hc        1 HUP      0.090700
     24 H7          5.2980   -0.2960    2.2430 hc        1 HUP      0.096700
     25 H8          4.6050   -2.6030    1.9440 ha        1 HUP      0.157000
     26 H91         5.8790    1.8590    2.8380 hc        1 HUP      0.068700
     27 H92         6.0230    2.4170    4.5560 hc        1 HUP      0.068700
     28 H93         6.3540    0.6850    4.1370 hc        1 HUP      0.068700
     29 H10         3.8270    1.8100    4.9610 ha        1 HUP      0.105000
     30 HN21        1.4590    1.8020    4.2440 hn        1 HUP      0.455133
     31 HN22        0.4980    0.5420    4.7690 hn        1 HUP      0.455133
     32 H131        1.0810   -1.9250    4.1280 hc        1 HUP      0.071700
     33 H132        2.4780   -1.5470    5.2370 hc        1 HUP      0.071700
     34 H151        1.8090   -4.1670    3.2110 hc        1 HUP      0.060700
     35 H152        3.5900   -4.4690    3.0500 hc        1 HUP      0.060700
     36 H153        2.8760   -4.1030    4.6770 hc        1 HUP      0.060700
     37 H23         1.9660    0.8290    5.5100 hn        1 HUP      0.455133
@<TRIPOS>BOND
     1    1    2 2   
     2    1    3 1   
     3    1    4 1   
     4    3    7 1   
     5    3   19 1   
     6    4    5 2   
     7    4   20 1   
     8    5    6 1   
     9    5   21 1   
    10    6    7 2   
    11    6   14 1   
    12    7    8 1   
    13    8    9 1   
    14    8   22 1   
    15    8   23 1   
    16    9   10 1   
    17    9   13 1   
    18    9   24 1   
    19   10   17 2   
    20   10   25 1   
    21   11   12 1   
    22   11   26 1   
    23   11   27 1   
    24   11   28 1   
    25   12   13 2   
    26   12   29 1   
    27   13   14 1   
    28   14   15 1   
    29   14   16 1   
    30   15   30 1   
    31   15   31 1   
    32   15   37 1   
    33   16   17 1   
    34   16   32 1   
    35   16   33 1   
    36   17   18 1   
    37   18   34 1   
    38   18   35 1   
    39   18   36 1   
@<TRIPOS>SUBSTRUCTURE
     1 HUP         1 TEMP              0 ****  ****    0 ROOT
