@<TRIPOS>MOLECULE
HUP
   36    36     1     0     0
SMALL
bcc


@<TRIPOS>ATOM
      1 C1         -2.5730    0.1910   -2.7420 c1        1 HUP      0.324000
      2 O1         -3.1810    0.4210   -3.7720 o         1 HUP     -0.370000
      3 N1         -1.0650    0.1910   -2.7420 n2        1 HUP     -0.283000
      4 C2         -3.3790   -0.1360   -1.3900 c2        1 HUP     -0.239000
      5 C3         -2.6460   -0.1620   -0.0510 c1        1 HUP     -0.039000
      6 C4         -1.1990   -0.0230   -0.0210 c1        1 HUP     -0.227000
      7 C5         -0.3430    0.1910   -1.4910 c2        1 HUP      0.096000
      8 C6          0.9150    0.6870   -1.3500 c3        1 HUP     -0.128000
      9 C7          1.5740    0.2080    0.0280 c3        1 HUP     -0.033000
     10 C8          1.7340   -0.9020   -0.0550 c2        1 HUP     -0.177000
     11 C9          2.2170    2.4500    1.5620 c3        1 HUP     -0.190000
     12 C10         1.0830    1.4750    1.8860 c2        1 HUP     -0.132000
     13 C11         0.8460    0.3950    1.0630 c2        1 HUP     -0.117000
     14 C12        -0.4640   -0.2230    1.0370 c3        1 HUP      0.126000
     15 N2         -1.1920    0.3660    2.1320 n3        1 HUP     -0.332000
     16 C13        -0.4330   -0.7730    1.1500 c3        1 HUP     -0.118000
     17 C14         1.1060   -1.4000    0.0750 c2        1 HUP     -0.083000
     18 C15         1.2000   -2.8730   -0.3420 c3        1 HUP     -0.184000
     19 HN1        -0.6090    0.2250   -3.5310 hn        1 HUP      0.243000
     20 H2         -4.3390   -0.3110   -1.4240 ha        1 HUP      0.163000
     21 H3         -3.1360   -0.3600    0.7700 ha        1 HUP      0.132000
     22 H61         1.5190    0.4350   -2.0740 hc        1 HUP      0.103500
     23 H62         0.8980    1.6590   -1.4470 hc        1 HUP      0.103500
     24 H7          2.4340    0.6530    0.1500 hc        1 HUP      0.106000
     25 H8          2.5580   -1.2480   -0.4480 ha        1 HUP      0.126000
     26 H91         1.9830    2.9700    0.7700 hc        1 HUP      0.081000
     27 H92         3.0380    1.9500    1.3920 hc        1 HUP      0.081000
     28 H93         2.3540    3.0530    2.3180 hc        1 HUP      0.081000
     29 H10         0.5020    1.6410    2.6530 ha        1 HUP      0.141000
     30 HN21       -1.9070   -0.1600    2.3400 hn        1 HUP      0.148000
     31 HN22       -1.4850    1.1960    1.8910 hn        1 HUP      0.148000
     32 H131       -0.4220   -1.0070    2.0980 hc        1 HUP      0.099500
     33 H132       -1.2470   -1.2240    0.8550 hc        1 HUP      0.099500
     34 H151        1.3790   -2.9290   -1.3000 hc        1 HUP      0.083667
     35 H152        1.9230   -3.3050    0.1500 hc        1 HUP      0.083667
     36 H153        0.3560   -3.3220   -0.1420 hc        1 HUP      0.083667
@<TRIPOS>BOND
     1    1    2 1   
     2    1    4 1   
     3    3    7 1   
     4    3   19 1   
     5    4    5 1   
     6    4   20 1   
     7    5   21 1   
     8    6    7 1   
     9    6   14 1   
    10    7    8 1   
    11    8    9 1   
    12    8   22 1   
    13    8   23 1   
    14    9   10 1   
    15    9   13 1   
    16    9   24 1   
    17   10   17 1   
    18   10   25 1   
    19   11   12 1   
    20   11   26 1   
    21   11   27 1   
    22   11   28 1   
    23   12   13 1   
    24   12   29 1   
    25   13   14 1   
    26   14   15 1   
    27   14   16 1   
    28   15   30 1   
    29   15   31 1   
    30   16   17 1   
    31   16   32 1   
    32   16   33 1   
    33   17   18 1   
    34   18   34 1   
    35   18   35 1   
    36   18   36 1   
@<TRIPOS>SUBSTRUCTURE
     1 HUP         1 TEMP              0 ****  ****    0 ROOT
