@<TRIPOS>MOLECULE
HUP
   37    39     1     0     0
SMALL
bcc


@<TRIPOS>ATOM
      1 C1         -0.0650    0.1450   -0.1260 c         1 HUP      0.685700
      2 O1         -0.6120    0.2930   -1.2270 o         1 HUP     -0.564500
      3 N1          1.3550    0.1570   -0.0800 n         1 HUP     -0.432100
      4 C2         -0.7460   -0.0580    1.1550 cc        1 HUP     -0.214200
      5 C3         -0.0430   -0.1500    2.3070 cd        1 HUP     -0.068000
      6 C4          1.3870   -0.0270    2.3130 cd        1 HUP     -0.311200
      7 C5          2.0560    0.0490    1.0920 cc        1 HUP      0.168400
      8 C6          3.5570   -0.0130    0.9980 c3        1 HUP     -0.066200
      9 C7          4.1870   -0.4720    2.3100 c3        1 HUP      0.019700
     10 C8          3.9680   -1.9300    2.5420 c2        1 HUP     -0.170200
     11 C9          5.6790    1.5960    3.8970 c3        1 HUP     -0.082900
     12 C10         4.2600    1.2540    4.1260 c2        1 HUP     -0.111200
     13 C11         3.5860    0.3350    3.4230 c2        1 HUP     -0.178400
     14 C12         2.1430   -0.0850    3.6120 c3        1 HUP      0.288600
     15 N2          1.4420    0.8450    4.6060 n4        1 HUP     -0.848600
     16 C13         2.1350   -1.5290    4.1760 c3        1 HUP     -0.053200
     17 C14         3.0430   -2.4120    3.3860 c2        1 HUP     -0.090400
     18 C15         2.8470   -3.8630    3.6170 c3        1 HUP     -0.068900
     19 HN1         1.8500    0.2060   -0.9480 hn        1 HUP      0.350500
     20 H2         -1.8420   -0.1500    1.1010 ha        1 HUP      0.186000
     21 H3         -0.5790   -0.3640    3.2470 ha        1 HUP      0.122000
     22 H61         3.9490    1.0080    0.7340 hc        1 HUP      0.090700
     23 H62         3.8660   -0.7210    0.1800 hc        1 HUP      0.090700
     24 H7          5.2990   -0.2850    2.2520 hc        1 HUP      0.096700
     25 H8          4.6280   -2.6020    1.9700 ha        1 HUP      0.157000
     26 H91         5.8570    1.8800    2.8290 hc        1 HUP      0.068700
     27 H92         6.3380    0.7220    4.1420 hc        1 HUP      0.068700
     28 H93         5.9880    2.4550    4.5420 hc        1 HUP      0.068700
     29 H10         3.7970    1.8300    4.9450 ha        1 HUP      0.105000
     30 HN21        1.9430    0.8370    5.4960 hn        1 HUP      0.455133
     31 HN22        0.4810    0.5290    4.7520 hn        1 HUP      0.455133
     32 H131        2.4790   -1.5370    5.2460 hc        1 HUP      0.071700
     33 H132        1.0900   -1.9380    4.1360 hc        1 HUP      0.071700
     34 H151        1.8420   -4.1810    3.2410 hc        1 HUP      0.060700
     35 H152        2.9020   -4.0930    4.7110 hc        1 HUP      0.060700
     36 H153        3.6270   -4.4670    3.0910 hc        1 HUP      0.060700
     37 H23         1.4330    1.7930    4.2200 hn        1 HUP      0.455133
@<TRIPOS>BOND
     1    1    2 2   
     2    1    3 1   
     3    1    4 1   
     4    3    7 1   
     5    3   19 1   
     6    4    5 2   
     7    4   20 1   
     8    5    6 1   
     9    5   21 1   
    10    6    7 2   
    11    6   14 1   
    12    7    8 1   
    13    8    9 1   
    14    8   22 1   
    15    8   23 1   
    16    9   10 1   
    17    9   13 1   
    18    9   24 1   
    19   10   17 2   
    20   10   25 1   
    21   11   12 1   
    22   11   26 1   
    23   11   27 1   
    24   11   28 1   
    25   12   13 2   
    26   12   29 1   
    27   13   14 1   
    28   14   15 1   
    29   14   16 1   
    30   15   30 1   
    31   15   31 1   
    32   15   37 1   
    33   16   17 1   
    34   16   32 1   
    35   16   33 1   
    36   17   18 1   
    37   18   34 1   
    38   18   35 1   
    39   18   36 1   
@<TRIPOS>SUBSTRUCTURE
     1 HUP         1 TEMP              0 ****  ****    0 ROOT
