@<TRIPOS>MOLECULE
HUP
   36    38     1     0     0
SMALL
bcc


@<TRIPOS>ATOM
      1 C1         -3.3640   -0.4620    0.2020 c         1 HUP      0.686700
      2 O1         -4.5180   -0.6400    0.6410 o         1 HUP     -0.648500
      3 N1         -2.2810   -0.7110    1.0650 n         1 HUP     -0.439100
      4 C2         -3.0250    0.0010   -1.1390 cc        1 HUP     -0.261200
      5 C3         -1.7290    0.1440   -1.5190 cd        1 HUP     -0.026000
      6 C4         -0.6530   -0.1620   -0.6220 cd        1 HUP     -0.173200
      7 C5         -0.9650   -0.5560    0.6690 cc        1 HUP      0.086400
      8 C6          0.0850   -0.8230    1.7120 c3        1 HUP     -0.043200
      9 C7          1.4380   -0.2500    1.2970 c3        1 HUP      0.012700
     10 C8          1.4410    1.2380    1.4000 c2        1 HUP     -0.177200
     11 C9          3.5510   -2.2430    0.5770 c3        1 HUP     -0.067900
     12 C10         2.6550   -1.6030   -0.4110 c2        1 HUP     -0.141200
     13 C11         1.7160   -0.7000   -0.1050 c2        1 HUP     -0.121400
     14 C12         0.7870   -0.0120   -1.0950 c3        1 HUP      0.293600
     15 N2          0.9440   -0.5600   -2.4460 n3        1 HUP     -0.892800
     16 C13         1.1330    1.5120   -1.0460 c3        1 HUP     -0.074200
     17 C14         1.2960    2.0400    0.3350 c2        1 HUP     -0.092400
     18 C15         1.3020    3.5180    0.4480 c3        1 HUP     -0.061900
     19 HN1        -2.4760   -1.0030    1.9970 hn        1 HUP      0.328500
     20 H2         -3.8740    0.2230   -1.7990 ha        1 HUP      0.162000
     21 H3         -1.5050    0.5190   -2.5300 ha        1 HUP      0.131000
     22 H61        -0.2150   -0.3770    2.6980 hc        1 HUP      0.064700
     23 H62         0.1830   -1.9340    1.8490 hc        1 HUP      0.064700
     24 H7          2.2200   -0.6530    2.0020 hc        1 HUP      0.066700
     25 H8          1.5630    1.6430    2.4160 ha        1 HUP      0.127000
     26 H91         4.1970   -1.4800    1.0810 hc        1 HUP      0.042367
     27 H92         2.9610   -2.7760    1.3640 hc        1 HUP      0.042367
     28 H93         4.2180   -2.9880    0.0790 hc        1 HUP      0.042367
     29 H10         2.8140   -1.9440   -1.4480 ha        1 HUP      0.134000
     30 HN21        0.3380   -0.0880   -3.0870 hn        1 HUP      0.349300
     31 HN22        1.8910   -0.4350   -2.7490 hn        1 HUP      0.349300
     32 H131        2.0920    1.6940   -1.6030 hc        1 HUP      0.051200
     33 H132        0.3190    2.0800   -1.5710 hc        1 HUP      0.051200
     34 H151        1.5370    3.8490    1.4890 hc        1 HUP      0.044033
     35 H152        2.0650    3.9550   -0.2430 hc        1 HUP      0.044033
     36 H153        0.2990    3.9270    0.1660 hc        1 HUP      0.044033
@<TRIPOS>BOND
     1    1    2 2   
     2    1    3 1   
     3    1    4 1   
     4    3    7 1   
     5    3   19 1   
     6    4    5 2   
     7    4   20 1   
     8    5    6 1   
     9    5   21 1   
    10    6    7 2   
    11    6   14 1   
    12    7    8 1   
    13    8    9 1   
    14    8   22 1   
    15    8   23 1   
    16    9   10 1   
    17    9   13 1   
    18    9   24 1   
    19   10   17 2   
    20   10   25 1   
    21   11   12 1   
    22   11   26 1   
    23   11   27 1   
    24   11   28 1   
    25   12   13 2   
    26   12   29 1   
    27   13   14 1   
    28   14   15 1   
    29   14   16 1   
    30   15   30 1   
    31   15   31 1   
    32   16   17 1   
    33   16   32 1   
    34   16   33 1   
    35   17   18 1   
    36   18   34 1   
    37   18   35 1   
    38   18   36 1   
@<TRIPOS>SUBSTRUCTURE
     1 HUP         1 TEMP              0 ****  ****    0 ROOT
