@<TRIPOS>MOLECULE
HUW
   41    38     1     0     0
SMALL
bcc


@<TRIPOS>ATOM
      1 O1          0.7620   -2.0520    1.2520 oh        1 HUW     -0.351000
      2 C1          6.7430   -0.6810   -5.9160 c2        1 HUW     -0.101000
      3 N1          6.9850    0.8740   -2.5630 n2        1 HUW     -0.149000
      4 C3          6.6380    0.0860   -3.5500 c2        1 HUW      0.018000
      5 C4          6.1220    0.9550   -1.4490 c2        1 HUW     -0.139000
      6 C14         4.3440   -0.2930   -2.6510 c2        1 HUW      0.044000
      7 C2          7.4240    0.1370   -4.8460 c3        1 HUW     -0.091000
      8 C17         5.7790   -1.4720   -5.5060 c1        1 HUW     -0.089000
      9 C15         5.4440   -0.7550   -3.5020 c2        1 HUW     -0.244000
     10 C5          6.5340    1.6290   -0.2430 c1        1 HUW     -0.040000
     11 C13         4.8350    0.4740   -1.4820 c2        1 HUW      0.007000
     12 C6          4.8270    3.0290    2.3400 c2        1 HUW     -0.189000
     13 C7          3.6490    2.7610    2.9110 c2        1 HUW     -0.093000
     14 C12         6.1570   -2.3760    1.0080 c1        1 HUW      0.166000
     15 C8          2.8210    1.6880    2.5400 c1        1 HUW     -0.125000
     16 C9          3.9220   -2.2170    2.3130 c2        1 HUW      0.124000
     17 C18         2.1090    0.7740    2.2340 c1        1 HUW     -0.237000
     18 C11         5.0550   -2.2980    1.6510 c1        1 HUW     -0.563000
     19 C10         0.5610   -1.6530   -0.0890 c3        1 HUW     -0.082000
     20 C16         5.3130   -2.0140   -4.2570 c3        1 HUW     -0.013000
     21 H1          0.3210   -2.5350   -0.7330 h1        1 HUW      0.078333
     22 H101        1.5310   -1.1940   -0.4070 h1        1 HUW      0.078333
     23 H102       -0.0590   -2.4510    1.5600 ho        1 HUW      0.202000
     24 H181        1.4780   -0.0360    1.9570 ha        1 HUW      0.233000
     25 H182       -0.2620   -0.8980   -0.1570 h1        1 HUW      0.078333
     26 H7          3.2510    3.3890    3.7300 ha        1 HUW      0.128000
     27 H91C        2.9610   -1.9620    1.8250 ha        1 HUW      0.129500
     28 H92C        3.8650   -2.3970    3.4000 ha        1 HUW      0.129500
     29 H6          5.2600    2.4300    1.5180 ha        1 HUW      0.136500
     30 H51C        7.5960    1.9090   -0.1670 ha        1 HUW      0.059000
     31 H52C        5.4360    3.8820    2.6680 ha        1 HUW      0.136500
     32 H121        7.2170   -0.2580    0.8940 ha        1 HUW      0.018500
     33 H122        6.6590   -0.0440    1.2260 ha        1 HUW      0.018500
     34 H2          7.5150    1.2050   -5.1870 hc        1 HUW      0.136000
     35 H17         6.0040   -2.8390   -3.9190 hc        1 HUW      0.151500
     36 H16         8.4620   -0.2640   -4.6880 hc        1 HUW      0.136000
     37 H21N        4.2720   -2.4290   -4.2620 hc        1 HUW      0.151500
     38 H22N        2.8120   -1.0080   -3.6120 hn        1 HUW      0.141000
     39 H11         4.1410    0.6580   -0.6450 ha        1 HUW      0.183000
     40 Cl1         7.2730   -0.5100   -7.5020 cl        1 HUW      0.053000
     41 N2          3.0770   -0.5210   -2.7820 n2        1 HUW     -0.232000
@<TRIPOS>BOND
     1    1   19 1   
     2    1   23 1   
     3    2    7 1   
     4    2    8 1   
     5    2   40 1   
     6    3    4 1   
     7    3    5 1   
     8    4    7 1   
     9    4    9 1   
    10    5   10 1   
    11    5   11 1   
    12    6    9 1   
    13    6   11 1   
    14    6   41 1   
    15    7   34 1   
    16    7   36 1   
    17    8   20 1   
    18    9   20 1   
    19   10   30 1   
    20   11   39 1   
    21   12   13 1   
    22   12   29 1   
    23   12   31 1   
    24   13   15 1   
    25   13   26 1   
    26   14   18 1   
    27   15   17 1   
    28   16   18 1   
    29   16   27 1   
    30   16   28 1   
    31   17   24 1   
    32   19   21 1   
    33   19   22 1   
    34   19   25 1   
    35   20   35 1   
    36   20   37 1   
    37   32   33 1   
    38   38   41 1   
@<TRIPOS>SUBSTRUCTURE
     1 HUW         1 TEMP              0 ****  ****    0 ROOT
