@<TRIPOS>MOLECULE
HUW
   41    44     1     0     0
SMALL
bcc


@<TRIPOS>ATOM
      1 O1         -3.5580    4.1730    0.3340 oh        1 HUW     -0.604800
      2 C1          4.1680   -0.0350    0.0990 ca        1 HUW      0.029400
      3 N1          0.8370   -1.0100    1.2800 nb        1 HUW     -0.708000
      4 C3          1.8280   -0.6210    0.4120 ca        1 HUW      0.439600
      5 C4         -0.3900   -1.2200    0.8030 ca        1 HUW      0.486600
      6 C14         0.2530   -0.6150   -1.4750 ca        1 HUW      0.202600
      7 C2          3.1480   -0.4140    0.9370 ca        1 HUW     -0.171300
      8 C17         3.9450    0.1500   -1.2880 ca        1 HUW     -0.139000
      9 C15         1.5980   -0.4170   -0.9810 ca        1 HUW     -0.190300
     10 C5         -1.4170   -1.6780    1.8120 c3        1 HUW     -0.126700
     11 C13        -0.7400   -1.0420   -0.5770 ca        1 HUW     -0.268600
     12 C6         -2.8460   -1.6620    1.2890 c3        1 HUW     -0.031500
     13 C7         -3.4010   -0.2780    1.2840 c2        1 HUW     -0.159200
     14 C12        -2.8640   -2.2550   -0.1100 c3        1 HUW     -0.070400
     15 C8         -3.4410    0.4860    0.1810 c2        1 HUW     -0.114400
     16 C9         -2.9370    0.0090   -1.1380 c3        1 HUW     -0.038200
     17 C18        -4.0160    1.8590    0.1940 c3        1 HUW     -0.047200
     18 C11        -2.1400   -1.2940   -1.0420 c3        1 HUW     -0.005400
     19 C10        -2.9310    2.9020    0.4250 c3        1 HUW      0.135400
     20 C16         2.6880   -0.0390   -1.8070 ca        1 HUW     -0.095000
     21 H1         -2.8840    4.8270    0.5500 ho        1 HUW      0.401000
     22 H101       -2.1280    2.8190   -0.3560 h1        1 HUW      0.025200
     23 H102       -2.4680    2.7700    1.4390 h1        1 HUW      0.025200
     24 H181       -4.5260    2.0730   -0.7830 hc        1 HUW      0.060200
     25 H182       -4.7900    1.9570    1.0000 hc        1 HUW      0.060200
     26 H7         -3.7740    0.0900    2.2510 ha        1 HUW      0.127000
     27 H91C       -3.8170   -0.1540   -1.8170 hc        1 HUW      0.046700
     28 H92C       -2.3020    0.8140   -1.5980 hc        1 HUW      0.046700
     29 H6         -3.4770   -2.2980    1.9730 hc        1 HUW      0.060700
     30 H51C       -1.1550   -2.7300    2.1120 hc        1 HUW      0.068700
     31 H52C       -1.3530   -1.0390    2.7330 hc        1 HUW      0.068700
     32 H121       -2.3580   -3.2530   -0.1130 hc        1 HUW      0.051200
     33 H122       -3.9180   -2.3960   -0.4590 hc        1 HUW      0.051200
     34 H2          3.3210   -0.5660    2.0150 ha        1 HUW      0.165000
     35 H17         4.7840    0.4410   -1.9380 ha        1 HUW      0.148000
     36 H16         2.5520    0.0940   -2.8910 ha        1 HUW      0.130000
     37 H21N       -0.9760   -0.3020   -3.0630 hn        1 HUW      0.406300
     38 H22N        0.6110    0.1370   -3.3330 hn        1 HUW      0.406300
     39 H11        -2.1200   -1.7770   -2.0610 hc        1 HUW      0.054700
     40 CL1         5.7340    0.2140    0.7140 cl        1 HUW     -0.091400
     41 N2         -0.0200   -0.4400   -2.8270 nh        1 HUW     -0.833200
@<TRIPOS>BOND
     1    1   19 1   
     2    1   21 1   
     3    2    7 ar  
     4    2    8 ar  
     5    2   40 1   
     6    3    4 ar  
     7    3    5 ar  
     8    4    7 ar  
     9    4    9 ar  
    10    5   10 1   
    11    5   11 ar  
    12    6    9 ar  
    13    6   11 ar  
    14    6   41 1   
    15    7   34 1   
    16    8   20 ar  
    17    8   35 1   
    18    9   20 ar  
    19   10   12 1   
    20   10   30 1   
    21   10   31 1   
    22   11   18 1   
    23   12   13 1   
    24   12   14 1   
    25   12   29 1   
    26   13   15 2   
    27   13   26 1   
    28   14   18 1   
    29   14   32 1   
    30   14   33 1   
    31   15   16 1   
    32   15   17 1   
    33   16   18 1   
    34   16   27 1   
    35   16   28 1   
    36   17   19 1   
    37   17   24 1   
    38   17   25 1   
    39   18   39 1   
    40   19   22 1   
    41   19   23 1   
    42   20   36 1   
    43   37   41 1   
    44   38   41 1   
@<TRIPOS>SUBSTRUCTURE
     1 HUW         1 TEMP              0 ****  ****    0 ROOT
