@<TRIPOS>MOLECULE
HUW
   41    38     1     0     0
SMALL
bcc


@<TRIPOS>ATOM
      1 O1         -4.8640    0.4820    3.2540 oh        1 HUW     -0.329000
      2 CL1         1.4210   -0.0720   -6.9610 cl        1 HUW     -0.014000
      3 C1          1.4980   -0.3130   -5.2370 c1        1 HUW     -0.049000
      4 N1          1.2780    1.4180   -1.9660 n1        1 HUW     -0.181000
      5 C3          1.2790    0.3930   -2.9310 c1        1 HUW     -0.038000
      6 C4          1.1140    1.1150   -0.6510 c1        1 HUW      0.066000
      7 N2          1.3310   -2.6030   -0.9100 n3        1 HUW     -0.341000
      8 C14         0.9380   -1.2680   -1.1740 c1        1 HUW      0.122000
      9 C2          1.4730    0.7050   -4.2810 c1        1 HUW     -0.100000
     10 C17         1.3290   -1.6530   -4.8430 c1        1 HUW     -0.139000
     11 C15         1.1090   -0.9490   -2.5370 c1        1 HUW     -0.038000
     12 C5          1.1430    2.1910    0.4610 c2        1 HUW     -0.111000
     13 C13         0.9370   -0.2790   -0.2390 c2        1 HUW     -0.200000
     14 C6          0.8580    1.7180    1.8570 c3        1 HUW     -0.074000
     15 C7         -0.6840    1.7090    2.0420 c2        1 HUW     -0.159000
     16 C12         1.3140    0.4420    2.1940 c3        1 HUW     -0.151000
     17 C8         -1.4170    0.4800    1.8690 c1        1 HUW     -0.101000
     18 C9         -0.5530   -1.0600    1.7660 c3        1 HUW     -0.124000
     19 C18        -2.9270    0.5000    1.8500 c2        1 HUW     -0.131000
     20 C11         0.9420   -0.6000    1.3490 c3        1 HUW     -0.045000
     21 C10        -3.4520    0.4860    3.2730 c3        1 HUW     -0.015000
     22 C16         1.1350   -1.9670   -3.4970 c1        1 HUW     -0.100000
     23 H1         -5.1710    0.3030    4.0700 ho        1 HUW      0.198000
     24 H101       -3.1300   -0.3180    3.7310 h1        1 HUW      0.061000
     25 H102       -3.1330    1.2830    3.7470 h1        1 HUW      0.061000
     26 H181       -3.2370    1.3110    1.3960 ha        1 HUW      0.103000
     27 H182       -3.2580   -0.2860    1.3720 ha        1 HUW      0.103000
     28 H7         -1.1630    2.5460    2.1900 ha        1 HUW      0.127000
     29 H91C       -0.6930   -1.5150    2.6200 hc        1 HUW      0.093000
     30 H92C       -0.8900   -1.7160    1.1230 hc        1 HUW      0.093000
     31 H6          1.2430    2.3600    2.4850 hc        1 HUW      0.098000
     32 H51C        2.0290    2.6050    0.4570 ha        1 HUW      0.108000
     33 H52C        0.4840    2.8780    0.2340 ha        1 HUW      0.108000
     34 H121        2.2940    0.4700    2.2250 hc        1 HUW      0.088000
     35 H122        0.9860    0.2320    3.0950 hc        1 HUW      0.088000
     36 H2          1.6080    1.6330   -4.5530 ha        1 HUW      0.147500
     37 H17         1.3300   -2.3620   -5.5140 ha        1 HUW      0.148000
     38 H16         1.0180   -2.8950   -3.2260 ha        1 HUW      0.147500
     39 H21N        1.3280   -2.9180   -0.0530 hn        1 HUW      0.200500
     40 H22N        1.6070   -3.1410   -1.5930 hn        1 HUW      0.200500
     41 H11         1.5480   -1.3490    1.5060 hc        1 HUW      0.077000
@<TRIPOS>BOND
     1    1   21 1   
     2    1   23 1   
     3    2    3 1   
     4    3   10 1   
     5    4    6 1   
     6    5    9 1   
     7    5   11 1   
     8    6   13 1   
     9    7    8 1   
    10    7   39 1   
    11    7   40 1   
    12    8   13 1   
    13    9   36 1   
    14   10   37 1   
    15   11   22 1   
    16   12   14 1   
    17   12   32 1   
    18   12   33 1   
    19   13   20 1   
    20   14   15 1   
    21   14   16 1   
    22   14   31 1   
    23   15   17 1   
    24   15   28 1   
    25   16   20 1   
    26   16   34 1   
    27   16   35 1   
    28   17   18 1   
    29   18   20 1   
    30   18   29 1   
    31   18   30 1   
    32   19   21 1   
    33   19   26 1   
    34   19   27 1   
    35   20   41 1   
    36   21   24 1   
    37   21   25 1   
    38   22   38 1   
@<TRIPOS>SUBSTRUCTURE
     1 HUW         1 TEMP              0 ****  ****    0 ROOT
