@<TRIPOS>MOLECULE
HUW
   42    43     1     0     0
SMALL
bcc


@<TRIPOS>ATOM
      1 O1          0.4540    0.0970   -2.8090 oh        1 HUW     -0.361000
      2 C1          4.0660   -0.5350   -4.8060 cu        1 HUW     -0.080000
      3 N1          4.7010    0.6940   -1.2300 n2        1 HUW     -0.003000
      4 C3          4.9410   -0.1140   -2.3770 c3        1 HUW     -0.087000
      5 C4          5.2220    0.3350   -0.0870 c2        1 HUW     -0.029000
      6 C14         6.0410   -1.8720   -0.9160 c2        1 HUW      0.010000
      7 C2          3.7520   -0.3370   -3.3550 cx        1 HUW     -0.091000
      8 C17         4.2020   -1.6080   -4.0400 cu        1 HUW     -0.165000
      9 C15         5.4330   -1.5230   -2.1200 c2        1 HUW     -0.016000
     10 C5          5.0120    1.1830    1.1170 cx        1 HUW     -0.210000
     11 C13         6.0690   -0.8620    0.1080 c2        1 HUW      0.168000
     12 C6          4.2460    0.6400    2.3170 cx        1 HUW     -0.198000
     13 C7          3.6200    1.7040    1.4600 cx        1 HUW      0.043000
     14 C12         6.5850   -0.1120    2.3710 c1        1 HUW      0.429000
     15 C8          2.5160    1.3900    0.6340 c1        1 HUW     -0.209000
     16 C9          8.0530   -1.7740    1.4620 c3        1 HUW     -0.171000
     17 C18         1.5810    1.1530   -0.0740 c1        1 HUW     -0.122000
     18 C11         6.8410   -0.9100    1.2980 c2        1 HUW     -0.431000
     19 C10        -0.1900    1.2050   -3.4080 c3        1 HUW     -0.081000
     20 C16         5.0530   -2.4760   -3.2320 c3        1 HUW     -0.047000
     21 H1          0.7630    0.9350   -0.7230 ha        1 HUW      0.249000
     22 H101       -1.2020    1.3640   -2.9590 h1        1 HUW      0.079000
     23 H102       -0.0950   -0.6780   -2.9780 ho        1 HUW      0.209000
     24 H181       -0.2820    1.0600   -4.5130 h1        1 HUW      0.079000
     25 H182        0.4720    2.0810   -3.1870 h1        1 HUW      0.079000
     26 H7          3.5730    2.7400    1.8690 hc        1 HUW      0.162000
     27 H91C        8.5910   -1.8830    0.4880 hc        1 HUW      0.112000
     28 H92C        8.7690   -1.3070    2.1890 hc        1 HUW      0.112000
     29 H6          3.8360   -0.3860    2.2730 hc        1 HUW      0.145500
     30 H51C        5.8520    1.9000    1.2750 hc        1 HUW      0.171000
     31 H52C        4.5820    0.9190    3.3360 hc        1 HUW      0.145500
     32 H121        7.9510    1.8350    2.1810 ha        1 HUW      0.002500
     33 H122        8.1820    2.4350    2.3980 ha        1 HUW      0.002500
     34 H2          5.7530    0.4410   -2.9660 h1        1 HUW      0.206000
     35 H17         5.9500   -2.8580   -3.7890 hc        1 HUW      0.152500
     36 H16         2.7460   -0.0700   -2.9890 hc        1 HUW      0.200000
     37 H21N        4.4970   -3.3610   -2.8140 hc        1 HUW      0.152500
     38 H22N        6.7080   -3.7070   -1.4860 hn        1 HUW      0.228500
     39 H11         7.7770   -2.7800    1.8650 hc        1 HUW      0.112000
     40 N2          6.4290   -3.1820   -0.6890 n3        1 HUW     -0.347000
     41 H23         6.8980   -3.3950    0.1590 hn        1 HUW      0.228500
     42 CL1         4.0640    0.1690   -6.2570 cl        1 HUW      0.171000
@<TRIPOS>BOND
     1    1   19 1   
     2    1   23 1   
     3    2    7 1   
     4    2    8 1   
     5    2   42 1   
     6    3    4 1   
     7    3    5 1   
     8    4    7 1   
     9    4    9 1   
    10    4   34 1   
    11    5   10 1   
    12    5   11 1   
    13    6    9 1   
    14    6   11 1   
    15    6   40 1   
    16    7    8 1   
    17    7   36 1   
    18    8   20 1   
    19    9   20 1   
    20   10   12 1   
    21   10   13 1   
    22   10   30 1   
    23   11   18 1   
    24   12   13 1   
    25   12   29 1   
    26   12   31 1   
    27   13   15 1   
    28   13   26 1   
    29   14   18 1   
    30   15   17 1   
    31   16   18 1   
    32   16   27 1   
    33   16   28 1   
    34   16   39 1   
    35   17   21 1   
    36   19   22 1   
    37   19   24 1   
    38   19   25 1   
    39   20   35 1   
    40   20   37 1   
    41   32   33 1   
    42   38   40 1   
    43   40   41 1   
@<TRIPOS>SUBSTRUCTURE
     1 HUW         1 TEMP              0 ****  ****    0 ROOT
