@<TRIPOS>MOLECULE
HUX
   41    42     1     0     0
SMALL
bcc


@<TRIPOS>ATOM
      1 CL1         2.0390    5.1440    0.3190 cl        1 HUX      0.439000
      2 C1          2.2240    3.6830   -0.1180 c1        1 HUX     -0.048000
      3 N1          4.0330    1.8560    1.4150 n2        1 HUX     -0.188000
      4 C3          3.6700    1.6470    0.0380 c3        1 HUX      0.068000
      5 C4          4.5360    0.8480    2.0440 c2        1 HUX      0.024000
      6 C14         3.8640   -0.8410    0.3480 c2        1 HUX      0.260000
      7 C2          2.4280    2.4450   -0.4580 c2        1 HUX      0.063000
      8 C17         1.6720    1.5560   -1.3150 c2        1 HUX     -0.241000
      9 C15         3.2930    0.2240   -0.3340 c2        1 HUX     -0.363000
     10 C5          7.1800   -2.6940    4.8240 c2        1 HUX     -0.178000
     11 C13         4.7520   -0.5020    1.4870 c2        1 HUX     -0.216000
     12 C6          7.3430   -2.2260    3.5820 c2        1 HUX     -0.101000
     13 C7          8.2380   -2.8650    2.6210 c2        1 HUX     -0.185000
     14 C12         6.6020   -1.0210    3.0960 c3        1 HUX     -0.127000
     15 C8          9.4640   -2.4320    2.2860 c2        1 HUX     -0.058000
     16 C9         10.0990   -1.2250    2.8660 c3        1 HUX     -0.194000
     17 C18        10.2980   -3.1800    1.2980 c3        1 HUX     -0.140000
     18 C11         5.7000   -1.3360    1.9640 c2        1 HUX      0.011000
     19 C10        10.3030   -2.5190   -0.0590 c3        1 HUX     -0.206000
     20 C16         2.1860    0.2780   -1.2370 c2        1 HUX      0.070000
     21 HN21        5.8820   -2.3230    1.4950 ha        1 HUX      0.148000
     22 HN22        3.9710   -2.8720    0.5920 hn        1 HUX      0.250000
     23 HC2         4.5190    2.0080   -0.6260 h1        1 HUX      0.158000
     24 H17         0.8180    1.8860   -1.9080 ha        1 HUX      0.180000
     25 HC51        4.8490    1.0140    3.0960 h4        1 HUX      0.182000
     26 HC52        7.7350   -3.5670    5.1950 ha        1 HUX      0.127000
     27 HC6         6.4940   -2.2330    5.5470 ha        1 HUX      0.127000
     28 HC7         7.8390   -3.7950    2.1770 ha        1 HUX      0.127000
     29 H121        7.3540   -0.2510    2.7530 hc        1 HUX      0.121000
     30 H122        6.0190   -0.5610    3.9420 hc        1 HUX      0.121000
     31 HC91        9.4130   -0.6920    3.5700 hc        1 HUX      0.089333
     32 HC92       11.0210   -1.5170    3.4310 hc        1 HUX      0.089333
     33 H181       11.3510   -3.2430    1.6860 hc        1 HUX      0.094500
     34 H182        9.9220   -4.2340    1.1950 hc        1 HUX      0.094500
     35 H11        10.3990   -0.5170    2.0530 hc        1 HUX      0.089333
     36 H101       10.7060   -1.4800    0.0060 hc        1 HUX      0.076333
     37 H102        9.2700   -2.4710   -0.4810 hc        1 HUX      0.076333
     38 H103       10.9450   -3.1030   -0.7630 hc        1 HUX      0.076333
     39 H16         1.7790   -0.5870   -1.7720 ha        1 HUX      0.164000
     40 N2          3.5990   -2.1330    0.0450 n3        1 HUX     -0.332000
     41 H23         2.9960   -2.3580   -0.7090 hn        1 HUX      0.250000
@<TRIPOS>BOND
     1    1    2 1   
     2    2    7 1   
     3    3    4 1   
     4    3    5 1   
     5    4    7 1   
     6    4    9 1   
     7    4   23 1   
     8    5   11 1   
     9    5   25 1   
    10    6    9 1   
    11    6   11 1   
    12    6   40 1   
    13    7    8 1   
    14    8   20 1   
    15    8   24 1   
    16    9   20 1   
    17   10   12 1   
    18   10   26 1   
    19   10   27 1   
    20   11   18 1   
    21   12   13 1   
    22   12   14 1   
    23   13   15 1   
    24   13   28 1   
    25   14   18 1   
    26   14   29 1   
    27   14   30 1   
    28   15   16 1   
    29   15   17 1   
    30   16   31 1   
    31   16   32 1   
    32   16   35 1   
    33   17   19 1   
    34   17   33 1   
    35   17   34 1   
    36   18   21 1   
    37   19   36 1   
    38   19   37 1   
    39   19   38 1   
    40   20   39 1   
    41   22   40 1   
    42   40   41 1   
@<TRIPOS>SUBSTRUCTURE
     1 HUX         1 TEMP              0 ****  ****    0 ROOT
