@<TRIPOS>MOLECULE
HUX
   40    41     1     0     0
SMALL
bcc


@<TRIPOS>ATOM
      1 CL1         1.2650   -1.0870    2.1340 cl        1 HUX     -0.010000
      2 C1          1.3570    0.4160    1.3720 c2        1 HUX     -0.124000
      3 N1          4.3010   -0.0790    2.0240 n2        1 HUX     -0.167000
      4 C3          3.8240    0.4100    0.9210 c2        1 HUX      0.073000
      5 C4          5.6630   -0.5810    2.0430 c3        1 HUX     -0.004000
      6 C14         5.9240    0.1850   -0.3220 c2        1 HUX      0.111000
      7 C2          2.4640    0.9750    0.8780 c2        1 HUX     -0.135000
      8 C17         4.2410    1.1060   -2.7320 c1        1 HUX      0.154000
      9 C15         4.5660    0.4400   -0.3510 c2        1 HUX     -0.176000
     10 C5          6.2390   -0.4360    3.4610 c3        1 HUX     -0.131000
     11 C13         6.5810    0.0190    0.9960 c2        1 HUX     -0.129000
     12 C6          7.7080   -0.8290    3.4970 c3        1 HUX      0.007000
     13 C7          7.9180   -2.2130    3.1670 c1        1 HUX     -0.167000
     14 C12         8.4960    0.1090    2.5900 c3        1 HUX     -0.126000
     15 C8          8.1050   -3.3690    2.9170 c1        1 HUX     -0.159000
     16 C9          8.7690    1.0680    0.3270 c3        1 HUX     -0.195000
     17 C18         8.3390   -4.7510    2.6250 c3        1 HUX     -0.051000
     18 C11         7.8560    0.3670    1.2670 c2        1 HUX     -0.055000
     19 C10         7.0780   -5.4800    2.2150 c3        1 HUX     -0.208000
     20 C16         3.8220    0.6460   -1.5700 c2        1 HUX     -0.400000
     21 HN21        6.1890   -0.0870   -2.3210 hn        1 HUX      0.206000
     22 HN22        7.5550   -0.3690   -1.3900 hn        1 HUX      0.206000
     23 HC2         2.4100    1.9610    0.3840 ha        1 HUX      0.150000
     24 H17         0.3740    0.9070    1.3060 h4        1 HUX      0.147000
     25 HC51        5.6040   -1.6960    1.8230 h1        1 HUX      0.116000
     26 HC52        6.1470    0.6250    3.8120 hc        1 HUX      0.101500
     27 HC6         5.6510   -1.0830    4.1620 hc        1 HUX      0.101500
     28 HC7         8.0810   -0.6780    4.5570 hc        1 HUX      0.107000
     29 H121        9.5250   -0.3100    2.4200 hc        1 HUX      0.099500
     30 H122        8.6180    1.0950    3.1190 hc        1 HUX      0.099500
     31 HC91        9.5530    1.6310    0.8960 hc        1 HUX      0.090333
     32 HC92        8.2220    1.8070   -0.3090 hc        1 HUX      0.090333
     33 H181        9.1020   -4.8290    1.8000 hc        1 HUX      0.095500
     34 H182        8.7810   -5.2500    3.5330 hc        1 HUX      0.095500
     35 H11         9.2960    0.3340   -0.3330 hc        1 HUX      0.090333
     36 H101        6.6360   -5.0210    1.2990 hc        1 HUX      0.079000
     37 H102        7.3140   -6.5500    1.9990 hc        1 HUX      0.079000
     38 H103        6.3160   -5.4410    3.0300 hc        1 HUX      0.079000
     39 H16         2.7390    0.3840   -1.5110 ha        1 HUX      0.195000
     40 N2          6.6850    0.1050   -1.4770 n3        1 HUX     -0.338000
@<TRIPOS>BOND
     1    1    2 1   
     2    2    7 1   
     3    2   24 1   
     4    3    4 1   
     5    3    5 1   
     6    4    7 1   
     7    4    9 1   
     8    5   10 1   
     9    5   11 1   
    10    5   25 1   
    11    6    9 1   
    12    6   11 1   
    13    6   40 1   
    14    7   23 1   
    15    8   20 1   
    16    9   20 1   
    17   10   12 1   
    18   10   26 1   
    19   10   27 1   
    20   11   18 1   
    21   12   13 1   
    22   12   14 1   
    23   12   28 1   
    24   13   15 1   
    25   14   18 1   
    26   14   29 1   
    27   14   30 1   
    28   15   17 1   
    29   16   18 1   
    30   16   31 1   
    31   16   32 1   
    32   16   35 1   
    33   17   19 1   
    34   17   33 1   
    35   17   34 1   
    36   19   36 1   
    37   19   37 1   
    38   19   38 1   
    39   20   39 1   
    40   21   40 1   
    41   22   40 1   
@<TRIPOS>SUBSTRUCTURE
     1 HUX         1 TEMP              0 ****  ****    0 ROOT
