@<TRIPOS>MOLECULE
HUX
   40    40     1     0     0
SMALL
bcc


@<TRIPOS>ATOM
      1 Cl1        -1.0880   -1.1490    1.1700 cl        1 HUX      0.164000
      2 C1          0.3690   -0.5000    1.1860 c1        1 HUX     -0.188000
      3 N1          3.6160    0.0150    2.2370 n2        1 HUX     -0.205000
      4 C3          2.7700    0.6090    1.2170 c3        1 HUX      0.094000
      5 C4          4.8860   -0.0560    2.0330 c2        1 HUX     -0.009000
      6 C14         4.8490    0.8130   -0.2570 c2        1 HUX      0.238000
      7 C2          1.4590   -0.0070    1.1880 c1        1 HUX     -0.123000
      8 C17         1.9980    2.2300   -1.7760 c1        1 HUX     -0.169000
      9 C15         3.3480    0.5740   -0.2380 c3        1 HUX     -0.027000
     10 C5          7.7930    0.1500    4.0260 c2        1 HUX     -0.225000
     11 C13         5.6290    0.3950    0.8590 c2        1 HUX     -0.276000
     12 C6          7.9070   -0.5260    2.8760 c2        1 HUX     -0.100000
     13 C7          7.8260   -1.9850    2.8440 c2        1 HUX     -0.140000
     14 C12         8.1120    0.1670    1.5650 c3        1 HUX     -0.093000
     15 C8          8.8340   -2.8170    2.5380 c2        1 HUX     -0.099000
     16 C9         10.2010   -2.3570    2.1970 c3        1 HUX     -0.182000
     17 C18         8.6350   -4.2960    2.5440 c3        1 HUX     -0.128000
     18 C11         6.9920    0.4900    0.7200 c1        1 HUX     -0.254000
     19 C10         8.8180   -4.9030    1.1740 c3        1 HUX     -0.207000
     20 C16         2.6250    1.4850   -1.0810 c1        1 HUX     -0.196000
     21 HN21        6.4230    1.4310   -1.3500 hn        1 HUX      0.259500
     22 HN22        4.8890    1.6300   -2.1300 hn        1 HUX      0.259500
     23 HC2         2.6280    1.7010    1.5040 h1        1 HUX      0.125000
     24 H17         1.4350    2.8900   -2.3890 ha        1 HUX      0.231000
     25 HC51        5.4940   -0.4800    2.8620 h4        1 HUX      0.170000
     26 HC52        7.6450   -0.3500    4.9910 ha        1 HUX      0.112500
     27 HC6         7.8430    1.2450    4.0680 ha        1 HUX      0.112500
     28 HC7         6.8310   -2.3920    3.1020 ha        1 HUX      0.126000
     29 H121        8.8080   -0.4670    0.9360 hc        1 HUX      0.119500
     30 H122        8.6480    1.1470    1.7440 hc        1 HUX      0.119500
     31 HC91       10.3630   -1.2950    2.5080 hc        1 HUX      0.081667
     32 HC92       10.9670   -2.9960    2.7030 hc        1 HUX      0.081667
     33 H181        9.3730   -4.7560    3.2570 hc        1 HUX      0.083500
     34 H182        7.6090   -4.5490    2.9250 hc        1 HUX      0.083500
     35 H11        10.3620   -2.4290    1.0910 hc        1 HUX      0.081667
     36 H101        8.0880   -4.4690    0.4500 hc        1 HUX      0.073333
     37 H102        8.6580   -6.0070    1.2200 hc        1 HUX      0.073333
     38 H103        9.8500   -4.7100    0.7920 hc        1 HUX      0.073333
     39 H16         3.2070   -0.4810   -0.6360 hc        1 HUX      0.151000
     40 N2          5.4230    1.3420   -1.3470 n8        1 HUX     -0.290000
@<TRIPOS>BOND
     1    1    2 1   
     2    2    7 1   
     3    3    4 1   
     4    3    5 1   
     5    4    7 1   
     6    4    9 1   
     7    4   23 1   
     8    5   11 1   
     9    5   25 1   
    10    6    9 1   
    11    6   11 1   
    12    6   40 1   
    13    8   20 1   
    14    8   24 1   
    15    9   20 1   
    16    9   39 1   
    17   10   12 1   
    18   10   26 1   
    19   10   27 1   
    20   11   18 1   
    21   12   13 1   
    22   12   14 1   
    23   13   15 1   
    24   13   28 1   
    25   14   18 1   
    26   14   29 1   
    27   14   30 1   
    28   15   16 1   
    29   15   17 1   
    30   16   31 1   
    31   16   32 1   
    32   16   35 1   
    33   17   19 1   
    34   17   33 1   
    35   17   34 1   
    36   19   36 1   
    37   19   37 1   
    38   19   38 1   
    39   21   40 1   
    40   22   40 1   
@<TRIPOS>SUBSTRUCTURE
     1 HUX         1 TEMP              0 ****  ****    0 ROOT
