@<TRIPOS>MOLECULE
HUX
   40    43     1     0     0
SMALL
bcc


@<TRIPOS>ATOM
      1 CL1        -0.6010    0.4000    5.5920 cl        1 HUX     -0.092400
      2 C1         -0.1680   -0.0400    4.0070 ca        1 HUX      0.029400
      3 N1         -1.5580    0.0500    0.6160 nb        1 HUX     -0.707000
      4 C3         -0.6620   -0.1850    1.6290 ca        1 HUX      0.439600
      5 C4         -1.2310   -0.3050   -0.6270 ca        1 HUX      0.487600
      6 C14         0.9690   -1.1260    0.0480 ca        1 HUX      0.200600
      7 C2         -1.0340    0.1880    2.9650 ca        1 HUX     -0.170300
      8 C17         1.0940   -0.6470    3.7910 ca        1 HUX     -0.140000
      9 C15         0.6160   -0.7790    1.4080 ca        1 HUX     -0.189300
     10 C5         -2.2800   -0.0440   -1.6820 c3        1 HUX     -0.126700
     11 C13         0.0250   -0.9090   -0.9700 ca        1 HUX     -0.265600
     12 C6         -1.7840   -0.2320   -3.1080 c3        1 HUX     -0.030500
     13 C7         -0.9820    0.9410   -3.5590 c2        1 HUX     -0.165200
     14 C12        -0.9590   -1.5060   -3.1770 c3        1 HUX     -0.070400
     15 C8          0.3590    0.9550   -3.5480 c2        1 HUX     -0.109400
     16 C9          1.1640   -0.2110   -3.0830 c3        1 HUX     -0.037200
     17 C18         1.1420    2.1310   -4.0210 c3        1 HUX     -0.043200
     18 C11         0.3240   -1.2840   -2.3870 c3        1 HUX     -0.005400
     19 C10         1.6090    3.0010   -2.8780 c3        1 HUX     -0.088100
     20 C16         1.4690   -1.0060    2.5200 ca        1 HUX     -0.095000
     21 HN21        2.9150   -1.5600    0.4520 hn        1 HUX      0.404800
     22 HN22        2.5080   -1.6660   -1.1610 hn        1 HUX      0.404800
     23 HC2        -2.0190    0.6530    3.1320 ha        1 HUX      0.165000
     24 H17         1.7620   -0.8290    4.6470 ha        1 HUX      0.148000
     25 HC51       -2.6800    1.0000   -1.5650 hc        1 HUX      0.068700
     26 HC52       -3.1330   -0.7540   -1.5000 hc        1 HUX      0.068700
     27 HC6        -2.6820   -0.3320   -3.7810 hc        1 HUX      0.058700
     28 HC7        -1.5630    1.8120   -3.8990 ha        1 HUX      0.126000
     29 H121       -1.5350   -2.3640   -2.7470 hc        1 HUX      0.050200
     30 H122       -0.7080   -1.7510   -4.2400 hc        1 HUX      0.050200
     31 HC91        1.6710   -0.6720   -3.9750 hc        1 HUX      0.045200
     32 HC92        1.9680    0.1540   -2.3910 hc        1 HUX      0.045200
     33 H181        0.5170    2.7480   -4.7210 hc        1 HUX      0.043700
     34 H182        2.0330    1.7710   -4.6030 hc        1 HUX      0.043700
     35 H11         0.8950   -2.2560   -2.4090 hc        1 HUX      0.053700
     36 H101        2.1890    3.8700   -3.2710 hc        1 HUX      0.035367
     37 H102        0.7380    3.3890   -2.2970 hc        1 HUX      0.035367
     38 H103        2.2640    2.4240   -2.1820 hc        1 HUX      0.035367
     39 H16         2.4470   -1.4920    2.3880 ha        1 HUX      0.130000
     40 N2          2.1980   -1.7190   -0.2180 nh        1 HUX     -0.831200
@<TRIPOS>BOND
     1    1    2 1   
     2    2    7 ar  
     3    2    8 ar  
     4    3    4 ar  
     5    3    5 ar  
     6    4    7 ar  
     7    4    9 ar  
     8    5   10 1   
     9    5   11 ar  
    10    6    9 ar  
    11    6   11 ar  
    12    6   40 1   
    13    7   23 1   
    14    8   20 ar  
    15    8   24 1   
    16    9   20 ar  
    17   10   12 1   
    18   10   25 1   
    19   10   26 1   
    20   11   18 1   
    21   12   13 1   
    22   12   14 1   
    23   12   27 1   
    24   13   15 2   
    25   13   28 1   
    26   14   18 1   
    27   14   29 1   
    28   14   30 1   
    29   15   16 1   
    30   15   17 1   
    31   16   18 1   
    32   16   31 1   
    33   16   32 1   
    34   17   19 1   
    35   17   33 1   
    36   17   34 1   
    37   18   35 1   
    38   19   36 1   
    39   19   37 1   
    40   19   38 1   
    41   20   39 1   
    42   21   40 1   
    43   22   40 1   
@<TRIPOS>SUBSTRUCTURE
     1 HUX         1 TEMP              0 ****  ****    0 ROOT
