@<TRIPOS>MOLECULE
HUX
   40    39     1     0     0
SMALL
bcc


@<TRIPOS>ATOM
      1 CL1        -6.7740    0.5350   -1.5870 cl        1 HUX     -0.014000
      2 C1         -5.0480    0.7820   -1.5610 c2        1 HUX     -0.049000
      3 N1         -2.2850    0.8840    0.9120 n1        1 HUX     -0.181000
      4 C3         -2.9710    0.7900   -0.3170 c1        1 HUX      0.045000
      5 C4         -0.9270    0.8680    0.9370 c1        1 HUX      0.066000
      6 N2         -0.2520    0.5860   -2.7980 n3        1 HUX     -0.340000
      7 C14        -0.8340    0.6620   -1.5040 c2        1 HUX      0.119000
      8 C2         -4.3690    0.8410   -0.3420 c2        1 HUX     -0.106000
      9 C17        -4.3280    0.6720   -2.7650 c1        1 HUX     -0.140000
     10 C15        -2.2480    0.6800   -1.5240 c2        1 HUX     -0.121000
     11 C5         -0.1190    1.0760    2.2450 c2        1 HUX     -0.111000
     12 C13        -0.1710    0.7520   -0.3210 c2        1 HUX     -0.197000
     13 C6          1.3660    1.0100    2.1250 c3        1 HUX     -0.072000
     14 C7          1.7700   -0.4630    2.2200 c2        1 HUX     -0.167000
     15 C12         1.9360    1.5180    0.9180 c3        1 HUX     -0.151000
     16 C8          1.9580   -1.2350    1.0100 c1        1 HUX     -0.095000
     17 C9          2.1860   -0.4020   -0.5630 c2        1 HUX     -0.124000
     18 C18         2.0720   -2.7420    1.0880 c3        1 HUX     -0.127000
     19 C11         1.4330    1.0170   -0.2650 c3        1 HUX     -0.046000
     20 C10         3.5100   -3.1240    1.3640 c3        1 HUX     -0.207000
     21 C16        -2.9310    0.6210   -2.7430 c1        1 HUX     -0.094000
     22 HN21        0.5670    0.9610   -2.9530 hn        1 HUX      0.200000
     23 HN22       -0.6870    0.1420   -3.4690 hn        1 HUX      0.200000
     24 HC2        -4.8690    0.9090    0.4930 ha        1 HUX      0.165000
     25 H17        -4.8040    0.6210   -3.6150 ha        1 HUX      0.147000
     26 HC51       -0.4010    0.3930    2.8870 ha        1 HUX      0.107500
     27 HC52       -0.3540    1.9520    2.6090 ha        1 HUX      0.107500
     28 HC6         1.7590    1.4910    2.8790 hc        1 HUX      0.097000
     29 HC7         1.9890   -0.8540    3.0880 ha        1 HUX      0.125000
     30 H121        1.8110    2.4920    0.9110 hc        1 HUX      0.088000
     31 H122        2.9000    1.3340    0.9390 hc        1 HUX      0.088000
     32 HC91        2.0050   -0.9340   -1.3640 ha        1 HUX      0.093000
     33 HC92        3.1310   -0.1910   -0.6950 ha        1 HUX      0.093000
     34 H181        1.5030   -3.0750    1.8090 hc        1 HUX      0.086500
     35 H182        1.7870   -3.1350    0.2390 hc        1 HUX      0.086500
     36 H11         1.6630    1.6410   -0.9810 hc        1 HUX      0.077000
     37 H101        3.6000   -4.1000    1.3320 hc        1 HUX      0.073333
     38 H102        3.7700   -2.8010    2.2520 hc        1 HUX      0.073333
     39 H103        4.0910   -2.7210    0.6860 hc        1 HUX      0.073333
     40 H16        -2.4340    0.5450   -3.5770 ha        1 HUX      0.130000
@<TRIPOS>BOND
     1    1    2 1   
     2    2    8 1   
     3    2    9 1   
     4    3    5 1   
     5    4    8 1   
     6    4   10 1   
     7    5   12 1   
     8    6    7 1   
     9    6   22 1   
    10    6   23 1   
    11    7   10 1   
    12    7   12 1   
    13    8   24 1   
    14    9   25 1   
    15   10   21 1   
    16   11   13 1   
    17   11   26 1   
    18   11   27 1   
    19   12   19 1   
    20   13   14 1   
    21   13   15 1   
    22   13   28 1   
    23   14   16 1   
    24   14   29 1   
    25   15   19 1   
    26   15   30 1   
    27   15   31 1   
    28   16   18 1   
    29   17   19 1   
    30   17   32 1   
    31   17   33 1   
    32   18   20 1   
    33   18   34 1   
    34   18   35 1   
    35   19   36 1   
    36   20   37 1   
    37   20   38 1   
    38   20   39 1   
    39   21   40 1   
@<TRIPOS>SUBSTRUCTURE
     1 HUX         1 TEMP              0 ****  ****    0 ROOT
