@<TRIPOS>MOLECULE
HV5
   21    20     1     0     0
SMALL
bcc


@<TRIPOS>ATOM
      1 N          -1.7090    0.3350   -0.9870 n3        1 HV5     -0.891800
      2 CA         -0.2980    0.1570   -1.0100 c3        1 HV5      0.031500
      3 CB          0.2350    0.1700    0.4050 c3        1 HV5     -0.031000
      4 CG1         0.0580    1.5510    0.9970 c3        1 HV5     -0.082433
      5 CG2        -0.5250   -0.8380    1.2390 c3        1 HV5     -0.082433
      6 CG3         1.7040   -0.1900    0.3940 c3        1 HV5     -0.082433
      7 C           0.0330   -1.1670   -1.6600 c         1 HV5      0.884600
      8 O           1.0020   -1.2500   -2.4600 o         1 HV5     -0.845300
      9 OXT        -0.6600   -2.1850   -1.4020 o         1 HV5     -0.845300
     10 HN1        -2.0990   -0.2410   -1.5840 hn        1 HV5      0.329800
     11 HN2        -1.9120    1.1980   -1.2170 hn        1 HV5      0.329800
     12 HA          0.1140    0.8820   -1.5200 h1        1 HV5      0.042700
     13 HG11        0.3890    2.2230    0.3640 hc        1 HV5      0.026922
     14 HG12        0.5640    1.6140    1.8340 hc        1 HV5      0.026922
     15 HG13       -0.8920    1.7100    1.1760 hc        1 HV5      0.026922
     16 HG21       -1.4870   -0.7320    1.0830 hc        1 HV5      0.026922
     17 HG22       -0.2510   -1.7440    0.9860 hc        1 HV5      0.026922
     18 HG23       -0.3300   -0.6900    2.1880 hc        1 HV5      0.026922
     19 HG31        2.0880   -0.0220    1.2800 hc        1 HV5      0.026922
     20 HG32        1.8070   -1.1380    0.1670 hc        1 HV5      0.026922
     21 HG33        2.1700    0.3570   -0.2730 hc        1 HV5      0.026922
@<TRIPOS>BOND
     1    1    2 1   
     2    1   10 1   
     3    1   11 1   
     4    2    3 1   
     5    2    7 1   
     6    2   12 1   
     7    3    4 1   
     8    3    5 1   
     9    3    6 1   
    10    4   13 1   
    11    4   14 1   
    12    4   15 1   
    13    5   16 1   
    14    5   17 1   
    15    5   18 1   
    16    6   19 1   
    17    6   20 1   
    18    6   21 1   
    19    7    8 1   
    20    7    9 1   
@<TRIPOS>SUBSTRUCTURE
     1 HV5         1 TEMP              0 ****  ****    0 ROOT
