@<TRIPOS>MOLECULE
HV5
   21    20     1     0     0
SMALL
bcc


@<TRIPOS>ATOM
      1 N           1.8750   -0.6790    0.2160 n3        1 HV5     -0.891800
      2 CA          0.4300   -0.6320    0.0140 c3        1 HV5      0.031500
      3 CB         -0.3100    0.0990    1.1630 c3        1 HV5     -0.031000
      4 CG1        -0.0160   -0.5800    2.4940 c3        1 HV5     -0.082433
      5 CG2        -1.8080    0.0170    0.9000 c3        1 HV5     -0.082433
      6 CG3         0.1120    1.5580    1.2340 c3        1 HV5     -0.082433
      7 C           0.0390   -0.0090   -1.3680 c         1 HV5      0.884600
      8 O           0.7590    0.9290   -1.8210 o         1 HV5     -0.845300
      9 OXT        -0.9550   -0.4950   -1.9750 o         1 HV5     -0.845300
     10 HN1         2.2140    0.2670    0.2540 hn        1 HV5      0.329800
     11 HN2         2.2770   -1.0890   -0.6100 hn        1 HV5      0.329800
     12 HA          0.0640   -1.7000    0.0130 h1        1 HV5      0.042700
     13 HG11       -0.6270   -0.1160    3.3060 hc        1 HV5      0.026922
     14 HG12       -0.2660   -1.6660    2.4360 hc        1 HV5      0.026922
     15 HG13        1.0620   -0.4790    2.7640 hc        1 HV5      0.026922
     16 HG21       -2.1360   -1.0490    0.8740 hc        1 HV5      0.026922
     17 HG22       -2.3730    0.5470    1.7040 hc        1 HV5      0.026922
     18 HG23       -2.0490    0.4790   -0.0890 hc        1 HV5      0.026922
     19 HG31        1.1290    1.6560    1.6850 hc        1 HV5      0.026922
     20 HG32        0.1360    1.9930    0.2020 hc        1 HV5      0.026922
     21 HG33       -0.6040    2.1410    1.8630 hc        1 HV5      0.026922
@<TRIPOS>BOND
     1    1    2 1   
     2    1   10 1   
     3    1   11 1   
     4    2    3 1   
     5    2    7 1   
     6    2   12 1   
     7    3    4 1   
     8    3    5 1   
     9    3    6 1   
    10    4   13 1   
    11    4   14 1   
    12    4   15 1   
    13    5   16 1   
    14    5   17 1   
    15    5   18 1   
    16    6   19 1   
    17    6   20 1   
    18    6   21 1   
    19    7    8 1   
    20    7    9 1   
@<TRIPOS>SUBSTRUCTURE
     1 HV5         1 TEMP              0 ****  ****    0 ROOT
