@<TRIPOS>MOLECULE
HV7
   23    23     1     0     0
SMALL
bcc


@<TRIPOS>ATOM
      1 N           0.8590   -0.7100   -0.6380 n4        1 HV7     -0.846600
      2 CB          1.0560    0.5580    0.1440 c3        1 HV7      0.202100
      3 CG          1.5630    0.2790    1.5090 ca        1 HV7     -0.272300
      4 CD1         2.8380   -0.3020    1.6880 ca        1 HV7      0.181100
      5 CE1         3.3830   -0.4890    2.9570 ca        1 HV7     -0.237000
      6 CD2         0.8330    0.6570    2.6430 ca        1 HV7     -0.015000
      7 CE2         1.3510    0.4820    3.9180 ca        1 HV7     -0.231000
      8 CZ          2.6300   -0.0860    4.0780 ca        1 HV7      0.223100
      9 OE          3.2390   -0.3020    5.2810 os        1 HV7     -0.302900
     10 CM          2.5290    0.1070    6.4540 c3        1 HV7      0.104700
     11 OH          3.4890   -0.7010    0.5410 oh        1 HV7     -0.552100
     12 HN1         0.1970   -1.3230   -0.1550 hn        1 HV7      0.459467
     13 HN2         0.5090   -0.5000   -1.5750 hn        1 HV7      0.459467
     14 HB1         0.0680    1.1000    0.1750 hx        1 HV7      0.109200
     15 HB2         1.8080    1.1770   -0.4300 hx        1 HV7      0.109200
     16 HE1         4.3790   -0.9340    3.0990 ha        1 HV7      0.178000
     17 HD2        -0.1630    1.1150    2.5230 ha        1 HV7      0.148000
     18 HE2         0.7640    0.7940    4.7940 ha        1 HV7      0.167000
     19 HM1         2.3430    1.2080    6.4320 h1        1 HV7      0.064367
     20 HM2         3.2370   -0.1620    7.2800 h1        1 HV7      0.064367
     21 HM3         1.5730   -0.4610    6.5470 h1        1 HV7      0.064367
     22 HOH         4.4000   -0.9500    0.7690 ho        1 HV7      0.464000
     23 HN3         1.7610   -1.2000   -0.7130 hn        1 HV7      0.459467
@<TRIPOS>BOND
     1    1    2 1   
     2    1   12 1   
     3    1   13 1   
     4    1   23 1   
     5    2    3 1   
     6    2   14 1   
     7    2   15 1   
     8    3    4 ar  
     9    3    6 ar  
    10    4    5 ar  
    11    4   11 1   
    12    5    8 ar  
    13    5   16 1   
    14    6    7 ar  
    15    6   17 1   
    16    7    8 ar  
    17    7   18 1   
    18    8    9 1   
    19    9   10 1   
    20   10   19 1   
    21   10   20 1   
    22   10   21 1   
    23   11   22 1   
@<TRIPOS>SUBSTRUCTURE
     1 HV7         1 TEMP              0 ****  ****    0 ROOT
