@<TRIPOS>MOLECULE
HV7
   22    20     1     0     0
SMALL
bcc


@<TRIPOS>ATOM
      1 N          -0.0350   -0.4780   -3.5140 n3        1 HV7     -0.333000
      2 CB         -0.9660   -0.0910   -2.5670 c3        1 HV7     -0.029000
      3 CG         -0.3310   -0.1030   -1.2210 c2        1 HV7     -0.179000
      4 CD1         0.0830    1.0880   -0.6320 c2        1 HV7      0.112000
      5 CE1         0.5640    1.0870    0.7180 c1        1 HV7     -0.244000
      6 CD2        -0.2770   -1.3070   -0.4940 c1        1 HV7     -0.057000
      7 CE2         0.1980   -1.3150    0.8410 c1        1 HV7     -0.236000
      8 CZ          0.6170   -0.1200    1.4430 c1        1 HV7      0.117000
      9 OE          1.1480   -0.1390    2.7380 os        1 HV7     -0.210000
     10 CM          0.1560   -0.1010    3.7730 c3        1 HV7     -0.076000
     11 OH         -0.0630    2.3320   -1.3450 oh        1 HV7     -0.258000
     12 HN1         0.6930    0.0780   -3.4690 hn        1 HV7      0.146000
     13 HN2         0.2360   -1.3660   -3.3420 hn        1 HV7      0.146000
     14 HB1        -1.2800    0.7860   -2.7690 h1        1 HV7      0.096000
     15 HB2        -1.7820   -0.7720   -2.5750 h1        1 HV7      0.096000
     16 HE1         0.8710    1.9700    1.1600 ha        1 HV7      0.152000
     17 HD2        -0.5630   -2.1240   -0.9030 ha        1 HV7      0.137000
     18 HE2         0.2330   -2.1230    1.3240 ha        1 HV7      0.140000
     19 HM1        -0.6010    0.4790    3.4870 h1        1 HV7      0.085667
     20 HM2         0.5720    0.2770    4.6330 h1        1 HV7      0.085667
     21 HM3        -0.1360   -0.9060    3.9210 h1        1 HV7      0.085667
     22 HOH         0.6630    2.8490   -1.2080 ho        1 HV7      0.224000
@<TRIPOS>BOND
     1    1    2 1   
     2    1   12 1   
     3    1   13 1   
     4    2    3 1   
     5    2   14 1   
     6    2   15 1   
     7    3    4 1   
     8    3    6 1   
     9    4    5 1   
    10    4   11 1   
    11    5   16 1   
    12    6   17 1   
    13    7    8 1   
    14    7   18 1   
    15    8    9 1   
    16    9   10 1   
    17   10   19 1   
    18   10   20 1   
    19   10   21 1   
    20   11   22 1   
@<TRIPOS>SUBSTRUCTURE
     1 HV7         1 TEMP              0 ****  ****    0 ROOT
