@<TRIPOS>MOLECULE
HV7
   23    23     1     0     0
SMALL
bcc


@<TRIPOS>ATOM
      1 N           0.8750   -0.7220   -0.6410 nz        1 HV7     -0.846600
      2 CB          1.0640    0.5490    0.1390 c3        1 HV7      0.202100
      3 CG          1.5660    0.2750    1.5060 ca        1 HV7     -0.272300
      4 CD1         2.8420   -0.3010    1.6930 ca        1 HV7      0.181100
      5 CE1         3.3820   -0.4830    2.9640 ca        1 HV7     -0.237000
      6 CD2         0.8300    0.6530    2.6360 ca        1 HV7     -0.015000
      7 CE2         1.3430    0.4830    3.9140 ca        1 HV7     -0.231000
      8 CZ          2.6230   -0.0800    4.0810 ca        1 HV7      0.223100
      9 OE          3.2280   -0.2900    5.2880 os        1 HV7     -0.302900
     10 CM          2.5110    0.1190    6.4560 c3        1 HV7      0.104700
     11 OH          3.5000   -0.6990    0.5500 oh        1 HV7     -0.552100
     12 HN1         0.2140   -1.3360   -0.1590 hn        1 HV7      0.459467
     13 HN2         0.5280   -0.5150   -1.5800 hn        1 HV7      0.459467
     14 HB1         1.8150    1.1700   -0.4340 hx        1 HV7      0.109200
     15 HB2         0.0730    1.0870    0.1650 hx        1 HV7      0.109200
     16 HE1         4.3800   -0.9230    3.1120 ha        1 HV7      0.178000
     17 HD2        -0.1670    1.1070    2.5110 ha        1 HV7      0.148000
     18 HE2         0.7510    0.7950    4.7870 ha        1 HV7      0.167000
     19 HM1         1.5570   -0.4530    6.5470 h1        1 HV7      0.064367
     20 HM2         2.3210    1.2190    6.4310 h1        1 HV7      0.064367
     21 HM3         3.2170   -0.1450    7.2850 h1        1 HV7      0.064367
     22 HOH         4.4110   -0.9440    0.7820 ho        1 HV7      0.464000
     23 HN3         1.7800   -1.2090   -0.7110 hn        1 HV7      0.459467
@<TRIPOS>BOND
     1    1    2 1   
     2    1   12 1   
     3    1   13 1   
     4    1   23 1   
     5    2    3 1   
     6    2   14 1   
     7    2   15 1   
     8    3    4 ar  
     9    3    6 ar  
    10    4    5 ar  
    11    4   11 1   
    12    5    8 ar  
    13    5   16 1   
    14    6    7 ar  
    15    6   17 1   
    16    7    8 ar  
    17    7   18 1   
    18    8    9 1   
    19    9   10 1   
    20   10   19 1   
    21   10   20 1   
    22   10   21 1   
    23   11   22 1   
@<TRIPOS>SUBSTRUCTURE
     1 HV7         1 TEMP              0 ****  ****    0 ROOT
