@<TRIPOS>MOLECULE
HV7
   23    23     1     0     0
SMALL
bcc


@<TRIPOS>ATOM
      1 N           0.8070   -0.6460   -0.6330 n4        1 HV7     -0.846600
      2 CB          1.1050    0.6080    0.1390 c3        1 HV7      0.202100
      3 CG          1.5880    0.3000    1.5060 ca        1 HV7     -0.272300
      4 CD1         2.8130   -0.3800    1.6910 ca        1 HV7      0.181100
      5 CE1         3.3410   -0.6000    2.9610 ca        1 HV7     -0.237000
      6 CD2         0.8920    0.7450    2.6370 ca        1 HV7     -0.015000
      7 CE2         1.3940    0.5390    3.9140 ca        1 HV7     -0.231000
      8 CZ          2.6230   -0.1290    4.0790 ca        1 HV7      0.223100
      9 OE          3.2130   -0.3830    5.2840 os        1 HV7     -0.302900
     10 CM          2.5390    0.0910    6.4530 c3        1 HV7      0.104700
     11 OH          3.4300   -0.8380    0.5470 oh        1 HV7     -0.552100
     12 HN1         0.0980   -1.2000   -0.1450 hn        1 HV7      0.459467
     13 HN2         0.4750   -0.4160   -1.5710 hn        1 HV7      0.459467
     14 HB1         1.9030    1.1610   -0.4400 hx        1 HV7      0.109200
     15 HB2         0.1630    1.2280    0.1660 hx        1 HV7      0.109200
     16 HE1         4.2990   -1.1220    3.1080 ha        1 HV7      0.178000
     17 HD2        -0.0640    1.2800    2.5130 ha        1 HV7      0.148000
     18 HE2         0.8340    0.9040    4.7870 ha        1 HV7      0.167000
     19 HM1         1.5400   -0.3980    6.5510 h1        1 HV7      0.064367
     20 HM2         2.4410    1.2030    6.4230 h1        1 HV7      0.064367
     21 HM3         3.2230   -0.2270    7.2810 h1        1 HV7      0.064367
     22 HOH         4.3180   -1.1570    0.7770 ho        1 HV7      0.464000
     23 HN3         1.6670   -1.2080   -0.7040 hn        1 HV7      0.459467
@<TRIPOS>BOND
     1    1    2 1   
     2    1   12 1   
     3    1   13 1   
     4    1   23 1   
     5    2    3 1   
     6    2   14 1   
     7    2   15 1   
     8    3    4 ar  
     9    3    6 ar  
    10    4    5 ar  
    11    4   11 1   
    12    5    8 ar  
    13    5   16 1   
    14    6    7 ar  
    15    6   17 1   
    16    7    8 ar  
    17    7   18 1   
    18    8    9 1   
    19    9   10 1   
    20   10   19 1   
    21   10   20 1   
    22   10   21 1   
    23   11   22 1   
@<TRIPOS>SUBSTRUCTURE
     1 HV7         1 TEMP              0 ****  ****    0 ROOT
