@<TRIPOS>MOLECULE
HV7
   22    22     1     0     0
SMALL
bcc


@<TRIPOS>ATOM
      1 N           1.5300    0.2060   -3.2990 n3        1 HV7     -0.913800
      2 CB          0.2520   -0.1800   -2.7490 c3        1 HV7      0.214100
      3 CG          0.1600   -0.1220   -1.2530 ca        1 HV7     -0.197300
      4 CD1        -1.1000   -0.0220   -0.6270 ca        1 HV7      0.153100
      5 CE1        -1.2220    0.0540    0.7660 ca        1 HV7     -0.187000
      6 CD2         1.2950   -0.1910   -0.4420 ca        1 HV7     -0.048000
      7 CE2         1.2030   -0.1200    0.9460 ca        1 HV7     -0.237000
      8 CZ         -0.0560    0.0120    1.5450 ca        1 HV7      0.154100
      9 OE         -0.2690    0.1020    2.9060 os        1 HV7     -0.324900
     10 CM          0.8910    0.0420    3.7290 c3        1 HV7      0.113700
     11 OH         -2.2920    0.0360   -1.3150 oh        1 HV7     -0.500100
     12 HN1         1.8490    1.0670   -2.9020 hn        1 HV7      0.354800
     13 HN2         1.4600    0.3030   -4.2920 hn        1 HV7      0.354800
     14 HB1         0.0580   -1.2450   -3.0760 h1        1 HV7      0.026700
     15 HB2        -0.5860    0.4560   -3.1770 h1        1 HV7      0.026700
     16 HE1        -2.2100    0.1440    1.2360 ha        1 HV7      0.166000
     17 HD2         2.2920   -0.3110   -0.8970 ha        1 HV7      0.150000
     18 HE2         2.1170   -0.1720    1.5530 ha        1 HV7      0.139000
     19 HM1         0.4790    0.1300    4.7660 h1        1 HV7      0.045033
     20 HM2         1.4200   -0.9330    3.5960 h1        1 HV7      0.045033
     21 HM3         1.5790    0.8940    3.5040 h1        1 HV7      0.045033
     22 HOH        -2.1480   -0.3090   -2.2080 ho        1 HV7      0.420000
@<TRIPOS>BOND
     1    1    2 1   
     2    1   12 1   
     3    1   13 1   
     4    2    3 1   
     5    2   14 1   
     6    2   15 1   
     7    3    4 ar  
     8    3    6 ar  
     9    4    5 ar  
    10    4   11 1   
    11    5    8 ar  
    12    5   16 1   
    13    6    7 ar  
    14    6   17 1   
    15    7    8 ar  
    16    7   18 1   
    17    8    9 1   
    18    9   10 1   
    19   10   19 1   
    20   10   20 1   
    21   10   21 1   
    22   11   22 1   
@<TRIPOS>SUBSTRUCTURE
     1 HV7         1 TEMP              0 ****  ****    0 ROOT
