@<TRIPOS>MOLECULE
HV8
   48    45     1     0     0
SMALL
bcc


@<TRIPOS>ATOM
      1 N          -2.0440   -1.6880    1.6680 n3        1 HV8     -0.352000
      2 CA1        -1.2940   -0.4800    2.0170 c3        1 HV8     -0.043000
      3 CB1        -0.8030   -0.5840    3.4150 c3        1 HV8     -0.120000
      4 CG1        -2.0080   -0.7880    4.3820 c2        1 HV8     -0.039000
      5 CD1        -2.4370   -2.0760    4.7100 c2        1 HV8     -0.102000
      6 CD2        -2.5730    0.3190    5.0180 c1        1 HV8     -0.140000
      7 CE1        -3.4350   -2.2510    5.6800 c1        1 HV8     -0.140000
      8 CE2        -3.5480    0.1480    5.9640 c1        1 HV8     -0.146000
      9 CZ1        -3.9890   -1.1480    6.3040 c1        1 HV8     -0.146000
     10 CM         -0.0980   -0.3200    1.0770 c3        1 HV8      0.020000
     11 OH          0.7880   -1.3820    1.2640 oh        1 HV8     -0.367000
     12 N2          0.2250    0.5980   -1.1590 n3        1 HV8     -0.280000
     13 CA2        -0.5860   -0.3070   -0.3800 c3        1 HV8     -0.144000
     14 CB2        -0.2110    0.5650   -2.5380 c3        1 HV8     -0.044000
     15 CG2         0.9380    0.9160   -3.4330 c2        1 HV8     -0.111000
     16 CD4         1.0500    2.2150   -3.9530 c2        1 HV8     -0.102000
     17 CE3         2.1210    2.5440   -4.7670 c1        1 HV8     -0.218000
     18 CD3         1.9110   -0.0530   -3.7370 c1        1 HV8     -0.089000
     19 CE4         2.9820    0.2750   -4.5500 c1        1 HV8     -0.156000
     20 CZ2         3.0970    1.5760   -5.0730 c1        1 HV8      0.054000
     21 OE2         4.1340    1.8800   -6.0120 os        1 HV8     -0.219000
     22 CM2         5.3200    2.4570   -5.4110 c3        1 HV8     -0.070000
     23 C          -0.4870   -1.7010   -0.9610 c2        1 HV8      0.293000
     24 O           0.7260   -2.3000   -1.0890 o         1 HV8     -0.571000
     25 OXT        -1.5450   -2.3130   -1.3440 o         1 HV8     -0.571000
     26 HN1        -2.6870   -1.4800    0.9820 hn        1 HV8      0.167000
     27 HN2A       -1.4510   -2.3490    1.3530 hn        1 HV8      0.167000
     28 HA1        -1.9040    0.3340    1.9300 h1        1 HV8      0.088000
     29 HB11       -0.1800   -1.3570    3.4920 hc        1 HV8      0.089000
     30 HB12       -0.2860    0.3190    3.6760 hc        1 HV8      0.089000
     31 HD1        -1.9770   -2.8170    4.3790 ha        1 HV8      0.151000
     32 HD2        -2.2030    1.1780    4.8800 ha        1 HV8      0.124000
     33 HE1        -3.7470   -3.1720    5.9200 ha        1 HV8      0.119000
     34 HE2        -3.9480    0.9480    6.4160 ha        1 HV8      0.114000
     35 HZ1        -4.7640   -1.2570    6.8840 ha        1 HV8      0.114000
     36 HM          0.3780    0.5560    1.2850 h1        1 HV8      0.089000
     37 HOH         1.5700   -1.0710    1.4790 ho        1 HV8      0.243000
     38 HN2         1.1770    0.3190   -1.1060 hn        1 HV8      0.158000
     39 HA2        -1.5540    0.0020   -0.4080 h1        1 HV8      0.098000
     40 HB21       -0.9170    1.1960   -2.6650 h1        1 HV8      0.091500
     41 HB22       -0.5210   -0.3010   -2.7480 h1        1 HV8      0.091500
     42 HD4         0.3590    2.9020   -3.7370 ha        1 HV8      0.122000
     43 HE3         2.2020    3.4950   -5.1480 ha        1 HV8      0.119000
     44 HD3         1.8310   -0.9620   -3.3700 ha        1 HV8      0.206000
     45 HE4         3.6390   -0.3780   -4.7560 ha        1 HV8      0.144000
     46 HM21        5.9950    2.6080   -6.1020 h1        1 HV8      0.072333
     47 HM22        5.6680    1.8560   -4.7530 h1        1 HV8      0.072333
     48 HM23        5.0860    3.3300   -4.9760 h1        1 HV8      0.072333
@<TRIPOS>BOND
     1    1    2 1   
     2    1   26 1   
     3    1   27 1   
     4    2    3 1   
     5    2   10 1   
     6    2   28 1   
     7    3    4 1   
     8    3   29 1   
     9    3   30 1   
    10    4    5 1   
    11    4    6 1   
    12    5    7 1   
    13    5   31 1   
    14    6   32 1   
    15    7   33 1   
    16    8    9 1   
    17    8   34 1   
    18    9   35 1   
    19   10   11 1   
    20   10   13 1   
    21   10   36 1   
    22   11   37 1   
    23   12   13 1   
    24   12   14 1   
    25   12   38 1   
    26   13   23 1   
    27   13   39 1   
    28   14   15 1   
    29   14   40 1   
    30   14   41 1   
    31   15   16 1   
    32   15   18 1   
    33   16   17 1   
    34   16   42 1   
    35   17   43 1   
    36   18   44 1   
    37   19   20 1   
    38   19   45 1   
    39   20   21 1   
    40   21   22 1   
    41   22   46 1   
    42   22   47 1   
    43   22   48 1   
    44   23   24 1   
    45   23   25 1   
@<TRIPOS>SUBSTRUCTURE
     1 HV8         1 TEMP              0 ****  ****    0 ROOT
