@<TRIPOS>MOLECULE
HV8
   48    49     1     0     0
SMALL
bcc


@<TRIPOS>ATOM
      1 N          -2.0020   -0.1520    1.5050 n3        1 HV8     -0.905800
      2 CA1        -2.1650    0.2920    0.1330 c3        1 HV8      0.166500
      3 CB1        -3.5850    0.1020   -0.4450 c3        1 HV8     -0.081100
      4 CG1        -4.0170   -1.3200   -0.4290 ca        1 HV8     -0.058300
      5 CD1        -4.8820   -1.7920    0.5660 ca        1 HV8     -0.132500
      6 CD2        -3.5620   -2.2090   -1.4130 ca        1 HV8     -0.132500
      7 CE1        -5.2890   -3.1250    0.5750 ca        1 HV8     -0.133000
      8 CE2        -3.9700   -3.5410   -1.4020 ca        1 HV8     -0.133000
      9 CZ1        -4.8350   -4.0020   -0.4090 ca        1 HV8     -0.147000
     10 CM         -1.7850    1.7830   -0.0680 c3        1 HV8      0.169100
     11 OH         -2.7550    2.5320    0.6540 oh        1 HV8     -0.663800
     12 N2          0.6300    1.2280   -0.0800 n3        1 HV8     -0.795200
     13 CA2        -0.3680    2.1600    0.4280 c3        1 HV8      0.019500
     14 CB2         1.9970    1.6320    0.1990 c3        1 HV8      0.197100
     15 CG2         2.9900    0.5110    0.0900 ca        1 HV8     -0.082300
     16 CD4         4.0660    0.6150   -0.8020 ca        1 HV8     -0.099500
     17 CE3         5.0200   -0.3920   -0.8890 ca        1 HV8     -0.182000
     18 CD3         2.8800   -0.6270    0.8940 ca        1 HV8     -0.099500
     19 CE4         3.8250   -1.6510    0.8210 ca        1 HV8     -0.182000
     20 CZ2         4.8940   -1.5290   -0.0720 ca        1 HV8      0.094100
     21 OE2         5.8970   -2.4750   -0.2300 os        1 HV8     -0.338900
     22 CM2         5.7560   -3.6590    0.5400 c3        1 HV8      0.118700
     23 C          -0.0910    3.6580    0.0520 c         1 HV8      0.921600
     24 O           1.0130    4.1640    0.3840 o         1 HV8     -0.837800
     25 OXT        -1.0280    4.3010   -0.5060 o         1 HV8     -0.837800
     26 HN1        -2.1720    0.6110    2.1340 hn        1 HV8      0.344300
     27 HN2A       -2.6550   -0.8850    1.7090 hn        1 HV8      0.344300
     28 HA1        -1.4700   -0.3400   -0.4970 h1        1 HV8      0.060700
     29 HB11       -4.3030    0.7400    0.1350 hc        1 HV8      0.063700
     30 HB12       -3.5800    0.4810   -1.5020 hc        1 HV8      0.063700
     31 HD1        -5.2430   -1.1020    1.3440 ha        1 HV8      0.134500
     32 HD2        -2.8740   -1.8470   -2.1910 ha        1 HV8      0.134500
     33 HE1        -5.9680   -3.4850    1.3600 ha        1 HV8      0.121000
     34 HE2        -3.6060   -4.2310   -2.1770 ha        1 HV8      0.121000
     35 HZ1        -5.1550   -5.0530   -0.4020 ha        1 HV8      0.118000
     36 HM         -1.8620    2.0280   -1.1630 h1        1 HV8      0.057700
     37 HOH        -2.5620    3.4700    0.4810 ho        1 HV8      0.454000
     38 HN2         0.4580    0.3240    0.3310 hn        1 HV8      0.335800
     39 HA2        -0.3930    2.1520    1.5620 h1        1 HV8      0.016700
     40 HB21        2.2480    2.4520   -0.5370 h1        1 HV8      0.069700
     41 HB22        2.1060    2.0910    1.2290 h1        1 HV8      0.069700
     42 HD4         4.1530    1.5070   -1.4420 ha        1 HV8      0.140000
     43 HE3         5.8660   -0.3160   -1.5850 ha        1 HV8      0.129500
     44 HD3         2.0400   -0.7200    1.6000 ha        1 HV8      0.140000
     45 HE4         3.7170   -2.5360    1.4600 ha        1 HV8      0.129500
     46 HM21        5.7970   -3.4280    1.6330 h1        1 HV8      0.034700
     47 HM22        4.8020   -4.1850    0.2920 h1        1 HV8      0.034700
     48 HM23        6.6370   -4.2800    0.2380 h1        1 HV8      0.034700
@<TRIPOS>BOND
     1    1    2 1   
     2    1   26 1   
     3    1   27 1   
     4    2    3 1   
     5    2   10 1   
     6    2   28 1   
     7    3    4 1   
     8    3   29 1   
     9    3   30 1   
    10    4    5 ar  
    11    4    6 ar  
    12    5    7 ar  
    13    5   31 1   
    14    6    8 ar  
    15    6   32 1   
    16    7    9 ar  
    17    7   33 1   
    18    8    9 ar  
    19    8   34 1   
    20    9   35 1   
    21   10   11 1   
    22   10   13 1   
    23   10   36 1   
    24   11   37 1   
    25   12   13 1   
    26   12   14 1   
    27   12   38 1   
    28   13   23 1   
    29   13   39 1   
    30   14   15 1   
    31   14   40 1   
    32   14   41 1   
    33   15   16 ar  
    34   15   18 ar  
    35   16   17 ar  
    36   16   42 1   
    37   17   20 ar  
    38   17   43 1   
    39   18   19 ar  
    40   18   44 1   
    41   19   20 ar  
    42   19   45 1   
    43   20   21 1   
    44   21   22 1   
    45   22   46 1   
    46   22   47 1   
    47   22   48 1   
    48   23   24 1   
    49   23   25 1   
@<TRIPOS>SUBSTRUCTURE
     1 HV8         1 TEMP              0 ****  ****    0 ROOT
