@<TRIPOS>MOLECULE
HVA
   19    18     1     0     0
SMALL
bcc


@<TRIPOS>ATOM
      1 N           0.0200    1.9060    0.5110 n3        1 HVA     -0.890800
      2 CA          0.0330    0.4560    0.6490 c3        1 HVA     -0.000500
      3 CB         -1.1930   -0.2110   -0.0300 c3        1 HVA      0.170800
      4 CG1        -1.1070   -1.7240    0.1500 c3        1 HVA     -0.095100
      5 CG2        -2.4990    0.3050    0.5650 c3        1 HVA     -0.095100
      6 OG3        -1.2450    0.1000   -1.4200 oh        1 HVA     -0.646800
      7 C           1.3390   -0.1860    0.0810 c         1 HVA      0.881600
      8 O           1.6080    0.0310   -1.1400 o         1 HVA     -0.840300
      9 OXT         2.0570   -0.8670    0.8600 o         1 HVA     -0.840300
     10 H           0.9550    2.2410    0.6670 hn        1 HVA      0.333800
     11 H2         -0.2170    2.1320   -0.4400 hn        1 HVA      0.333800
     12 HA         -0.0180    0.2270    1.7510 h1        1 HVA      0.053700
     13 HG11       -1.1770   -1.9830    1.2320 hc        1 HVA      0.031700
     14 HG12       -1.9400   -2.2200   -0.4020 hc        1 HVA      0.031700
     15 HG13       -0.1320   -2.1000   -0.2470 hc        1 HVA      0.031700
     16 HG21       -2.6490    1.3770    0.2970 hc        1 HVA      0.031700
     17 HG22       -3.3600   -0.2830    0.1670 hc        1 HVA      0.031700
     18 HG23       -2.4680    0.2050    1.6750 hc        1 HVA      0.031700
     19 HOG3       -0.3410   -0.0030   -1.7640 ho        1 HVA      0.446000
@<TRIPOS>BOND
     1    1    2 1   
     2    1   10 1   
     3    1   11 1   
     4    2    3 1   
     5    2    7 1   
     6    2   12 1   
     7    3    4 1   
     8    3    5 1   
     9    3    6 1   
    10    4   13 1   
    11    4   14 1   
    12    4   15 1   
    13    5   16 1   
    14    5   17 1   
    15    5   18 1   
    16    6   19 1   
    17    7    8 1   
    18    7    9 1   
@<TRIPOS>SUBSTRUCTURE
     1 HVA         1 TEMP              0 ****  ****    0 ROOT
