@<TRIPOS>MOLECULE
HW0
   58    60     1     0     0
SMALL
bcc


@<TRIPOS>ATOM
      1 N22         7.7400    3.0760   -0.9390 nh        1 HW0     -0.924500
      2 C22         7.5160    1.8690   -0.2580 ca        1 HW0      0.630200
      3 C23         8.3950    1.4980    0.8060 ca        1 HW0     -0.301300
      4 C24         8.2290    0.2560    1.4040 ca        1 HW0     -0.060000
      5 C25         7.2140   -0.5930    0.9640 ca        1 HW0     -0.292300
      6 N21         6.5040    1.0470   -0.6810 nb        1 HW0     -0.726000
      7 C26         6.3740   -0.1570   -0.0820 ca        1 HW0      0.450600
      8 C14         5.2780   -1.0750   -0.5540 c3        1 HW0     -0.130700
      9 C13         3.9080   -0.5440   -0.1830 c3        1 HW0     -0.074400
     10 C12         2.8240   -1.5140   -0.6070 c3        1 HW0     -0.079400
     11 C11         1.4540   -0.9900   -0.2350 c3        1 HW0     -0.083400
     12 C10         0.3770   -1.9680   -0.6700 c3        1 HW0      0.129400
     13 O09        -0.8720   -1.3980   -0.2780 os        1 HW0     -0.415600
     14 C4'        -1.9780   -2.2390   -0.5830 c3        1 HW0      0.116100
     15 C5'        -2.0860   -3.4090    0.4320 c3        1 HW0      0.112800
     16 N1'        -3.4250   -3.4280    1.0080 n3        1 HW0     -0.788200
     17 C2'        -4.0500   -2.1400    0.7190 c3        1 HW0      0.140800
     18 C3'        -3.2890   -1.4360   -0.4290 c3        1 HW0     -0.078700
     19 C08        -3.0550    0.0340   -0.1500 c3        1 HW0     -0.113700
     20 C06        -4.3380    0.8180   -0.0850 ca        1 HW0      0.451600
     21 N01        -5.0780    0.9370   -1.2100 nb        1 HW0     -0.732000
     22 C02        -6.2390    1.6600   -1.1380 ca        1 HW0      0.628200
     23 N02        -7.0820    1.7080   -2.2630 nh        1 HW0     -0.922500
     24 C03        -6.6560    2.3050    0.0650 ca        1 HW0     -0.302300
     25 C04        -5.8720    2.1710    1.2090 ca        1 HW0     -0.007300
     26 C05        -4.6960    1.4160    1.1400 ca        1 HW0     -0.291300
     27 C07        -6.2790    2.8060    2.4840 c3        1 HW0     -0.060800
     28 H1          7.0070    3.3780   -1.5430 hn        1 HW0      0.401300
     29 H2          8.1060    3.7980   -0.3590 hn        1 HW0      0.401300
     30 H3          9.1930    2.1770    1.1340 ha        1 HW0      0.141000
     31 H4          8.8970   -0.0560    2.2210 ha        1 HW0      0.135000
     32 H5          7.0660   -1.5790    1.4210 ha        1 HW0      0.142000
     33 H6          5.3440   -1.2000   -1.6690 hc        1 HW0      0.055200
     34 H7          5.4290   -2.0870   -0.0930 hc        1 HW0      0.055200
     35 H8          3.8530   -0.3790    0.9240 hc        1 HW0      0.051700
     36 H9          3.7390    0.4480   -0.6780 hc        1 HW0      0.051700
     37 H10         2.8780   -1.6770   -1.7160 hc        1 HW0      0.039700
     38 H11         2.9930   -2.5080   -0.1160 hc        1 HW0      0.039700
     39 H12         1.3860   -0.8320    0.8730 hc        1 HW0      0.056200
     40 H13         1.2730    0.0030   -0.7230 hc        1 HW0      0.056200
     41 H14         0.3910   -2.1110   -1.7840 h1        1 HW0      0.026700
     42 H15         0.5120   -2.9640   -0.1720 h1        1 HW0      0.026700
     43 H16        -1.8760   -2.6290   -1.6310 h1        1 HW0      0.041700
     44 H17        -1.8320   -4.3840   -0.0590 h1        1 HW0      0.054700
     45 H18        -1.3560   -3.2350    1.2710 h1        1 HW0      0.054700
     46 H19        -3.9630   -4.1710    0.6000 hn        1 HW0      0.344800
     47 H21        -5.1340   -2.2620    0.4560 h1        1 HW0      0.055700
     48 H22        -3.9880   -1.5190    1.6550 h1        1 HW0      0.055700
     49 H23        -3.8740   -1.5410   -1.3810 hc        1 HW0      0.070700
     50 H24        -2.5000    0.1480    0.8200 hc        1 HW0      0.069700
     51 H25        -2.3960    0.4550   -0.9580 hc        1 HW0      0.069700
     52 H26        -6.6690    1.4150   -3.1220 hn        1 HW0      0.398300
     53 H27        -7.5900    2.5600   -2.3370 hn        1 HW0      0.398300
     54 H28        -7.5860    2.8890    0.0930 ha        1 HW0      0.140000
     55 H29        -4.0590    1.2890    2.0250 ha        1 HW0      0.144000
     56 H30        -6.7820    2.0500    3.1380 hc        1 HW0      0.049033
     57 H31        -5.3880    3.2040    3.0300 hc        1 HW0      0.049033
     58 H32        -6.9930    3.6470    2.3070 hc        1 HW0      0.049033
@<TRIPOS>BOND
     1    1    2 1   
     2    1   28 1   
     3    1   29 1   
     4    2    3 ar  
     5    2    6 ar  
     6    3    4 ar  
     7    3   30 1   
     8    4    5 ar  
     9    4   31 1   
    10    5    7 ar  
    11    5   32 1   
    12    6    7 ar  
    13    7    8 1   
    14    8    9 1   
    15    8   33 1   
    16    8   34 1   
    17    9   10 1   
    18    9   35 1   
    19    9   36 1   
    20   10   11 1   
    21   10   37 1   
    22   10   38 1   
    23   11   12 1   
    24   11   39 1   
    25   11   40 1   
    26   12   13 1   
    27   12   41 1   
    28   12   42 1   
    29   13   14 1   
    30   14   15 1   
    31   14   18 1   
    32   14   43 1   
    33   15   16 1   
    34   15   44 1   
    35   15   45 1   
    36   16   17 1   
    37   16   46 1   
    38   17   18 1   
    39   17   47 1   
    40   17   48 1   
    41   18   19 1   
    42   18   49 1   
    43   19   20 1   
    44   19   50 1   
    45   19   51 1   
    46   20   21 ar  
    47   20   26 ar  
    48   21   22 ar  
    49   22   23 1   
    50   22   24 ar  
    51   23   52 1   
    52   23   53 1   
    53   24   25 ar  
    54   24   54 1   
    55   25   26 ar  
    56   25   27 1   
    57   26   55 1   
    58   27   56 1   
    59   27   57 1   
    60   27   58 1   
@<TRIPOS>SUBSTRUCTURE
     1 HW0         1 TEMP              0 ****  ****    0 ROOT
