@<TRIPOS>MOLECULE
HW0
   58    60     1     0     0
SMALL
bcc


@<TRIPOS>ATOM
      1 N22         0.1370    0.7370    0.2170 nv        1 HW0     -0.924500
      2 C22         1.4560    0.2640    0.1150 ca        1 HW0      0.630200
      3 C23         2.1460   -0.1320    1.3020 ca        1 HW0     -0.301300
      4 C24         3.4810   -0.4990    1.2040 ca        1 HW0     -0.060000
      5 C25         4.1130   -0.4820   -0.0390 ca        1 HW0     -0.292300
      6 N21         2.0670    0.2640   -1.1130 nb        1 HW0     -0.726000
      7 C26         3.3680   -0.0930   -1.1720 ca        1 HW0      0.450600
      8 C14         4.0530   -0.0760   -2.5120 c3        1 HW0     -0.129700
      9 C13         3.5170   -1.1570   -3.4290 c3        1 HW0     -0.074400
     10 C12         4.2690   -1.1680   -4.7430 c3        1 HW0     -0.079400
     11 C11         3.7360   -2.2460   -5.6620 c3        1 HW0     -0.083400
     12 C10         4.4970   -2.2460   -6.9750 c3        1 HW0      0.130400
     13 O09         3.9310   -3.2850   -7.7740 os        1 HW0     -0.423600
     14 C4'         4.5870   -3.4390   -9.0290 c3        1 HW0      0.113100
     15 C5'         5.8320   -4.3540   -8.8830 c3        1 HW0      0.116800
     16 N1'         5.5380   -5.6620   -9.4530 n7        1 HW0     -0.788200
     17 C2'         4.3640   -5.5180  -10.3100 c3        1 HW0      0.139800
     18 C3'         3.6480   -4.1800  -10.0070 c3        1 HW0     -0.080700
     19 C08         2.2540   -4.3820   -9.4480 c3        1 HW0     -0.117700
     20 C06         1.3210   -4.9970  -10.4570 ca        1 HW0      0.452600
     21 N01         0.9310   -4.2480  -11.5120 nb        1 HW0     -0.730000
     22 C02         0.0800   -4.8190  -12.4220 ca        1 HW0      0.631200
     23 N02        -0.2540   -4.1010  -13.5830 nv        1 HW0     -0.923500
     24 C03        -0.4190   -6.1470  -12.2620 ca        1 HW0     -0.302300
     25 C04        -0.0050   -6.8950  -11.1630 ca        1 HW0     -0.006300
     26 C05         0.8810   -6.3190  -10.2450 ca        1 HW0     -0.295300
     27 C07        -0.4810   -8.2850  -10.9730 c3        1 HW0     -0.060800
     28 H1         -0.3600    0.8280   -0.6420 hn        1 HW0      0.401300
     29 H2         -0.3870    0.3000    0.9410 hn        1 HW0      0.401300
     30 H3          1.6330   -0.1320    2.2720 ha        1 HW0      0.141000
     31 H4          4.0360   -0.8020    2.1040 ha        1 HW0      0.135000
     32 H5          5.1680   -0.7660   -0.1380 ha        1 HW0      0.142000
     33 H6          5.1550   -0.2230   -2.3580 hc        1 HW0      0.055200
     34 H7          3.9130    0.9290   -2.9930 hc        1 HW0      0.055200
     35 H8          2.4250   -0.9820   -3.6210 hc        1 HW0      0.051700
     36 H9          3.6130   -2.1570   -2.9310 hc        1 HW0      0.051700
     37 H10         4.1730   -0.1670   -5.2400 hc        1 HW0      0.040200
     38 H11         5.3610   -1.3410   -4.5520 hc        1 HW0      0.040200
     39 H12         3.8320   -3.2520   -5.1770 hc        1 HW0      0.055200
     40 H13         2.6460   -2.0780   -5.8650 hc        1 HW0      0.055200
     41 H14         4.3850   -1.2620   -7.5050 h1        1 HW0      0.027200
     42 H15         5.5890   -2.4470   -6.8080 h1        1 HW0      0.027200
     43 H16         4.8760   -2.4360   -9.4390 h1        1 HW0      0.050700
     44 H17         6.6850   -3.9140   -9.4680 h1        1 HW0      0.054700
     45 H18         6.1400   -4.4300   -7.8070 h1        1 HW0      0.054700
     46 H19         5.3460   -6.3190   -8.7180 hn        1 HW0      0.347800
     47 H21         4.7270   -5.5150  -11.3750 h1        1 HW0      0.054200
     48 H22         3.6570   -6.3820  -10.1890 h1        1 HW0      0.054200
     49 H23         3.5800   -3.5770  -10.9510 hc        1 HW0      0.076700
     50 H24         1.8500   -3.3880   -9.1130 hc        1 HW0      0.067200
     51 H25         2.3040   -5.0400   -8.5410 hc        1 HW0      0.067200
     52 H26        -0.0430   -3.1270  -13.5650 hn        1 HW0      0.399300
     53 H27        -1.1650   -4.3060  -13.9260 hn        1 HW0      0.399300
     54 H28        -1.1090   -6.5760  -13.0010 ha        1 HW0      0.141000
     55 H29         1.2240   -6.8840   -9.3690 ha        1 HW0      0.141000
     56 H30        -1.4450   -8.4590  -11.5110 hc        1 HW0      0.049033
     57 H31        -0.6350   -8.5060   -9.8880 hc        1 HW0      0.049033
     58 H32         0.2790   -9.0020  -11.3730 hc        1 HW0      0.049033
@<TRIPOS>BOND
     1    1    2 1   
     2    1   28 1   
     3    1   29 1   
     4    2    3 ar  
     5    2    6 ar  
     6    3    4 ar  
     7    3   30 1   
     8    4    5 ar  
     9    4   31 1   
    10    5    7 ar  
    11    5   32 1   
    12    6    7 ar  
    13    7    8 1   
    14    8    9 1   
    15    8   33 1   
    16    8   34 1   
    17    9   10 1   
    18    9   35 1   
    19    9   36 1   
    20   10   11 1   
    21   10   37 1   
    22   10   38 1   
    23   11   12 1   
    24   11   39 1   
    25   11   40 1   
    26   12   13 1   
    27   12   41 1   
    28   12   42 1   
    29   13   14 1   
    30   14   15 1   
    31   14   18 1   
    32   14   43 1   
    33   15   16 1   
    34   15   44 1   
    35   15   45 1   
    36   16   17 1   
    37   16   46 1   
    38   17   18 1   
    39   17   47 1   
    40   17   48 1   
    41   18   19 1   
    42   18   49 1   
    43   19   20 1   
    44   19   50 1   
    45   19   51 1   
    46   20   21 ar  
    47   20   26 ar  
    48   21   22 ar  
    49   22   23 1   
    50   22   24 ar  
    51   23   52 1   
    52   23   53 1   
    53   24   25 ar  
    54   24   54 1   
    55   25   26 ar  
    56   25   27 1   
    57   26   55 1   
    58   27   56 1   
    59   27   57 1   
    60   27   58 1   
@<TRIPOS>SUBSTRUCTURE
     1 HW0         1 TEMP              0 ****  ****    0 ROOT
