@<TRIPOS>MOLECULE
HW0
   58    60     1     0     0
SMALL
bcc


@<TRIPOS>ATOM
      1 N22         0.1440    0.7790    0.2160 nh        1 HW0     -0.924500
      2 C22         1.4500    0.2710    0.1170 ca        1 HW0      0.630200
      3 C23         2.1190   -0.1610    1.3030 ca        1 HW0     -0.301300
      4 C24         3.4440   -0.5630    1.2110 ca        1 HW0     -0.060000
      5 C25         4.0880   -0.5440   -0.0260 ca        1 HW0     -0.292300
      6 N21         2.0710    0.2730   -1.1050 nb        1 HW0     -0.726000
      7 C26         3.3630   -0.1180   -1.1590 ca        1 HW0      0.450600
      8 C14         4.0590   -0.1000   -2.4930 c3        1 HW0     -0.130700
      9 C13         3.5140   -1.1660   -3.4220 c3        1 HW0     -0.074400
     10 C12         4.2700   -1.1730   -4.7350 c3        1 HW0     -0.079400
     11 C11         3.7340   -2.2420   -5.6610 c3        1 HW0     -0.083400
     12 C10         4.4920   -2.2310   -6.9770 c3        1 HW0      0.130400
     13 O09         3.9310   -3.2710   -7.7780 os        1 HW0     -0.423600
     14 C4'         4.5780   -3.4080   -9.0400 c3        1 HW0      0.114100
     15 C5'         5.8340   -4.3100   -8.9130 c3        1 HW0      0.116800
     16 N1'         5.5460   -5.6200   -9.4840 n3        1 HW0     -0.789200
     17 C2'         4.3590   -5.4850  -10.3250 c3        1 HW0      0.140800
     18 C3'         3.6390   -4.1520  -10.0160 c3        1 HW0     -0.079700
     19 C08         2.2480   -4.3610   -9.4510 c3        1 HW0     -0.117700
     20 C06         1.3140   -4.9880  -10.4520 ca        1 HW0      0.452600
     21 N01         0.9320   -4.2560  -11.5220 nb        1 HW0     -0.730000
     22 C02         0.0580   -4.8290  -12.4090 ca        1 HW0      0.631200
     23 N02        -0.4400   -4.0520  -13.4690 nh        1 HW0     -0.923500
     24 C03        -0.4180   -6.1650  -12.2470 ca        1 HW0     -0.302300
     25 C04        -0.0030   -6.8990  -11.1390 ca        1 HW0     -0.006300
     26 C05         0.8750   -6.3070  -10.2230 ca        1 HW0     -0.295300
     27 C07        -0.4910   -8.2810  -10.9220 c3        1 HW0     -0.060800
     28 H1         -0.3430    0.8970   -0.6460 hn        1 HW0      0.401300
     29 H2         -0.3980    0.3450    0.9290 hn        1 HW0      0.401300
     30 H3          1.5980   -0.1630    2.2690 ha        1 HW0      0.141000
     31 H4          3.9840   -0.8940    2.1110 ha        1 HW0      0.135000
     32 H5          5.1350   -0.8550   -0.1210 ha        1 HW0      0.141000
     33 H6          3.9370    0.9110   -2.9690 hc        1 HW0      0.054700
     34 H7          5.1580   -0.2640   -2.3320 hc        1 HW0      0.054700
     35 H8          2.4250   -0.9790   -3.6150 hc        1 HW0      0.051700
     36 H9          3.5990   -2.1720   -2.9340 hc        1 HW0      0.051700
     37 H10         5.3610   -1.3520   -4.5420 hc        1 HW0      0.040200
     38 H11         4.1800   -0.1680   -5.2250 hc        1 HW0      0.040200
     39 H12         2.6440   -2.0720   -5.8600 hc        1 HW0      0.055700
     40 H13         3.8300   -3.2520   -5.1850 hc        1 HW0      0.055700
     41 H14         5.5850   -2.4250   -6.8130 h1        1 HW0      0.026700
     42 H15         4.3720   -1.2450   -7.5020 h1        1 HW0      0.026700
     43 H16         4.8520   -2.3980   -9.4450 h1        1 HW0      0.050700
     44 H17         6.6760   -3.8600   -9.5060 h1        1 HW0      0.054200
     45 H18         6.1560   -4.3870   -7.8410 h1        1 HW0      0.054200
     46 H19         5.3720   -6.2820   -8.7490 hn        1 HW0      0.348800
     47 H21         3.6600   -6.3540  -10.1910 h1        1 HW0      0.053200
     48 H22         4.7070   -5.4830  -11.3940 h1        1 HW0      0.053200
     49 H23         3.5640   -3.5460  -10.9580 hc        1 HW0      0.074700
     50 H24         1.8380   -3.3680   -9.1200 hc        1 HW0      0.068200
     51 H25         2.3060   -5.0130   -8.5400 hc        1 HW0      0.068200
     52 H26         0.0490   -3.2030  -13.6510 hn        1 HW0      0.400300
     53 H27        -0.6410   -4.5820  -14.2870 hn        1 HW0      0.400300
     54 H28        -1.1110   -6.6030  -12.9780 ha        1 HW0      0.141000
     55 H29         1.2190   -6.8620   -9.3410 ha        1 HW0      0.141000
     56 H30        -0.8340   -8.7430  -11.8800 hc        1 HW0      0.048700
     57 H31         0.3140   -8.9220  -10.4850 hc        1 HW0      0.048700
     58 H32        -1.3540   -8.2680  -10.2090 hc        1 HW0      0.048700
@<TRIPOS>BOND
     1    1    2 1   
     2    1   28 1   
     3    1   29 1   
     4    2    3 ar  
     5    2    6 ar  
     6    3    4 ar  
     7    3   30 1   
     8    4    5 ar  
     9    4   31 1   
    10    5    7 ar  
    11    5   32 1   
    12    6    7 ar  
    13    7    8 1   
    14    8    9 1   
    15    8   33 1   
    16    8   34 1   
    17    9   10 1   
    18    9   35 1   
    19    9   36 1   
    20   10   11 1   
    21   10   37 1   
    22   10   38 1   
    23   11   12 1   
    24   11   39 1   
    25   11   40 1   
    26   12   13 1   
    27   12   41 1   
    28   12   42 1   
    29   13   14 1   
    30   14   15 1   
    31   14   18 1   
    32   14   43 1   
    33   15   16 1   
    34   15   44 1   
    35   15   45 1   
    36   16   17 1   
    37   16   46 1   
    38   17   18 1   
    39   17   47 1   
    40   17   48 1   
    41   18   19 1   
    42   18   49 1   
    43   19   20 1   
    44   19   50 1   
    45   19   51 1   
    46   20   21 ar  
    47   20   26 ar  
    48   21   22 ar  
    49   22   23 1   
    50   22   24 ar  
    51   23   52 1   
    52   23   53 1   
    53   24   25 ar  
    54   24   54 1   
    55   25   26 ar  
    56   25   27 1   
    57   26   55 1   
    58   27   56 1   
    59   27   57 1   
    60   27   58 1   
@<TRIPOS>SUBSTRUCTURE
     1 HW0         1 TEMP              0 ****  ****    0 ROOT
