@<TRIPOS>MOLECULE
HW0
   60    62     1     0     0
SMALL
bcc


@<TRIPOS>ATOM
      1 N22         1.2410    1.3320    1.5390 n4        1 HW0     -0.817300
      2 C22         2.1510    0.3610    0.8880 ca        1 HW0      0.441200
      3 C23         2.6710   -0.7080    1.6400 ca        1 HW0     -0.199300
      4 C24         3.5410   -1.5860    0.9760 ca        1 HW0     -0.065000
      5 C25         3.8470   -1.3680   -0.3600 ca        1 HW0     -0.188300
      6 N21         2.4270    0.5940   -0.4270 nb        1 HW0     -0.660000
      7 C26         3.2690   -0.2590   -1.0420 ca        1 HW0      0.464600
      8 C14         3.6390   -0.0210   -2.4800 c3        1 HW0     -0.147700
      9 C13         3.1200   -1.1230   -3.3840 c3        1 HW0     -0.076400
     10 C12         3.6420   -0.9310   -4.7930 c3        1 HW0     -0.081400
     11 C11         3.1840   -2.0450   -5.7100 c3        1 HW0     -0.085400
     12 C10         3.8120   -1.8740   -7.0840 c3        1 HW0      0.129400
     13 O09         3.4080   -2.9930   -7.8770 os        1 HW0     -0.434600
     14 C4'         4.2580   -3.1980   -9.0040 c3        1 HW0      0.115100
     15 C5'         5.5200   -4.0040   -8.5980 c3        1 HW0      0.120800
     16 N1'         5.3610   -5.3880   -9.0210 n3        1 HW0     -0.783200
     17 C2'         4.2840   -5.4410  -10.0020 c3        1 HW0      0.147800
     18 C3'         3.5340   -4.0880  -10.0390 c3        1 HW0     -0.085700
     19 C08         2.0510   -4.2300   -9.7620 c3        1 HW0     -0.125700
     20 C06         1.3510   -5.0300  -10.8280 ca        1 HW0      0.468600
     21 N01         1.2240   -4.5060  -12.0650 nb        1 HW0     -0.669000
     22 C02         0.5820   -5.2670  -12.9960 ca        1 HW0      0.449200
     23 N02         0.4660   -4.6710  -14.3480 n4        1 HW0     -0.818300
     24 C03         0.0420   -6.5430  -12.7620 ca        1 HW0     -0.214300
     25 C04         0.1820   -7.0740  -11.4650 ca        1 HW0      0.003700
     26 C05         0.8390   -6.3130  -10.4980 ca        1 HW0     -0.202300
     27 C07        -0.3510   -8.4190  -11.1580 c3        1 HW0     -0.081800
     28 H1          0.3770    1.4300    0.9910 hn        1 HW0      0.472467
     29 H2          1.7020    2.2490    1.5970 hn        1 HW0      0.472467
     30 H3          2.4260   -0.8680    2.7010 ha        1 HW0      0.172000
     31 H4          3.9770   -2.4380    1.5250 ha        1 HW0      0.184000
     32 H5          4.5350   -2.0360   -0.9030 ha        1 HW0      0.183000
     33 H6          4.7630    0.0200   -2.5340 hc        1 HW0      0.082700
     34 H7          3.2520    0.9700   -2.8410 hc        1 HW0      0.082700
     35 H8          1.9980   -1.1150   -3.3900 hc        1 HW0      0.050200
     36 H9          3.4460   -2.1240   -2.9950 hc        1 HW0      0.050200
     37 H10         4.7640   -0.8970   -4.7740 hc        1 HW0      0.051200
     38 H11         3.2870    0.0560   -5.1940 hc        1 HW0      0.051200
     39 H12         3.4790   -3.0420   -5.2900 hc        1 HW0      0.056200
     40 H13         2.0670   -2.0400   -5.8040 hc        1 HW0      0.056200
     41 H14         4.9310   -1.8360   -7.0020 h1        1 HW0      0.038200
     42 H15         3.4480   -0.9360   -7.5810 h1        1 HW0      0.038200
     43 H16         4.5380   -2.2100   -9.4560 h1        1 HW0      0.060700
     44 H17         6.4150   -3.5860   -9.1350 h1        1 HW0      0.065200
     45 H18         5.6980   -3.9270   -7.4930 h1        1 HW0      0.065200
     46 H19         5.1510   -5.9760   -8.2350 hn        1 HW0      0.359800
     47 H21         3.5710   -6.2840   -9.7880 h1        1 HW0      0.047700
     48 H22         4.7560   -5.6350  -11.0040 h1        1 HW0      0.047700
     49 H23         3.6770   -3.6180  -11.0490 hc        1 HW0      0.070700
     50 H24         1.8970   -4.7300   -8.7680 hc        1 HW0      0.086200
     51 H25         1.5930   -3.2060   -9.6910 hc        1 HW0      0.086200
     52 H26         0.0530   -3.7320  -14.2870 hn        1 HW0      0.471467
     53 H27         1.4000   -4.5950  -14.7710 hn        1 HW0      0.471467
     54 H28        -0.4730   -7.1270  -13.5400 ha        1 HW0      0.170000
     55 H29         0.9660   -6.7000   -9.4730 ha        1 HW0      0.180000
     56 H30        -0.5300   -8.5400  -10.0600 hc        1 HW0      0.077033
     57 H31         0.3850   -9.2010  -11.4810 hc        1 HW0      0.077033
     58 H32        -1.3150   -8.6020  -11.6960 hc        1 HW0      0.077033
     59 H223        1.0140    1.0010    2.4820 hn        1 HW0      0.472467
     60 H023       -0.1270   -5.2700  -14.9310 hn        1 HW0      0.471467
@<TRIPOS>BOND
     1    1    2 1   
     2    1   28 1   
     3    1   29 1   
     4    1   59 1   
     5    2    3 ar  
     6    2    6 ar  
     7    3    4 ar  
     8    3   30 1   
     9    4    5 ar  
    10    4   31 1   
    11    5    7 ar  
    12    5   32 1   
    13    6    7 ar  
    14    7    8 1   
    15    8    9 1   
    16    8   33 1   
    17    8   34 1   
    18    9   10 1   
    19    9   35 1   
    20    9   36 1   
    21   10   11 1   
    22   10   37 1   
    23   10   38 1   
    24   11   12 1   
    25   11   39 1   
    26   11   40 1   
    27   12   13 1   
    28   12   41 1   
    29   12   42 1   
    30   13   14 1   
    31   14   15 1   
    32   14   18 1   
    33   14   43 1   
    34   15   16 1   
    35   15   44 1   
    36   15   45 1   
    37   16   17 1   
    38   16   46 1   
    39   17   18 1   
    40   17   47 1   
    41   17   48 1   
    42   18   19 1   
    43   18   49 1   
    44   19   20 1   
    45   19   50 1   
    46   19   51 1   
    47   20   21 ar  
    48   20   26 ar  
    49   21   22 ar  
    50   22   23 1   
    51   22   24 ar  
    52   23   52 1   
    53   23   53 1   
    54   23   60 1   
    55   24   25 ar  
    56   24   54 1   
    57   25   26 ar  
    58   25   27 1   
    59   26   55 1   
    60   27   56 1   
    61   27   57 1   
    62   27   58 1   
@<TRIPOS>SUBSTRUCTURE
     1 HW0         1 TEMP              0 ****  ****    0 ROOT
