@<TRIPOS>MOLECULE
HW1
   61    63     1     0     0
SMALL
bcc


@<TRIPOS>ATOM
      1 N02        -0.0050    0.2860    0.3150 nh        1 HW1     -0.923500
      2 C02         1.3780    0.0790    0.1780 ca        1 HW1      0.631200
      3 C03         2.1760   -0.0620    1.3530 ca        1 HW1     -0.302300
      4 C04         3.5590   -0.1630    1.2220 ca        1 HW1     -0.006300
      5 C07         4.4240   -0.2880    2.4170 c3        1 HW1     -0.060800
      6 C05         4.1220   -0.1330   -0.0600 ca        1 HW1     -0.295300
      7 N01         1.9280    0.0910   -1.0770 nb        1 HW1     -0.730000
      8 C06         3.2730   -0.0030   -1.1770 ca        1 HW1      0.452600
      9 C08         3.8950    0.0410   -2.5470 c3        1 HW1     -0.117700
     10 C3'         3.5790   -1.1970   -3.3620 c3        1 HW1     -0.079700
     11 C2'         4.2170   -2.4750   -2.7680 c3        1 HW1      0.140800
     12 N1'         5.1860   -3.0330   -3.7070 n3        1 HW1     -0.789200
     13 C5'         4.9580   -2.4070   -5.0030 c3        1 HW1      0.116800
     14 C4'         4.1160   -1.1180   -4.8090 c3        1 HW1      0.114100
     15 O09         4.9360    0.0390   -4.9420 os        1 HW1     -0.423600
     16 C10         5.0970    0.4520   -6.3000 c3        1 HW1      0.130400
     17 C11         6.0250    1.6530   -6.2790 c3        1 HW1     -0.083400
     18 C12         6.2680    2.1560   -7.6840 c3        1 HW1     -0.079400
     19 C13         7.1850    3.3620   -7.6770 c3        1 HW1     -0.074400
     20 C14         7.4320    3.8580   -9.0880 c3        1 HW1     -0.129700
     21 C26         8.3930    5.0180   -9.1070 ca        1 HW1      0.452600
     22 N21         7.9810    6.1980   -8.5950 nb        1 HW1     -0.729000
     23 C22         8.8570    7.2510   -8.6330 ca        1 HW1      0.632200
     24 N22         8.4170    8.5170   -8.2090 nh        1 HW1     -0.923500
     25 C23        10.1770    7.1200   -9.1610 ca        1 HW1     -0.302300
     26 C24        10.5760    5.8890   -9.6780 ca        1 HW1     -0.006300
     27 C25         9.6750    4.8190   -9.6550 ca        1 HW1     -0.293300
     28 C27        11.9290    5.7160  -10.2560 c3        1 HW1     -0.060800
     29 H1         -0.4000   -0.1860    1.0970 hn        1 HW1      0.400300
     30 H2         -0.5410    0.1960   -0.5200 hn        1 HW1      0.400300
     31 H3          1.7090   -0.0780    2.3470 ha        1 HW1      0.141000
     32 H4          5.2880   -0.9680    2.2120 hc        1 HW1      0.048700
     33 H5          4.8290    0.7170    2.6970 hc        1 HW1      0.048700
     34 H6          3.8530   -0.6920    3.2890 hc        1 HW1      0.048700
     35 H7          5.2080   -0.2110   -0.1940 ha        1 HW1      0.142000
     36 H8          3.5240    0.9450   -3.1030 hc        1 HW1      0.068200
     37 H9          5.0070    0.1510   -2.4450 hc        1 HW1      0.068200
     38 H10         2.4650   -1.3290   -3.4100 hc        1 HW1      0.074700
     39 H11         3.4200   -3.2530   -2.6110 h1        1 HW1      0.052200
     40 H12         4.6870   -2.2570   -1.7720 h1        1 HW1      0.052200
     41 H13         6.1200   -2.8370   -3.3930 hn        1 HW1      0.348800
     42 H15         5.9230   -2.1710   -5.5250 h1        1 HW1      0.054200
     43 H16         4.3800   -3.1350   -5.6350 h1        1 HW1      0.054200
     44 H17         3.2710   -1.0790   -5.5450 h1        1 HW1      0.050700
     45 H18         4.0970    0.7230   -6.7310 h1        1 HW1      0.026700
     46 H19         5.5380   -0.3870   -6.9020 h1        1 HW1      0.026700
     47 H20         5.5700    2.4630   -5.6510 hc        1 HW1      0.055700
     48 H21         6.9950    1.3660   -5.7960 hc        1 HW1      0.055700
     49 H22         6.7230    1.3390   -8.3050 hc        1 HW1      0.040200
     50 H23         5.2910    2.4310   -8.1620 hc        1 HW1      0.040200
     51 H24         8.1610    3.0900   -7.1960 hc        1 HW1      0.051200
     52 H25         6.7260    4.1810   -7.0630 hc        1 HW1      0.051200
     53 H26         6.4580    4.1680   -9.5530 hc        1 HW1      0.054700
     54 H27         7.8540    3.0270   -9.7130 hc        1 HW1      0.054700
     55 H28         7.5690    8.5270   -7.6850 hn        1 HW1      0.400300
     56 H29         9.1390    9.0750   -7.8120 hn        1 HW1      0.400300
     57 H30        10.8620    7.9770   -9.1720 ha        1 HW1      0.141000
     58 H31         9.9630    3.8380  -10.0550 ha        1 HW1      0.141000
     59 H32        12.3360    4.7030  -10.0150 hc        1 HW1      0.049033
     60 H33        12.6380    6.4870   -9.8650 hc        1 HW1      0.049033
     61 H34        11.8800    5.8170  -11.3700 hc        1 HW1      0.049033
@<TRIPOS>BOND
     1    1    2 1   
     2    1   29 1   
     3    1   30 1   
     4    2    3 ar  
     5    2    7 ar  
     6    3    4 ar  
     7    3   31 1   
     8    4    5 1   
     9    4    6 ar  
    10    5   32 1   
    11    5   33 1   
    12    5   34 1   
    13    6    8 ar  
    14    6   35 1   
    15    7    8 ar  
    16    8    9 1   
    17    9   10 1   
    18    9   36 1   
    19    9   37 1   
    20   10   11 1   
    21   10   14 1   
    22   10   38 1   
    23   11   12 1   
    24   11   39 1   
    25   11   40 1   
    26   12   13 1   
    27   12   41 1   
    28   13   14 1   
    29   13   42 1   
    30   13   43 1   
    31   14   15 1   
    32   14   44 1   
    33   15   16 1   
    34   16   17 1   
    35   16   45 1   
    36   16   46 1   
    37   17   18 1   
    38   17   47 1   
    39   17   48 1   
    40   18   19 1   
    41   18   49 1   
    42   18   50 1   
    43   19   20 1   
    44   19   51 1   
    45   19   52 1   
    46   20   21 1   
    47   20   53 1   
    48   20   54 1   
    49   21   22 ar  
    50   21   27 ar  
    51   22   23 ar  
    52   23   24 1   
    53   23   25 ar  
    54   24   55 1   
    55   24   56 1   
    56   25   26 ar  
    57   25   57 1   
    58   26   27 ar  
    59   26   28 1   
    60   27   58 1   
    61   28   59 1   
    62   28   60 1   
    63   28   61 1   
@<TRIPOS>SUBSTRUCTURE
     1 HW1         1 TEMP              0 ****  ****    0 ROOT
