@<TRIPOS>MOLECULE
HW1
   61    63     1     0     0
SMALL
bcc


@<TRIPOS>ATOM
      1 N02        -7.5020   -1.7030    2.0620 nh        1 HW1     -0.922500
      2 C02        -6.6150   -1.6480    0.9720 ca        1 HW1      0.628200
      3 C03        -6.9870   -2.2780   -0.2540 ca        1 HW1     -0.302300
      4 C04        -6.1570   -2.1350   -1.3640 ca        1 HW1     -0.007300
      5 C07        -6.5160   -2.7550   -2.6600 c3        1 HW1     -0.060800
      6 C05        -4.9810   -1.3860   -1.2390 ca        1 HW1     -0.291300
      7 N01        -5.4550   -0.9310    1.0980 nb        1 HW1     -0.732000
      8 C06        -4.6700   -0.8030    0.0050 ca        1 HW1      0.451600
      9 C08        -3.3870   -0.0260    0.1300 c3        1 HW1     -0.113700
     10 C3'        -3.6260    1.4420    0.4180 c3        1 HW1     -0.078700
     11 C2'        -4.3380    2.1640   -0.7490 c3        1 HW1      0.140800
     12 N1'        -3.6970    3.4520   -0.9970 n3        1 HW1     -0.788200
     13 C5'        -2.3820    3.4200   -0.3700 c3        1 HW1      0.112800
     14 C4'        -2.3180    2.2360    0.6330 c3        1 HW1      0.116100
     15 O09        -1.2040    1.3940    0.3590 os        1 HW1     -0.415600
     16 C10         0.0310    1.9530    0.8070 c3        1 HW1      0.129400
     17 C11         1.1200    0.9750    0.4010 c3        1 HW1     -0.083400
     18 C12         2.4760    1.4880    0.8310 c3        1 HW1     -0.079400
     19 C13         3.5710    0.5200    0.4380 c3        1 HW1     -0.074400
     20 C14         4.9290    1.0390    0.8660 c3        1 HW1     -0.129700
     21 C26         6.0380    0.1220    0.4250 ca        1 HW1      0.452600
     22 N21         6.1420   -1.0880    1.0170 nb        1 HW1     -0.729000
     23 C22         7.1650   -1.9080    0.6200 ca        1 HW1      0.631200
     24 N22         7.3620   -3.1250    1.2950 nh        1 HW1     -0.923500
     25 C23         8.0830   -1.5310   -0.4060 ca        1 HW1     -0.302300
     26 C24         7.9500   -0.2790   -1.0040 ca        1 HW1     -0.006300
     27 C25         6.9150    0.5650   -0.5850 ca        1 HW1     -0.293300
     28 C27         8.8940    0.1600   -2.0570 c3        1 HW1     -0.060800
     29 H1         -8.0170   -2.5540    2.1070 hn        1 HW1      0.398300
     30 H2         -7.1230   -1.4210    2.9400 hn        1 HW1      0.398300
     31 H3         -7.9170   -2.8570   -0.3250 ha        1 HW1      0.140000
     32 H4         -6.9880   -1.9890   -3.3260 hc        1 HW1      0.049033
     33 H5         -5.6050   -3.1510   -3.1740 hc        1 HW1      0.049033
     34 H6         -7.2400   -3.5940   -2.5220 hc        1 HW1      0.049033
     35 H7         -4.3090   -1.2530   -2.0970 ha        1 HW1      0.144000
     36 H8         -2.7620   -0.4600    0.9570 hc        1 HW1      0.069700
     37 H9         -2.7960   -0.1310   -0.8190 hc        1 HW1      0.069700
     38 H10        -4.2470    1.5370    1.3480 hc        1 HW1      0.070700
     39 H11        -4.2420    1.5540   -1.6900 h1        1 HW1      0.055200
     40 H12        -5.4310    2.2870   -0.5270 h1        1 HW1      0.055200
     41 H13        -4.2480    4.1920   -0.6000 hn        1 HW1      0.344800
     42 H15        -1.6210    3.2530   -1.1830 h1        1 HW1      0.054700
     43 H16        -2.1430    4.3870    0.1430 h1        1 HW1      0.054700
     44 H17        -2.2550    2.6120    1.6890 h1        1 HW1      0.041700
     45 H18         0.1890    2.9550    0.3280 h1        1 HW1      0.026700
     46 H19         0.0020    2.0820    1.9230 h1        1 HW1      0.026700
     47 H20         0.9160   -0.0230    0.8700 hc        1 HW1      0.056200
     48 H21         1.0930    0.8320   -0.7100 hc        1 HW1      0.056200
     49 H22         2.6680    2.4880    0.3600 hc        1 HW1      0.039700
     50 H23         2.4890    1.6380    1.9430 hc        1 HW1      0.039700
     51 H24         3.3810   -0.4780    0.9130 hc        1 HW1      0.051700
     52 H25         3.5580    0.3680   -0.6740 hc        1 HW1      0.051700
     53 H26         5.1010    2.0570    0.4240 hc        1 HW1      0.054700
     54 H27         4.9530    1.1510    1.9840 hc        1 HW1      0.054700
     55 H28         6.6050   -3.4300    1.8670 hn        1 HW1      0.400300
     56 H29         7.7400   -3.8410    0.7170 hn        1 HW1      0.400300
     57 H30         8.8890   -2.2110   -0.7120 ha        1 HW1      0.141000
     58 H31         6.7860    1.5560   -1.0380 ha        1 HW1      0.141000
     59 H32         9.6890    0.8060   -1.6060 hc        1 HW1      0.049367
     60 H33         9.3890   -0.7150   -2.5460 hc        1 HW1      0.049367
     61 H34         8.3640    0.7530   -2.8420 hc        1 HW1      0.049367
@<TRIPOS>BOND
     1    1    2 1   
     2    1   29 1   
     3    1   30 1   
     4    2    3 ar  
     5    2    7 ar  
     6    3    4 ar  
     7    3   31 1   
     8    4    5 1   
     9    4    6 ar  
    10    5   32 1   
    11    5   33 1   
    12    5   34 1   
    13    6    8 ar  
    14    6   35 1   
    15    7    8 ar  
    16    8    9 1   
    17    9   10 1   
    18    9   36 1   
    19    9   37 1   
    20   10   11 1   
    21   10   14 1   
    22   10   38 1   
    23   11   12 1   
    24   11   39 1   
    25   11   40 1   
    26   12   13 1   
    27   12   41 1   
    28   13   14 1   
    29   13   42 1   
    30   13   43 1   
    31   14   15 1   
    32   14   44 1   
    33   15   16 1   
    34   16   17 1   
    35   16   45 1   
    36   16   46 1   
    37   17   18 1   
    38   17   47 1   
    39   17   48 1   
    40   18   19 1   
    41   18   49 1   
    42   18   50 1   
    43   19   20 1   
    44   19   51 1   
    45   19   52 1   
    46   20   21 1   
    47   20   53 1   
    48   20   54 1   
    49   21   22 ar  
    50   21   27 ar  
    51   22   23 ar  
    52   23   24 1   
    53   23   25 ar  
    54   24   55 1   
    55   24   56 1   
    56   25   26 ar  
    57   25   57 1   
    58   26   27 ar  
    59   26   28 1   
    60   27   58 1   
    61   28   59 1   
    62   28   60 1   
    63   28   61 1   
@<TRIPOS>SUBSTRUCTURE
     1 HW1         1 TEMP              0 ****  ****    0 ROOT
