@<TRIPOS>MOLECULE
HW1
   61    58     1     0     0
SMALL
bcc


@<TRIPOS>ATOM
      1 N02        -6.3680   -1.4180    4.4600 n3        1 HW1     -0.321000
      2 C02        -4.9260   -1.6040    4.6820 c2        1 HW1      0.110000
      3 C03        -4.4120   -1.5870    5.9760 c2        1 HW1     -0.237000
      4 C04        -3.0640   -1.8010    6.1830 c1        1 HW1      0.001000
      5 C07        -2.4810   -1.6970    7.5960 c3        1 HW1     -0.186000
      6 C05        -2.2370   -2.0290    5.1180 c1        1 HW1     -0.229000
      7 N01        -4.0950   -1.8330    3.6190 n1        1 HW1     -0.205000
      8 C06        -2.7560   -2.0450    3.8250 c1        1 HW1      0.030000
      9 C08        -1.7970   -2.1860    2.6050 c2        1 HW1     -0.102000
     10 C3'        -2.5300   -2.9200    1.4560 c3        1 HW1     -0.119000
     11 C2'        -2.5080   -4.2310    1.6640 c3        1 HW1     -0.096000
     12 N1'        -1.2310   -4.7470    0.9100 n3        1 HW1     -0.268000
     13 C5'        -0.7580   -3.5410    0.0100 c3        1 HW1     -0.120000
     14 C4'        -1.7550   -2.6720    0.0400 c3        1 HW1      0.003000
     15 O09        -1.2420   -1.3310   -0.0160 os        1 HW1     -0.280000
     16 C10        -0.9300   -0.8840   -1.3450 c3        1 HW1     -0.020000
     17 C11         0.2670    0.1340   -1.2900 c3        1 HW1     -0.162000
     18 C12         0.5110    0.7120   -2.6930 c3        1 HW1     -0.158000
     19 C13         1.6880    1.6760   -2.6530 c3        1 HW1     -0.154000
     20 C14         1.8850    2.3030   -4.0470 c3        1 HW1     -0.113000
     21 C26         3.1590    3.2010   -4.0410 c2        1 HW1      0.030000
     22 N21         3.2280    4.2760   -3.2100 n2        1 HW1     -0.203000
     23 C22         4.2860    5.1340   -3.2870 c1        1 HW1      0.111000
     24 N22         4.3050    6.2930   -2.4960 n3        1 HW1     -0.321000
     25 C23         5.2940    4.9120   -4.2120 c1        1 HW1     -0.237000
     26 C24         5.2300    3.8380   -5.0450 c1        1 HW1      0.001000
     27 C25         4.1690    2.9770   -4.9690 c2        1 HW1     -0.228000
     28 C27         6.3670    3.5650   -6.0290 c2        1 HW1     -0.186000
     29 H1         -6.9720   -2.0060    4.8320 hn        1 HW1      0.194500
     30 H2         -6.6650   -0.7400    3.9120 hn        1 HW1      0.194500
     31 H3         -4.9820   -1.3280    6.7210 ha        1 HW1      0.141000
     32 H4         -3.1300   -2.0370    8.2430 hc        1 HW1      0.088000
     33 H5         -2.2800   -0.7620    7.7980 hc        1 HW1      0.088000
     34 H6         -1.6580   -2.2280    7.6490 hc        1 HW1      0.088000
     35 H7         -1.2880   -2.1800    5.2620 ha        1 HW1      0.142000
     36 H8         -1.5220   -1.2900    2.3000 ha        1 HW1      0.108000
     37 H9         -0.9950   -2.7060    2.8710 ha        1 HW1      0.108000
     38 H10        -3.4510   -2.6080    1.3920 hc        1 HW1      0.114000
     39 H11        -2.4360   -4.4250    2.6370 h1        1 HW1      0.091500
     40 H12        -3.3180   -4.6490    1.2900 h1        1 HW1      0.091500
     41 H13        -0.5810   -4.9480    1.5150 hn        1 HW1      0.144000
     42 H15        -0.5990   -3.8410   -0.9040 h1        1 HW1      0.093500
     43 H16         0.0430   -3.1440    0.3770 h1        1 HW1      0.093500
     44 H17        -2.3750   -2.8340   -0.7240 h1        1 HW1      0.090000
     45 H18        -1.7160   -0.4450   -1.7340 h1        1 HW1      0.065500
     46 H19        -0.6750   -1.6650   -1.9050 h1        1 HW1      0.065500
     47 H20         1.0780   -0.3290   -0.9810 hc        1 HW1      0.095500
     48 H21         0.0490    0.8640   -0.6680 hc        1 HW1      0.095500
     49 H22         0.7070   -0.0070   -3.3060 hc        1 HW1      0.078500
     50 H23        -0.2830    1.1830   -2.9910 hc        1 HW1      0.078500
     51 H24         1.5110    2.3750   -2.0060 hc        1 HW1      0.093000
     52 H25         2.4960    1.1920   -2.3970 hc        1 HW1      0.093000
     53 H26         1.9930    1.5970   -4.7090 hc        1 HW1      0.092000
     54 H27         1.1030    2.8470   -4.2720 hc        1 HW1      0.092000
     55 H28         3.5850    6.5010   -1.9730 hn        1 HW1      0.195500
     56 H29         5.0420    6.8450   -2.5050 hn        1 HW1      0.195500
     57 H30         6.0590    5.5330   -4.2670 ha        1 HW1      0.141000
     58 H31         4.1220    2.2190   -5.5560 ha        1 HW1      0.141000
     59 H32         7.0730    3.0410   -5.5790 ha        1 HW1      0.088333
     60 H33         6.0210    3.0580   -6.7960 ha        1 HW1      0.088333
     61 H34         6.7410    4.4180   -6.3420 ha        1 HW1      0.088333
@<TRIPOS>BOND
     1    1    2 1   
     2    1   29 1   
     3    1   30 1   
     4    2    3 1   
     5    2    7 1   
     6    3    4 1   
     7    3   31 1   
     8    4    5 1   
     9    5   32 1   
    10    5   33 1   
    11    5   34 1   
    12    6    8 1   
    13    6   35 1   
    14    9   10 1   
    15    9   36 1   
    16    9   37 1   
    17   10   11 1   
    18   10   14 1   
    19   10   38 1   
    20   11   12 1   
    21   11   39 1   
    22   11   40 1   
    23   12   13 1   
    24   12   41 1   
    25   13   14 1   
    26   13   42 1   
    27   13   43 1   
    28   14   15 1   
    29   14   44 1   
    30   15   16 1   
    31   16   17 1   
    32   16   45 1   
    33   16   46 1   
    34   17   18 1   
    35   17   47 1   
    36   17   48 1   
    37   18   19 1   
    38   18   49 1   
    39   18   50 1   
    40   19   20 1   
    41   19   51 1   
    42   19   52 1   
    43   20   21 1   
    44   20   53 1   
    45   20   54 1   
    46   21   22 1   
    47   21   27 1   
    48   22   23 1   
    49   23   24 1   
    50   24   55 1   
    51   24   56 1   
    52   25   26 1   
    53   25   57 1   
    54   26   27 1   
    55   27   58 1   
    56   28   59 1   
    57   28   60 1   
    58   28   61 1   
@<TRIPOS>SUBSTRUCTURE
     1 HW1         1 TEMP              0 ****  ****    0 ROOT
