@<TRIPOS>MOLECULE
HW1
   61    63     1     0     0
SMALL
bcc


@<TRIPOS>ATOM
      1 N02        -0.0400    0.2160    0.3040 nv        1 HW1     -0.923500
      2 C02         1.3470    0.0340    0.1710 ca        1 HW1      0.631200
      3 C03         2.1430   -0.0930    1.3490 ca        1 HW1     -0.302300
      4 C04         3.5290   -0.1700    1.2220 ca        1 HW1     -0.006300
      5 C07         4.3920   -0.2790    2.4210 c3        1 HW1     -0.060800
      6 C05         4.0950   -0.1310   -0.0570 ca        1 HW1     -0.294300
      7 N01         1.9010    0.0550   -1.0820 nb        1 HW1     -0.731000
      8 C06         3.2470   -0.0160   -1.1770 ca        1 HW1      0.452600
      9 C08         3.8730    0.0390   -2.5450 c3        1 HW1     -0.117700
     10 C3'         3.5720   -1.1990   -3.3660 c3        1 HW1     -0.079700
     11 C2'         4.2190   -2.4740   -2.7750 c3        1 HW1      0.140800
     12 N1'         5.1910   -3.0250   -3.7150 n7        1 HW1     -0.789200
     13 C5'         4.9610   -2.3950   -5.0090 c3        1 HW1      0.116800
     14 C4'         4.1140   -1.1100   -4.8100 c3        1 HW1      0.114100
     15 O09         4.9320    0.0500   -4.9340 os        1 HW1     -0.423600
     16 C10         5.0920    0.4740   -6.2880 c3        1 HW1      0.130400
     17 C11         6.0330    1.6660   -6.2590 c3        1 HW1     -0.083400
     18 C12         6.2580    2.1930   -7.6590 c3        1 HW1     -0.079400
     19 C13         7.2010    3.3780   -7.6460 c3        1 HW1     -0.075400
     20 C14         7.4190    3.9070   -9.0500 c3        1 HW1     -0.128700
     21 C26         8.4120    5.0370   -9.0680 ca        1 HW1      0.452600
     22 N21         8.0620    6.2070   -8.4890 nb        1 HW1     -0.729000
     23 C22         8.9770    7.2270   -8.5050 ca        1 HW1      0.632200
     24 N22         8.6820    8.4150   -7.8130 nv        1 HW1     -0.923500
     25 C23        10.2490    7.0940   -9.1390 ca        1 HW1     -0.302300
     26 C24        10.5810    5.8790   -9.7350 ca        1 HW1     -0.006300
     27 C25         9.6540    4.8310   -9.7000 ca        1 HW1     -0.293300
     28 C27        11.8990    5.6920  -10.3850 c3        1 HW1     -0.060800
     29 H1         -0.5720    0.1160   -0.5330 hn        1 HW1      0.399300
     30 H2         -0.4290   -0.2640    1.0840 hn        1 HW1      0.399300
     31 H3          1.6730   -0.1160    2.3410 ha        1 HW1      0.141000
     32 H4          4.7800    0.7330    2.6990 hc        1 HW1      0.048700
     33 H5          3.8250   -0.6890    3.2920 hc        1 HW1      0.048700
     34 H6          5.2660   -0.9460    2.2200 hc        1 HW1      0.048700
     35 H7          5.1830   -0.1890   -0.1880 ha        1 HW1      0.142000
     36 H8          4.9840    0.1590   -2.4390 hc        1 HW1      0.068700
     37 H9          3.4950    0.9410   -3.0980 hc        1 HW1      0.068700
     38 H10         2.4600   -1.3410   -3.4190 hc        1 HW1      0.074700
     39 H11         3.4270   -3.2570   -2.6180 h1        1 HW1      0.052200
     40 H12         4.6890   -2.2540   -1.7780 h1        1 HW1      0.052200
     41 H13         6.1240   -2.8250   -3.3990 hn        1 HW1      0.348800
     42 H15         5.9250   -2.1540   -5.5300 h1        1 HW1      0.054200
     43 H16         4.3860   -3.1240   -5.6430 h1        1 HW1      0.054200
     44 H17         3.2720   -1.0690   -5.5490 h1        1 HW1      0.050700
     45 H18         5.5210   -0.3630   -6.9000 h1        1 HW1      0.026200
     46 H19         4.0930    0.7610   -6.7120 h1        1 HW1      0.026200
     47 H20         7.0080    1.3590   -5.7980 hc        1 HW1      0.056200
     48 H21         5.5970    2.4680   -5.6080 hc        1 HW1      0.056200
     49 H22         5.2770    2.4980   -8.1100 hc        1 HW1      0.038700
     50 H23         6.6820    1.3790   -8.3050 hc        1 HW1      0.038700
     51 H24         6.7780    4.1890   -6.9970 hc        1 HW1      0.053700
     52 H25         8.1840    3.0730   -7.2000 hc        1 HW1      0.053700
     53 H26         7.7950    3.0810   -9.7110 hc        1 HW1      0.052700
     54 H27         6.4400    4.2580   -9.4750 hc        1 HW1      0.052700
     55 H28         7.7300    8.5360   -7.5470 hn        1 HW1      0.400300
     56 H29         9.0900    9.2240   -8.2250 hn        1 HW1      0.400300
     57 H30        10.9590    7.9310   -9.1480 ha        1 HW1      0.141000
     58 H31         9.8900    3.8630  -10.1600 ha        1 HW1      0.141000
     59 H32        11.8020    5.0560  -11.3000 hc        1 HW1      0.049033
     60 H33        12.3470    6.6720  -10.6800 hc        1 HW1      0.049033
     61 H34        12.6000    5.1830   -9.6770 hc        1 HW1      0.049033
@<TRIPOS>BOND
     1    1    2 1   
     2    1   29 1   
     3    1   30 1   
     4    2    3 ar  
     5    2    7 ar  
     6    3    4 ar  
     7    3   31 1   
     8    4    5 1   
     9    4    6 ar  
    10    5   32 1   
    11    5   33 1   
    12    5   34 1   
    13    6    8 ar  
    14    6   35 1   
    15    7    8 ar  
    16    8    9 1   
    17    9   10 1   
    18    9   36 1   
    19    9   37 1   
    20   10   11 1   
    21   10   14 1   
    22   10   38 1   
    23   11   12 1   
    24   11   39 1   
    25   11   40 1   
    26   12   13 1   
    27   12   41 1   
    28   13   14 1   
    29   13   42 1   
    30   13   43 1   
    31   14   15 1   
    32   14   44 1   
    33   15   16 1   
    34   16   17 1   
    35   16   45 1   
    36   16   46 1   
    37   17   18 1   
    38   17   47 1   
    39   17   48 1   
    40   18   19 1   
    41   18   49 1   
    42   18   50 1   
    43   19   20 1   
    44   19   51 1   
    45   19   52 1   
    46   20   21 1   
    47   20   53 1   
    48   20   54 1   
    49   21   22 ar  
    50   21   27 ar  
    51   22   23 ar  
    52   23   24 1   
    53   23   25 ar  
    54   24   55 1   
    55   24   56 1   
    56   25   26 ar  
    57   25   57 1   
    58   26   27 ar  
    59   26   28 1   
    60   27   58 1   
    61   28   59 1   
    62   28   60 1   
    63   28   61 1   
@<TRIPOS>SUBSTRUCTURE
     1 HW1         1 TEMP              0 ****  ****    0 ROOT
