@<TRIPOS>MOLECULE
HW1
   63    65     1     0     0
SMALL
bcc


@<TRIPOS>ATOM
      1 N02         0.1020   -3.2030   -1.0110 n4        1 HW1     -0.818300
      2 C02         1.1250   -2.2420   -0.5350 ca        1 HW1      0.448200
      3 C03         1.3800   -2.1420    0.8430 ca        1 HW1     -0.213300
      4 C04         2.3590   -1.2150    1.2520 ca        1 HW1      0.003700
      5 C07         2.6840   -1.0710    2.6880 c3        1 HW1     -0.082800
      6 C05         3.0100   -0.4580    0.2790 ca        1 HW1     -0.201300
      7 N01         1.7500   -1.5120   -1.5020 nb        1 HW1     -0.670000
      8 C06         2.6840   -0.6280   -1.0930 ca        1 HW1      0.468600
      9 C08         3.3900    0.2200   -2.1170 c3        1 HW1     -0.126700
     10 C3'         4.3370   -0.5850   -2.9840 c3        1 HW1     -0.090700
     11 C2'         5.4950   -1.2170   -2.1740 c3        1 HW1      0.146800
     12 N1'         6.7700   -0.6620   -2.6080 n3        1 HW1     -0.785200
     13 C5'         6.5510    0.0500   -3.8590 c3        1 HW1      0.122800
     14 C4'         5.0300    0.2790   -4.0660 c3        1 HW1      0.115100
     15 O09         4.7070    1.6500   -3.8560 os        1 HW1     -0.426600
     16 C10         4.5930    2.4260   -5.0430 c3        1 HW1      0.130400
     17 C11         5.9470    2.7380   -5.6570 c3        1 HW1     -0.116400
     18 C12         5.7960    3.6900   -6.8230 c3        1 HW1     -0.078400
     19 C13         7.1430    4.0430   -7.4210 c3        1 HW1     -0.077400
     20 C14         6.9690    4.9900   -8.5930 c3        1 HW1     -0.145700
     21 C26         8.2900    5.3060   -9.2410 ca        1 HW1      0.467600
     22 N21         8.8140    6.5400   -9.1000 nb        1 HW1     -0.667000
     23 C22        10.0000    6.7840   -9.7260 ca        1 HW1      0.448200
     24 N22        10.5450    8.1530   -9.5670 n4        1 HW1     -0.818300
     25 C23        10.7120    5.8480  -10.4950 ca        1 HW1     -0.211300
     26 C24        10.1510    4.5610  -10.6280 ca        1 HW1      0.003700
     27 C25         8.9370    4.2930   -9.9980 ca        1 HW1     -0.201300
     28 C27        10.8460    3.5360  -11.4370 c3        1 HW1     -0.081800
     29 H1          0.5400   -3.9010   -1.6250 hn        1 HW1      0.471133
     30 H2         -0.3220   -3.6710   -0.2040 hn        1 HW1      0.471133
     31 H3          0.8520   -2.7480    1.5950 ha        1 HW1      0.170000
     32 H4          1.7700   -1.1900    3.3210 hc        1 HW1      0.077700
     33 H5          3.1340   -0.0690    2.8990 hc        1 HW1      0.077700
     34 H6          3.4250   -1.8570    2.9890 hc        1 HW1      0.077700
     35 H7          3.7790    0.2780    0.5660 ha        1 HW1      0.181000
     36 H8          2.6340    0.7280   -2.7760 hc        1 HW1      0.086700
     37 H9          3.9610    1.0300   -1.5870 hc        1 HW1      0.086700
     38 H10         3.7620   -1.3980   -3.5020 hc        1 HW1      0.068700
     39 H11         5.3360   -1.0690   -1.0720 h1        1 HW1      0.049700
     40 H12         5.5290   -2.3240   -2.3730 h1        1 HW1      0.049700
     41 H13         7.1410   -0.0430   -1.9110 hn        1 HW1      0.359800
     42 H15         7.0970    1.0300   -3.8800 h1        1 HW1      0.062200
     43 H16         6.9440   -0.5960   -4.6910 h1        1 HW1      0.062200
     44 H17         4.7160   -0.0500   -5.0910 h1        1 HW1      0.059700
     45 H18         4.0930    3.3690   -4.6850 h1        1 HW1      0.054200
     46 H19         3.9300    1.9110   -5.7880 h1        1 HW1      0.054200
     47 H20         6.6120    3.1900   -4.8750 hc        1 HW1      0.053700
     48 H21         6.4310    1.7850   -5.9970 hc        1 HW1      0.053700
     49 H22         5.1450    3.2230   -7.6090 hc        1 HW1      0.050200
     50 H23         5.2820    4.6270   -6.4800 hc        1 HW1      0.050200
     51 H24         7.7880    4.5220   -6.6380 hc        1 HW1      0.050700
     52 H25         7.6630    3.1080   -7.7600 hc        1 HW1      0.050700
     53 H26         6.4550    5.9260   -8.2440 hc        1 HW1      0.081200
     54 H27         6.3110    4.5180   -9.3730 hc        1 HW1      0.081200
     55 H28        11.4660    8.2040  -10.0140 hn        1 HW1      0.471467
     56 H29        10.6320    8.3830   -8.5690 hn        1 HW1      0.471467
     57 H30        11.6690    6.0800  -10.9860 ha        1 HW1      0.170000
     58 H31         8.4660    3.3000  -10.0830 ha        1 HW1      0.180000
     59 H32        10.6430    3.7100  -12.5250 hc        1 HW1      0.077367
     60 H33        11.9530    3.5820  -11.2760 hc        1 HW1      0.077367
     61 H34        10.4930    2.5080  -11.1750 hc        1 HW1      0.077367
     62 H023       -0.6250   -2.7050   -1.5420 hn        1 HW1      0.471133
     63 H223        9.9100    8.8300  -10.0080 hn        1 HW1      0.471467
@<TRIPOS>BOND
     1    1    2 1   
     2    1   29 1   
     3    1   30 1   
     4    1   62 1   
     5    2    3 ar  
     6    2    7 ar  
     7    3    4 ar  
     8    3   31 1   
     9    4    5 1   
    10    4    6 ar  
    11    5   32 1   
    12    5   33 1   
    13    5   34 1   
    14    6    8 ar  
    15    6   35 1   
    16    7    8 ar  
    17    8    9 1   
    18    9   10 1   
    19    9   36 1   
    20    9   37 1   
    21   10   11 1   
    22   10   14 1   
    23   10   38 1   
    24   11   12 1   
    25   11   39 1   
    26   11   40 1   
    27   12   13 1   
    28   12   41 1   
    29   13   14 1   
    30   13   42 1   
    31   13   43 1   
    32   14   15 1   
    33   14   44 1   
    34   15   16 1   
    35   16   17 1   
    36   16   45 1   
    37   16   46 1   
    38   17   18 1   
    39   17   47 1   
    40   17   48 1   
    41   18   19 1   
    42   18   49 1   
    43   18   50 1   
    44   19   20 1   
    45   19   51 1   
    46   19   52 1   
    47   20   21 1   
    48   20   53 1   
    49   20   54 1   
    50   21   22 ar  
    51   21   27 ar  
    52   22   23 ar  
    53   23   24 1   
    54   23   25 ar  
    55   24   55 1   
    56   24   56 1   
    57   24   63 1   
    58   25   26 ar  
    59   25   57 1   
    60   26   27 ar  
    61   26   28 1   
    62   27   58 1   
    63   28   59 1   
    64   28   60 1   
    65   28   61 1   
@<TRIPOS>SUBSTRUCTURE
     1 HW1         1 TEMP              0 ****  ****    0 ROOT
