@<TRIPOS>MOLECULE
HW4
   57    59     1     0     0
SMALL
bcc


@<TRIPOS>ATOM
      1 F23         0.9590   -0.6310    0.8750 f         1 HW4     -0.142900
      2 C23         2.1430   -0.1130    0.4670 ca        1 HW4      0.126900
      3 C24         2.9600    0.5730    1.3850 ca        1 HW4     -0.169000
      4 C25         4.1730    1.1000    0.9490 ca        1 HW4     -0.103000
      5 C26         4.5770    0.9520   -0.3770 ca        1 HW4     -0.143000
      6 C22         2.5460   -0.2650   -0.8710 ca        1 HW4     -0.166000
      7 C21         3.7670    0.2690   -1.2910 ca        1 HW4     -0.051300
      8 C14         4.1920    0.1170   -2.7110 c3        1 HW4     -0.040100
      9 C13         4.6320   -1.3030   -3.0150 c3        1 HW4     -0.076400
     10 C12         5.0260   -1.4490   -4.4690 c3        1 HW4     -0.079400
     11 C11         5.4700   -2.8630   -4.7710 c3        1 HW4     -0.084400
     12 C10         5.8590   -2.9950   -6.2330 c3        1 HW4      0.130400
     13 O09         6.2770   -4.3460   -6.4210 os        1 HW4     -0.423600
     14 C3'         6.6240   -4.6360   -7.7730 c3        1 HW4      0.113100
     15 C2'         5.3590   -5.0060   -8.5920 c3        1 HW4      0.116800
     16 N1'         5.3420   -6.4440   -8.8290 n3        1 HW4     -0.788200
     17 C5'         6.6910   -6.9480   -8.5850 c3        1 HW4      0.139800
     18 C4'         7.5190   -5.8950   -7.8110 c3        1 HW4     -0.080700
     19 C08         7.9210   -6.3750   -6.4310 c3        1 HW4     -0.116700
     20 C06         8.8890   -7.5270   -6.4900 ca        1 HW4      0.451600
     21 N01        10.1490   -7.2870   -6.9150 nb        1 HW4     -0.731000
     22 C02        11.0190   -8.3440   -6.9650 ca        1 HW4      0.631200
     23 N02        12.3000   -8.1440   -7.5080 nh        1 HW4     -0.923500
     24 C03        10.6400   -9.6570   -6.5510 ca        1 HW4     -0.301300
     25 C04         9.3380   -9.8750   -6.1100 ca        1 HW4     -0.005300
     26 C05         8.4420   -8.7990   -6.0810 ca        1 HW4     -0.295300
     27 C07         8.9030  -11.2200   -5.6670 c3        1 HW4     -0.060800
     28 H1          2.6340    0.6860    2.4280 ha        1 HW4      0.148000
     29 H2          4.8170    1.6380    1.6610 ha        1 HW4      0.137000
     30 H3          5.5380    1.3740   -0.7060 ha        1 HW4      0.136000
     31 H4          1.8980   -0.8030   -1.5780 ha        1 HW4      0.148000
     32 H5          5.0340    0.8240   -2.9380 hc        1 HW4      0.051200
     33 H6          3.3360    0.3930   -3.3840 hc        1 HW4      0.051200
     34 H7          3.7970   -2.0140   -2.7750 hc        1 HW4      0.047700
     35 H8          5.5000   -1.5780   -2.3590 hc        1 HW4      0.047700
     36 H9          4.1560   -1.1780   -5.1240 hc        1 HW4      0.040700
     37 H10         5.8560   -0.7330   -4.7070 hc        1 HW4      0.040700
     38 H11         4.6460   -3.5870   -4.5390 hc        1 HW4      0.055700
     39 H12         6.3460   -3.1400   -4.1280 hc        1 HW4      0.055700
     40 H13         6.7050   -2.3010   -6.4880 h1        1 HW4      0.027200
     41 H14         4.9870   -2.7690   -6.9030 h1        1 HW4      0.027200
     42 H15         7.1530   -3.7600   -8.2310 h1        1 HW4      0.050700
     43 H16         5.4050   -4.4980   -9.5930 h1        1 HW4      0.054700
     44 H17         4.4320   -4.6630   -8.0610 h1        1 HW4      0.054700
     45 H18         4.6920   -6.8850   -8.2040 hn        1 HW4      0.347800
     46 H20         7.1650   -7.1330   -9.5880 h1        1 HW4      0.054200
     47 H21         6.6700   -7.9240   -8.0280 h1        1 HW4      0.054200
     48 H22         8.4440   -5.6500   -8.3970 hc        1 HW4      0.077700
     49 H23         7.0080   -6.6880   -5.8590 hc        1 HW4      0.066700
     50 H24         8.3840   -5.5180   -5.8700 hc        1 HW4      0.066700
     51 H25        12.5850   -7.1940   -7.6060 hn        1 HW4      0.400300
     52 H26        12.9960   -8.7310   -7.1060 hn        1 HW4      0.400300
     53 H27        11.3610  -10.4840   -6.5930 ha        1 HW4      0.141000
     54 H28         7.4090   -8.9430   -5.7420 ha        1 HW4      0.142000
     55 H29         9.6140  -12.0100   -6.0100 hc        1 HW4      0.049033
     56 H30         8.8500  -11.2530   -4.5500 hc        1 HW4      0.049033
     57 H31         7.8880  -11.4570   -6.0720 hc        1 HW4      0.049033
@<TRIPOS>BOND
     1    1    2 1   
     2    2    3 ar  
     3    2    6 ar  
     4    3    4 ar  
     5    3   28 1   
     6    4    5 ar  
     7    4   29 1   
     8    5    7 ar  
     9    5   30 1   
    10    6    7 ar  
    11    6   31 1   
    12    7    8 1   
    13    8    9 1   
    14    8   32 1   
    15    8   33 1   
    16    9   10 1   
    17    9   34 1   
    18    9   35 1   
    19   10   11 1   
    20   10   36 1   
    21   10   37 1   
    22   11   12 1   
    23   11   38 1   
    24   11   39 1   
    25   12   13 1   
    26   12   40 1   
    27   12   41 1   
    28   13   14 1   
    29   14   15 1   
    30   14   18 1   
    31   14   42 1   
    32   15   16 1   
    33   15   43 1   
    34   15   44 1   
    35   16   17 1   
    36   16   45 1   
    37   17   18 1   
    38   17   46 1   
    39   17   47 1   
    40   18   19 1   
    41   18   48 1   
    42   19   20 1   
    43   19   49 1   
    44   19   50 1   
    45   20   21 ar  
    46   20   26 ar  
    47   21   22 ar  
    48   22   23 1   
    49   22   24 ar  
    50   23   51 1   
    51   23   52 1   
    52   24   25 ar  
    53   24   53 1   
    54   25   26 ar  
    55   25   27 1   
    56   26   54 1   
    57   27   55 1   
    58   27   56 1   
    59   27   57 1   
@<TRIPOS>SUBSTRUCTURE
     1 HW4         1 TEMP              0 ****  ****    0 ROOT
