@<TRIPOS>MOLECULE
HW4
   57    59     1     0     0
SMALL
bcc


@<TRIPOS>ATOM
      1 F23        -9.0800    0.8980    1.3720 f         1 HW4     -0.142900
      2 C23        -8.1880    0.9610    0.3540 ca        1 HW4      0.125900
      3 C24        -8.2840    1.9920   -0.5980 ca        1 HW4     -0.169000
      4 C25        -7.3610    2.0430   -1.6380 ca        1 HW4     -0.103000
      5 C26        -6.3520    1.0870   -1.7380 ca        1 HW4     -0.144000
      6 C22        -7.1710   -0.0070    0.2580 ca        1 HW4     -0.165000
      7 C21        -6.2530    0.0590   -0.7920 ca        1 HW4     -0.051300
      8 C14        -5.1780   -0.9650   -0.9120 c3        1 HW4     -0.040100
      9 C13        -3.8170   -0.3930   -0.5580 c3        1 HW4     -0.075400
     10 C12        -2.7330   -1.4370   -0.7200 c3        1 HW4     -0.079400
     11 C11        -1.3760   -0.8660   -0.3720 c3        1 HW4     -0.084400
     12 C10        -0.2990   -1.9230   -0.5350 c3        1 HW4      0.129400
     13 O09         0.9410   -1.2930   -0.2100 os        1 HW4     -0.414600
     14 C3'         2.0440   -2.1900   -0.2670 c3        1 HW4      0.116100
     15 C2'         2.0800   -3.1080    0.9850 c3        1 HW4      0.112800
     16 N1'         3.3880   -3.0060    1.6220 n3        1 HW4     -0.787200
     17 C5'         4.0470   -1.8170    1.0900 c3        1 HW4      0.141800
     18 C4'         3.3610   -1.3830   -0.2260 c3        1 HW4     -0.078700
     19 C08         3.1420    0.1130   -0.2990 c3        1 HW4     -0.113700
     20 C06         4.4310    0.8880   -0.3430 ca        1 HW4      0.451600
     21 N01         5.2570    0.7100   -1.3980 nb        1 HW4     -0.733000
     22 C02         6.4070    1.4530   -1.4420 ca        1 HW4      0.630200
     23 N02         7.2280    1.3680   -2.5800 nh        1 HW4     -0.923500
     24 C03         6.7610    2.3650   -0.4030 ca        1 HW4     -0.302300
     25 C04         5.8950    2.5250    0.6770 ca        1 HW4     -0.006300
     26 C05         4.7110    1.7790    0.7130 ca        1 HW4     -0.291300
     27 C07         6.2130    3.4760    1.7670 c3        1 HW4     -0.060800
     28 H1         -9.0830    2.7420   -0.5110 ha        1 HW4      0.148000
     29 H2         -7.4300    2.8460   -2.3860 ha        1 HW4      0.137000
     30 H3         -5.6280    1.1350   -2.5650 ha        1 HW4      0.137000
     31 H4         -7.1110   -0.8060    1.0100 ha        1 HW4      0.148000
     32 H5         -5.3990   -1.8380   -0.2420 hc        1 HW4      0.050700
     33 H6         -5.1560   -1.3530   -1.9660 hc        1 HW4      0.050700
     34 H7         -3.5970    0.4870   -1.2190 hc        1 HW4      0.047700
     35 H8         -3.8280   -0.0200    0.4990 hc        1 HW4      0.047700
     36 H9         -2.9540   -2.3150   -0.0580 hc        1 HW4      0.040200
     37 H10        -2.7250   -1.8120   -1.7770 hc        1 HW4      0.040200
     38 H11        -1.1410    0.0080   -1.0340 hc        1 HW4      0.056700
     39 H12        -1.3710   -0.4910    0.6850 hc        1 HW4      0.056700
     40 H13        -0.4760   -2.7900    0.1560 h1        1 HW4      0.027200
     41 H14        -0.2610   -2.3000   -1.5920 h1        1 HW4      0.027200
     42 H15         1.9840   -2.8000   -1.2070 h1        1 HW4      0.041700
     43 H16         1.3120   -2.7500    1.7250 h1        1 HW4      0.055200
     44 H17         1.8360   -4.1660    0.7080 h1        1 HW4      0.055200
     45 H18         3.9340   -3.8230    1.4170 hn        1 HW4      0.344800
     46 H20         3.9440   -1.0030    1.8600 h1        1 HW4      0.054700
     47 H21         5.1420   -1.9970    0.9230 h1        1 HW4      0.054700
     48 H22         3.9910   -1.7070   -1.0980 hc        1 HW4      0.069700
     49 H23         2.5360    0.3450   -1.2170 hc        1 HW4      0.070200
     50 H24         2.5380    0.4460    0.5870 hc        1 HW4      0.070200
     51 H25         7.0480    0.5980   -3.1870 hn        1 HW4      0.399300
     52 H26         8.1940    1.5040   -2.3820 hn        1 HW4      0.399300
     53 H27         7.6930    2.9420   -0.4590 ha        1 HW4      0.141000
     54 H28         4.0100    1.8830    1.5520 ha        1 HW4      0.144000
     55 H29         5.6630    4.4370    1.6010 hc        1 HW4      0.049033
     56 H30         5.9020    3.0610    2.7570 hc        1 HW4      0.049033
     57 H31         7.3070    3.7000    1.8020 hc        1 HW4      0.049033
@<TRIPOS>BOND
     1    1    2 1   
     2    2    3 ar  
     3    2    6 ar  
     4    3    4 ar  
     5    3   28 1   
     6    4    5 ar  
     7    4   29 1   
     8    5    7 ar  
     9    5   30 1   
    10    6    7 ar  
    11    6   31 1   
    12    7    8 1   
    13    8    9 1   
    14    8   32 1   
    15    8   33 1   
    16    9   10 1   
    17    9   34 1   
    18    9   35 1   
    19   10   11 1   
    20   10   36 1   
    21   10   37 1   
    22   11   12 1   
    23   11   38 1   
    24   11   39 1   
    25   12   13 1   
    26   12   40 1   
    27   12   41 1   
    28   13   14 1   
    29   14   15 1   
    30   14   18 1   
    31   14   42 1   
    32   15   16 1   
    33   15   43 1   
    34   15   44 1   
    35   16   17 1   
    36   16   45 1   
    37   17   18 1   
    38   17   46 1   
    39   17   47 1   
    40   18   19 1   
    41   18   48 1   
    42   19   20 1   
    43   19   49 1   
    44   19   50 1   
    45   20   21 ar  
    46   20   26 ar  
    47   21   22 ar  
    48   22   23 1   
    49   22   24 ar  
    50   23   51 1   
    51   23   52 1   
    52   24   25 ar  
    53   24   53 1   
    54   25   26 ar  
    55   25   27 1   
    56   26   54 1   
    57   27   55 1   
    58   27   56 1   
    59   27   57 1   
@<TRIPOS>SUBSTRUCTURE
     1 HW4         1 TEMP              0 ****  ****    0 ROOT
