@<TRIPOS>MOLECULE
HW4
   57    53     1     0     0
SMALL
bcc


@<TRIPOS>ATOM
      1 F23        -2.6430    4.2050    8.3020 f         1 HW4     -0.108000
      2 C23        -1.5640    3.7790    7.7000 c1        1 HW4      0.091000
      3 C24        -0.3860    3.6190    8.4230 c1        1 HW4     -0.136000
      4 C25         0.8100    3.3280    7.7550 c1        1 HW4     -0.136000
      5 C26         0.8200    3.1990    6.3690 c1        1 HW4     -0.144000
      6 C22        -1.5500    3.6490    6.3000 c1        1 HW4     -0.165000
      7 C21        -0.3660    3.3610    5.6410 c1        1 HW4     -0.044000
      8 C14        -0.3280    3.3610    4.0970 c3        1 HW4     -0.126000
      9 C13        -0.7600    1.9730    3.5760 c3        1 HW4     -0.154000
     10 C12        -0.6560    1.9400    2.0270 c3        1 HW4     -0.158000
     11 C11        -0.7400    0.4910    1.5410 c3        1 HW4     -0.163000
     12 C10        -1.3300    0.4590    0.1530 c3        1 HW4     -0.021000
     13 O09        -0.9180   -0.7410   -0.5190 os        1 HW4     -0.280000
     14 C3'        -1.7700   -1.1390   -1.5060 c3        1 HW4      0.004000
     15 C2'        -2.7610   -2.2370   -0.9690 c3        1 HW4     -0.099000
     16 N1'        -2.7280   -3.2000   -1.8680 n3        1 HW4     -0.269000
     17 C5'        -1.2900   -3.1140   -2.5550 c3        1 HW4     -0.095000
     18 C4'        -0.9960   -1.8070   -2.6510 c3        1 HW4     -0.147000
     19 C08         0.5260   -1.5900   -2.4680 c3        1 HW4     -0.103000
     20 C06         1.2320   -1.7540   -3.8270 c1        1 HW4      0.029000
     21 N01         0.7850   -1.0400   -4.9310 n1        1 HW4     -0.206000
     22 C02         1.4900   -1.0800   -6.1060 c1        1 HW4      0.111000
     23 N02         0.9810   -0.3530   -7.3080 n3        1 HW4     -0.322000
     24 C03         2.6770   -1.8530   -6.1930 c1        1 HW4     -0.237000
     25 C04         3.1160   -2.5550   -5.1080 c1        1 HW4      0.003000
     26 C05         2.3970   -2.5120   -3.9130 c2        1 HW4     -0.230000
     27 C07         4.4510   -3.3550   -5.1850 c2        1 HW4     -0.187000
     28 H1         -0.3940    3.7070    9.3890 ha        1 HW4      0.142500
     29 H2          1.6330    3.2150    8.2590 ha        1 HW4      0.142500
     30 H3          1.6420    2.9990    5.9100 ha        1 HW4      0.136000
     31 H4         -2.3800    3.7590    5.7890 ha        1 HW4      0.148000
     32 H5          0.5650    3.5530    3.7980 hc        1 HW4      0.090000
     33 H6         -0.9380    4.0390    3.7570 hc        1 HW4      0.090000
     34 H7         -1.6750    1.7990    3.8400 hc        1 HW4      0.087000
     35 H8         -0.1650    1.2720    3.9650 hc        1 HW4      0.087000
     36 H9         -1.4000    2.4660    1.6330 hc        1 HW4      0.080500
     37 H10         0.1950    2.3240    1.7520 hc        1 HW4      0.080500
     38 H11        -1.3040   -0.0200    2.1440 hc        1 HW4      0.094500
     39 H12         0.1500    0.1030    1.5240 hc        1 HW4      0.094500
     40 H13        -2.3070    0.4780    0.2140 h1        1 HW4      0.069000
     41 H14        -1.0220    1.2320   -0.3450 h1        1 HW4      0.069000
     42 H15        -2.2620   -0.3880   -1.8380 h1        1 HW4      0.090000
     43 H16        -2.4600   -2.5680   -0.1120 h1        1 HW4      0.099500
     44 H17        -3.6530   -1.8770   -0.8940 h1        1 HW4      0.099500
     45 H18        -2.8190   -4.0050   -1.4550 hn        1 HW4      0.143000
     46 H20        -0.6160   -3.5760   -1.9930 h1        1 HW4      0.094000
     47 H21        -1.3200   -3.5270   -3.4690 h1        1 HW4      0.094000
     48 H22        -1.2870   -1.4580   -3.5040 hc        1 HW4      0.115000
     49 H23         0.6920   -0.6700   -2.1130 hc        1 HW4      0.101500
     50 H24         0.8670   -2.2380   -1.8510 hc        1 HW4      0.101500
     51 H25         0.1650    0.1140   -7.2640 hn        1 HW4      0.196000
     52 H26         1.4910   -0.3260   -8.0890 hn        1 HW4      0.196000
     53 H27         3.1910   -1.8840   -7.0490 ha        1 HW4      0.141000
     54 H28         2.7120   -3.0140   -3.1340 ha        1 HW4      0.142000
     55 H29         4.5270   -3.9100   -4.4270 ha        1 HW4      0.089000
     56 H30         5.2190   -2.7200   -5.2100 ha        1 HW4      0.089000
     57 H31         4.4570   -3.9120   -6.0010 ha        1 HW4      0.089000
@<TRIPOS>BOND
     1    1    2 1   
     2    2    6 1   
     3    3    4 1   
     4    3   28 1   
     5    4   29 1   
     6    5    7 1   
     7    5   30 1   
     8    6   31 1   
     9    7    8 1   
    10    8    9 1   
    11    8   32 1   
    12    8   33 1   
    13    9   10 1   
    14    9   34 1   
    15    9   35 1   
    16   10   11 1   
    17   10   36 1   
    18   10   37 1   
    19   11   12 1   
    20   11   38 1   
    21   11   39 1   
    22   12   13 1   
    23   12   40 1   
    24   12   41 1   
    25   13   14 1   
    26   14   15 1   
    27   14   18 1   
    28   14   42 1   
    29   15   16 1   
    30   15   43 1   
    31   15   44 1   
    32   16   17 1   
    33   16   45 1   
    34   17   18 1   
    35   17   46 1   
    36   17   47 1   
    37   18   19 1   
    38   18   48 1   
    39   19   20 1   
    40   19   49 1   
    41   19   50 1   
    42   20   26 1   
    43   21   22 1   
    44   22   23 1   
    45   23   51 1   
    46   23   52 1   
    47   24   25 1   
    48   24   53 1   
    49   25   26 1   
    50   26   54 1   
    51   27   55 1   
    52   27   56 1   
    53   27   57 1   
@<TRIPOS>SUBSTRUCTURE
     1 HW4         1 TEMP              0 ****  ****    0 ROOT
