@<TRIPOS>MOLECULE
HW4
   58    60     1     0     0
SMALL
bcc


@<TRIPOS>ATOM
      1 F23         0.6470   -1.2580    0.5610 f         1 HW4     -0.139900
      2 C23         1.8310   -0.6440    0.3180 ca        1 HW4      0.128900
      3 C24         2.5100    0.0080    1.3640 ca        1 HW4     -0.165000
      4 C25         3.7240    0.6320    1.0960 ca        1 HW4     -0.101000
      5 C26         4.2670    0.6130   -0.1880 ca        1 HW4     -0.143000
      6 C22         2.3720   -0.6650   -0.9800 ca        1 HW4     -0.168000
      7 C21         3.5950   -0.0360   -1.2300 ca        1 HW4     -0.056300
      8 C14         4.1650   -0.0480   -2.6060 c3        1 HW4     -0.038100
      9 C13         4.6240   -1.4370   -3.0090 c3        1 HW4     -0.075400
     10 C12         5.1750   -1.4390   -4.4180 c3        1 HW4     -0.080400
     11 C11         5.5960   -2.8330   -4.8300 c3        1 HW4     -0.082400
     12 C10         6.1710   -2.8180   -6.2350 c3        1 HW4      0.129400
     13 O09         6.4880   -4.1760   -6.5570 os        1 HW4     -0.439600
     14 C3'         6.9950   -4.3320   -7.8780 c3        1 HW4      0.117100
     15 C2'         5.8450   -4.4000   -8.9160 c3        1 HW4      0.118800
     16 N1'         5.6580   -5.7810   -9.3380 n3        1 HW4     -0.789200
     17 C5'         6.8280   -6.5470   -8.9260 c3        1 HW4      0.155800
     18 C4'         7.7100   -5.7020   -7.9770 c3        1 HW4     -0.080700
     19 C08         7.8980   -6.3460   -6.6220 c3        1 HW4     -0.130700
     20 C06         8.6950   -7.6180   -6.6000 ca        1 HW4      0.475600
     21 N01         9.3190   -8.0690   -7.7050 nb        1 HW4     -0.671000
     22 C02        10.0240   -9.2310   -7.5880 ca        1 HW4      0.446200
     23 N02        10.6890   -9.7020   -8.8260 n4        1 HW4     -0.817300
     24 C03        10.1520   -9.9840   -6.4110 ca        1 HW4     -0.216300
     25 C04         9.4960   -9.4960   -5.2610 ca        1 HW4     -0.000300
     26 C05         8.7670   -8.3140   -5.3590 ca        1 HW4     -0.205300
     27 C07         9.6020  -10.2350   -3.9840 c3        1 HW4     -0.079800
     28 H1          2.0750    0.0200    2.3730 ha        1 HW4      0.152000
     29 H2          4.2590    1.1480    1.9090 ha        1 HW4      0.140000
     30 H3          5.2270    1.1130   -0.3830 ha        1 HW4      0.136000
     31 H4          1.8270   -1.1720   -1.7890 ha        1 HW4      0.146000
     32 H5          5.0300    0.6640   -2.6700 hc        1 HW4      0.052700
     33 H6          3.3840    0.3120   -3.3300 hc        1 HW4      0.052700
     34 H7          5.4110   -1.7950   -2.2950 hc        1 HW4      0.046700
     35 H8          3.7610   -2.1510   -2.9380 hc        1 HW4      0.046700
     36 H9          4.3970   -1.0540   -5.1290 hc        1 HW4      0.044700
     37 H10         6.0540   -0.7440   -4.4800 hc        1 HW4      0.044700
     38 H11         6.3640   -3.2310   -4.1180 hc        1 HW4      0.053200
     39 H12         4.7170   -3.5280   -4.7950 hc        1 HW4      0.053200
     40 H13         7.1040   -2.1960   -6.2850 h1        1 HW4      0.035200
     41 H14         5.4250   -2.4190   -6.9720 h1        1 HW4      0.035200
     42 H15         7.7030   -3.4950   -8.1200 h1        1 HW4      0.058700
     43 H16         4.9030   -3.9660   -8.4880 h1        1 HW4      0.066200
     44 H17         6.1310   -3.8030   -9.8250 h1        1 HW4      0.066200
     45 H18         4.8260   -6.1630   -8.9270 hn        1 HW4      0.359800
     46 H20         6.5340   -7.5160   -8.4410 h1        1 HW4      0.041200
     47 H21         7.4120   -6.7900   -9.8560 h1        1 HW4      0.041200
     48 H22         8.7100   -5.5310   -8.4560 hc        1 HW4      0.066700
     49 H23         8.4120   -5.6130   -5.9390 hc        1 HW4      0.093700
     50 H24         6.8890   -6.5630   -6.1700 hc        1 HW4      0.093700
     51 H25         9.9870   -9.8560   -9.5610 hn        1 HW4      0.469467
     52 H26        11.3580   -8.9930   -9.1520 hn        1 HW4      0.469467
     53 H27        10.7290  -10.9190   -6.3570 ha        1 HW4      0.166000
     54 H28         8.2380   -7.9030   -4.4830 ha        1 HW4      0.183000
     55 H29         9.6050  -11.3390   -4.1580 hc        1 HW4      0.075367
     56 H30         8.7500   -9.9850   -3.3040 hc        1 HW4      0.075367
     57 H31        10.5570   -9.9580   -3.4650 hc        1 HW4      0.075367
     58 H023       11.1820  -10.5780   -8.6320 hn        1 HW4      0.469467
@<TRIPOS>BOND
     1    1    2 1   
     2    2    3 ar  
     3    2    6 ar  
     4    3    4 ar  
     5    3   28 1   
     6    4    5 ar  
     7    4   29 1   
     8    5    7 ar  
     9    5   30 1   
    10    6    7 ar  
    11    6   31 1   
    12    7    8 1   
    13    8    9 1   
    14    8   32 1   
    15    8   33 1   
    16    9   10 1   
    17    9   34 1   
    18    9   35 1   
    19   10   11 1   
    20   10   36 1   
    21   10   37 1   
    22   11   12 1   
    23   11   38 1   
    24   11   39 1   
    25   12   13 1   
    26   12   40 1   
    27   12   41 1   
    28   13   14 1   
    29   14   15 1   
    30   14   18 1   
    31   14   42 1   
    32   15   16 1   
    33   15   43 1   
    34   15   44 1   
    35   16   17 1   
    36   16   45 1   
    37   17   18 1   
    38   17   46 1   
    39   17   47 1   
    40   18   19 1   
    41   18   48 1   
    42   19   20 1   
    43   19   49 1   
    44   19   50 1   
    45   20   21 ar  
    46   20   26 ar  
    47   21   22 ar  
    48   22   23 1   
    49   22   24 ar  
    50   23   51 1   
    51   23   52 1   
    52   23   58 1   
    53   24   25 ar  
    54   24   53 1   
    55   25   26 ar  
    56   25   27 1   
    57   26   54 1   
    58   27   55 1   
    59   27   56 1   
    60   27   57 1   
@<TRIPOS>SUBSTRUCTURE
     1 HW4         1 TEMP              0 ****  ****    0 ROOT
