@<TRIPOS>MOLECULE
HW4
   57    59     1     0     0
SMALL
bcc


@<TRIPOS>ATOM
      1 F23         0.7480    0.4560    0.9090 f         1 HW4     -0.142900
      2 C23         2.0340    0.4540    0.4790 ca        1 HW4      0.125900
      3 C24         3.0790    0.6520    1.4000 ca        1 HW4     -0.169000
      4 C25         4.3940    0.6490    0.9420 ca        1 HW4     -0.103000
      5 C26         4.6750    0.4530   -0.4080 ca        1 HW4     -0.144000
      6 C22         2.3110    0.2550   -0.8850 ca        1 HW4     -0.164000
      7 C21         3.6360    0.2540   -1.3270 ca        1 HW4     -0.051300
      8 C14         3.9440    0.0540   -2.7700 c3        1 HW4     -0.040100
      9 C13         4.5460   -1.3140   -3.0310 c3        1 HW4     -0.075400
     10 C12         4.8860   -1.4860   -4.4960 c3        1 HW4     -0.079400
     11 C11         5.4880   -2.8490   -4.7550 c3        1 HW4     -0.084400
     12 C10         5.8230   -3.0090   -6.2280 c3        1 HW4      0.129400
     13 O09         6.3990   -4.3070   -6.3750 os        1 HW4     -0.415600
     14 C3'         6.7120   -4.6180   -7.7280 c3        1 HW4      0.115100
     15 C2'         5.4330   -4.9920   -8.5240 c3        1 HW4      0.112800
     16 N1'         5.6200   -6.2900   -9.1590 n7        1 HW4     -0.787200
     17 C5'         6.7650   -6.9340   -8.5220 c3        1 HW4      0.140800
     18 C4'         7.6060   -5.8770   -7.7680 c3        1 HW4     -0.078700
     19 C08         8.0300   -6.3490   -6.3930 c3        1 HW4     -0.113700
     20 C06         8.9690   -7.5240   -6.4540 ca        1 HW4      0.450600
     21 N01        10.1980   -7.3390   -6.9870 nb        1 HW4     -0.733000
     22 C02        11.0430   -8.4160   -7.0300 ca        1 HW4      0.628200
     23 N02        12.2840   -8.2800   -7.6800 nv        1 HW4     -0.922500
     24 C03        10.6760   -9.6900   -6.5030 ca        1 HW4     -0.301300
     25 C04         9.4060   -9.8510   -5.9520 ca        1 HW4     -0.006300
     26 C05         8.5340   -8.7560   -5.9280 ca        1 HW4     -0.291300
     27 C07         8.9820  -11.1540   -5.3900 c3        1 HW4     -0.060800
     28 H1          2.8490    0.8070    2.4630 ha        1 HW4      0.148000
     29 H2          5.2160    0.8040    1.6560 ha        1 HW4      0.137000
     30 H3          5.7170    0.4520   -0.7590 ha        1 HW4      0.136000
     31 H4          1.4820    0.1020   -1.5910 ha        1 HW4      0.148000
     32 H5          4.6650    0.8480   -3.1060 hc        1 HW4      0.050700
     33 H6          3.0110    0.1730   -3.3840 hc        1 HW4      0.050700
     34 H7          3.8220   -2.1100   -2.7150 hc        1 HW4      0.047700
     35 H8          5.4710   -1.4410   -2.4090 hc        1 HW4      0.047700
     36 H9          5.6080   -0.6870   -4.8120 hc        1 HW4      0.040200
     37 H10         3.9590   -1.3590   -5.1150 hc        1 HW4      0.040200
     38 H11         4.7720   -3.6550   -4.4480 hc        1 HW4      0.056200
     39 H12         6.4200   -2.9840   -4.1470 hc        1 HW4      0.056200
     40 H13         4.9000   -2.9290   -6.8620 h1        1 HW4      0.026700
     41 H14         6.5620   -2.2310   -6.5600 h1        1 HW4      0.026700
     42 H15         7.2370   -3.7460   -8.2020 h1        1 HW4      0.041700
     43 H16         4.5690   -5.0820   -7.8090 h1        1 HW4      0.054700
     44 H17         5.1870   -4.1960   -9.2750 h1        1 HW4      0.054700
     45 H18         5.7940   -6.1710  -10.1400 hn        1 HW4      0.345800
     46 H20         7.3980   -7.4780   -9.2710 h1        1 HW4      0.055700
     47 H21         6.3630   -7.6910   -7.7930 h1        1 HW4      0.055700
     48 H22         8.5220   -5.6330   -8.3710 hc        1 HW4      0.070700
     49 H23         8.5270   -5.4960   -5.8550 hc        1 HW4      0.069200
     50 H24         7.1210   -6.6300   -5.7970 hc        1 HW4      0.069200
     51 H25        12.9980   -8.8530   -7.2870 hn        1 HW4      0.398800
     52 H26        12.5770   -7.3440   -7.8570 hn        1 HW4      0.398800
     53 H27        11.3770  -10.5340   -6.5420 ha        1 HW4      0.141000
     54 H28         7.5250   -8.8550   -5.5070 ha        1 HW4      0.144000
     55 H29         9.6710  -11.9760   -5.7050 hc        1 HW4      0.049367
     56 H30         7.9470  -11.4080   -5.7300 hc        1 HW4      0.049367
     57 H31         8.9800  -11.1040   -4.2720 hc        1 HW4      0.049367
@<TRIPOS>BOND
     1    1    2 1   
     2    2    3 ar  
     3    2    6 ar  
     4    3    4 ar  
     5    3   28 1   
     6    4    5 ar  
     7    4   29 1   
     8    5    7 ar  
     9    5   30 1   
    10    6    7 ar  
    11    6   31 1   
    12    7    8 1   
    13    8    9 1   
    14    8   32 1   
    15    8   33 1   
    16    9   10 1   
    17    9   34 1   
    18    9   35 1   
    19   10   11 1   
    20   10   36 1   
    21   10   37 1   
    22   11   12 1   
    23   11   38 1   
    24   11   39 1   
    25   12   13 1   
    26   12   40 1   
    27   12   41 1   
    28   13   14 1   
    29   14   15 1   
    30   14   18 1   
    31   14   42 1   
    32   15   16 1   
    33   15   43 1   
    34   15   44 1   
    35   16   17 1   
    36   16   45 1   
    37   17   18 1   
    38   17   46 1   
    39   17   47 1   
    40   18   19 1   
    41   18   48 1   
    42   19   20 1   
    43   19   49 1   
    44   19   50 1   
    45   20   21 ar  
    46   20   26 ar  
    47   21   22 ar  
    48   22   23 1   
    49   22   24 ar  
    50   23   51 1   
    51   23   52 1   
    52   24   25 ar  
    53   24   53 1   
    54   25   26 ar  
    55   25   27 1   
    56   26   54 1   
    57   27   55 1   
    58   27   56 1   
    59   27   57 1   
@<TRIPOS>SUBSTRUCTURE
     1 HW4         1 TEMP              0 ****  ****    0 ROOT
