@<TRIPOS>MOLECULE
HW5
   56    58     1     0     0
SMALL
bcc


@<TRIPOS>ATOM
      1 F23         1.6590    2.8370    0.3960 f         1 HW5     -0.135900
      2 C23         2.2710    1.6320    0.4930 ca        1 HW5      0.130900
      3 C22         2.6260    1.1310    1.7580 ca        1 HW5     -0.158000
      4 C21         3.2640   -0.1100    1.8550 ca        1 HW5     -0.036800
      5 C26         3.5330   -0.8460    0.6940 ca        1 HW5     -0.142000
      6 C25         3.1710   -0.3460   -0.5550 ca        1 HW5     -0.104000
      7 C24         2.5440    0.8900   -0.6710 ca        1 HW5     -0.162000
      8 C14         3.6000   -0.6320    3.1760 ce        1 HW5     -0.114200
      9 C13         4.8240   -0.9220    3.6250 c2        1 HW5     -0.160200
     10 C12         6.0860   -0.7330    2.8710 c3        1 HW5     -0.055200
     11 C11         7.1300   -1.7800    3.2030 c3        1 HW5     -0.079400
     12 C10         7.8040   -1.4860    4.5320 c3        1 HW5      0.128400
     13 O09         8.7490   -2.5380    4.7490 os        1 HW5     -0.440600
     14 C3'         9.5330   -2.3470    5.9220 c3        1 HW5      0.116100
     15 C4'        10.1690   -3.7000    6.3210 c3        1 HW5     -0.080700
     16 C5'        11.6840   -3.5240    6.0630 c3        1 HW5      0.156800
     17 N1'        11.9500   -2.1950    5.5260 n3        1 HW5     -0.789200
     18 C2'        10.7330   -1.4050    5.6440 c3        1 HW5      0.119800
     19 C08         9.5740   -4.8600    5.5560 c3        1 HW5     -0.130700
     20 C06        10.0240   -6.2300    5.9750 ca        1 HW5      0.475600
     21 C05         9.5530   -7.3290    5.2010 ca        1 HW5     -0.206300
     22 C04         9.9240   -8.6280    5.5350 ca        1 HW5     -0.000300
     23 C07         9.4410   -9.7930    4.7610 c3        1 HW5     -0.079800
     24 C03        10.7720   -8.8270    6.6450 ca        1 HW5     -0.216300
     25 C02        11.1850   -7.6840    7.3460 ca        1 HW5      0.447200
     26 N01        10.8310   -6.4030    7.0390 nb        1 HW5     -0.671000
     27 N02        12.0790   -7.8360    8.5180 n4        1 HW5     -0.817300
     28 H1          2.4000    1.7190    2.6590 ha        1 HW5      0.152000
     29 H2          4.0220   -1.8280    0.7720 ha        1 HW5      0.135000
     30 H3          3.3820   -0.9340   -1.4620 ha        1 HW5      0.139000
     31 H4          2.2570    1.2920   -1.6540 ha        1 HW5      0.153000
     32 H5          2.7240   -0.7710    3.8370 ha        1 HW5      0.135000
     33 H7          4.9450   -1.3150    4.6500 ha        1 HW5      0.118000
     34 H9          6.4920    0.2910    3.1000 hc        1 HW5      0.062200
     35 H10         5.8820   -0.7630    1.7660 hc        1 HW5      0.062200
     36 H11         6.6620   -2.7980    3.2390 hc        1 HW5      0.053700
     37 H12         7.9100   -1.7990    2.3970 hc        1 HW5      0.053700
     38 H13         8.3360   -0.4980    4.5030 h1        1 HW5      0.035200
     39 H14         7.0610   -1.4780    5.3730 h1        1 HW5      0.035200
     40 H15         8.8940   -1.9460    6.7520 h1        1 HW5      0.058700
     41 H16         9.9970   -3.8450    7.4210 hc        1 HW5      0.065700
     42 H17        12.2390   -3.6080    7.0370 h1        1 HW5      0.041200
     43 H18        12.0680   -4.3270    5.3790 h1        1 HW5      0.041200
     44 H19        12.2370   -2.2560    4.5660 hn        1 HW5      0.359800
     45 H21        10.5460   -0.7920    4.7220 h1        1 HW5      0.066200
     46 H22        10.8650   -0.7060    6.5150 h1        1 HW5      0.066200
     47 H23         9.8040   -4.7400    4.4600 hc        1 HW5      0.093700
     48 H24         8.4520   -4.8260    5.6600 hc        1 HW5      0.093700
     49 H25         8.8950   -7.1330    4.3380 ha        1 HW5      0.183000
     50 H26        10.2350  -10.5770    4.6780 hc        1 HW5      0.075033
     51 H27         9.1340   -9.4900    3.7280 hc        1 HW5      0.075033
     52 H28         8.5520  -10.2450    5.2710 hc        1 HW5      0.075033
     53 H29        11.0810   -9.8450    6.9230 ha        1 HW5      0.166000
     54 H30        12.2910   -8.8290    8.6550 hn        1 HW5      0.469467
     55 H31        11.6190   -7.4620    9.3570 hn        1 HW5      0.469467
     56 H023       12.9510   -7.3150    8.3600 hn        1 HW5      0.469467
@<TRIPOS>BOND
     1    1    2 1   
     2    2    3 ar  
     3    2    7 ar  
     4    3    4 ar  
     5    3   28 1   
     6    4    5 ar  
     7    4    8 1   
     8    5    6 ar  
     9    5   29 1   
    10    6    7 ar  
    11    6   30 1   
    12    7   31 1   
    13    8    9 2   
    14    8   32 1   
    15    9   10 1   
    16    9   33 1   
    17   10   11 1   
    18   10   34 1   
    19   10   35 1   
    20   11   12 1   
    21   11   36 1   
    22   11   37 1   
    23   12   13 1   
    24   12   38 1   
    25   12   39 1   
    26   13   14 1   
    27   14   15 1   
    28   14   18 1   
    29   14   40 1   
    30   15   16 1   
    31   15   19 1   
    32   15   41 1   
    33   16   17 1   
    34   16   42 1   
    35   16   43 1   
    36   17   18 1   
    37   17   44 1   
    38   18   45 1   
    39   18   46 1   
    40   19   20 1   
    41   19   47 1   
    42   19   48 1   
    43   20   21 ar  
    44   20   26 ar  
    45   21   22 ar  
    46   21   49 1   
    47   22   23 1   
    48   22   24 ar  
    49   23   50 1   
    50   23   51 1   
    51   23   52 1   
    52   24   25 ar  
    53   24   53 1   
    54   25   26 ar  
    55   25   27 1   
    56   27   54 1   
    57   27   55 1   
    58   27   56 1   
@<TRIPOS>SUBSTRUCTURE
     1 HW5         1 TEMP              0 ****  ****    0 ROOT
