@<TRIPOS>MOLECULE
HW5
   55    57     1     0     0
SMALL
bcc


@<TRIPOS>ATOM
      1 F23         1.5080    2.3610   -0.1800 f         1 HW5     -0.141900
      2 C23         2.3990    1.3490   -0.0420 ca        1 HW5      0.124900
      3 C22         2.5460    0.7160    1.2040 ca        1 HW5     -0.160000
      4 C21         3.4720   -0.3250    1.3470 ca        1 HW5     -0.027800
      5 C26         4.2330   -0.7320    0.2430 ca        1 HW5     -0.138000
      6 C25         4.0770   -0.1030   -0.9910 ca        1 HW5     -0.105000
      7 C24         3.1680    0.9390   -1.1470 ca        1 HW5     -0.167000
      8 C14         3.5910   -0.9940    2.6370 ce        1 HW5     -0.131200
      9 C13         4.7000   -1.1090    3.3750 c2        1 HW5     -0.144200
     10 C12         6.0290   -0.5400    3.0450 c3        1 HW5     -0.056200
     11 C11         7.1620   -1.5000    3.3420 c3        1 HW5     -0.081400
     12 C10         7.4780   -1.5490    4.8270 c3        1 HW5      0.129400
     13 O09         8.5450   -2.4850    4.9810 os        1 HW5     -0.421600
     14 C3'         8.9960   -2.5950    6.3280 c3        1 HW5      0.114100
     15 C4'         9.7750   -3.9190    6.4980 c3        1 HW5     -0.080700
     16 C5'        11.2130   -3.4880    6.8720 c3        1 HW5      0.140800
     17 N1'        11.3520   -2.0410    6.7370 n7        1 HW5     -0.789200
     18 C2'        10.0140   -1.4720    6.6600 c3        1 HW5      0.118800
     19 C08         9.7320   -4.7970    5.2630 c3        1 HW5     -0.121700
     20 C06        10.2220   -6.1900    5.5590 ca        1 HW5      0.452600
     21 C05         9.3640   -7.0560    6.2680 ca        1 HW5     -0.296300
     22 C04         9.7930   -8.3570    6.5480 ca        1 HW5     -0.005300
     23 C07         8.9150   -9.2980    7.2810 c3        1 HW5     -0.060800
     24 C03        11.0550   -8.7590    6.1130 ca        1 HW5     -0.303300
     25 C02        11.8640   -7.8340    5.3890 ca        1 HW5      0.632200
     26 N01        11.4500   -6.5510    5.1330 nb        1 HW5     -0.730000
     27 N02        13.0910   -8.2700    4.8590 nv        1 HW5     -0.924500
     28 H1          1.9360    1.0430    2.0580 ha        1 HW5      0.150000
     29 H2          4.9510   -1.5590    0.3520 ha        1 HW5      0.141000
     30 H3          4.6780   -0.4320   -1.8520 ha        1 HW5      0.138000
     31 H4          3.0410    1.4400   -2.1170 ha        1 HW5      0.149000
     32 H5          2.6420   -1.4250    3.0050 ha        1 HW5      0.132000
     33 H7          4.6550   -1.6520    4.3360 ha        1 HW5      0.122000
     34 H9          6.1690    0.4050    3.6390 hc        1 HW5      0.056700
     35 H10         6.0710   -0.2530    1.9590 hc        1 HW5      0.056700
     36 H11         8.0820   -1.1760    2.7880 hc        1 HW5      0.058200
     37 H12         6.9050   -2.5310    2.9840 hc        1 HW5      0.058200
     38 H13         7.7980   -0.5410    5.2030 h1        1 HW5      0.026700
     39 H14         6.5890   -1.8930    5.4200 h1        1 HW5      0.026700
     40 H15         8.1210   -2.5570    7.0290 h1        1 HW5      0.046700
     41 H16         9.3240   -4.4820    7.3580 hc        1 HW5      0.059700
     42 H17        11.9700   -4.0310    6.2450 h1        1 HW5      0.059200
     43 H18        11.4080   -3.7430    7.9500 h1        1 HW5      0.059200
     44 H19        11.8660   -1.8230    5.9020 hn        1 HW5      0.351800
     45 H21         9.7710   -1.0380    7.6680 h1        1 HW5      0.054200
     46 H22         9.9550   -0.6510    5.8980 h1        1 HW5      0.054200
     47 H23        10.3270   -4.3170    4.4410 hc        1 HW5      0.071700
     48 H24         8.6710   -4.8730    4.9000 hc        1 HW5      0.071700
     49 H25         8.3750   -6.7070    6.5930 ha        1 HW5      0.141000
     50 H26         8.2390   -9.8230    6.5600 hc        1 HW5      0.048700
     51 H27         8.2800   -8.7530    8.0230 hc        1 HW5      0.048700
     52 H28         9.5150  -10.0690    7.8240 hc        1 HW5      0.048700
     53 H29        11.4140   -9.7770    6.3150 ha        1 HW5      0.141000
     54 H30        13.5450   -8.9530    5.4230 hn        1 HW5      0.400300
     55 H31        13.6980   -7.5540    4.5260 hn        1 HW5      0.400300
@<TRIPOS>BOND
     1    1    2 1   
     2    2    3 ar  
     3    2    7 ar  
     4    3    4 ar  
     5    3   28 1   
     6    4    5 ar  
     7    4    8 1   
     8    5    6 ar  
     9    5   29 1   
    10    6    7 ar  
    11    6   30 1   
    12    7   31 1   
    13    8    9 2   
    14    8   32 1   
    15    9   10 1   
    16    9   33 1   
    17   10   11 1   
    18   10   34 1   
    19   10   35 1   
    20   11   12 1   
    21   11   36 1   
    22   11   37 1   
    23   12   13 1   
    24   12   38 1   
    25   12   39 1   
    26   13   14 1   
    27   14   15 1   
    28   14   18 1   
    29   14   40 1   
    30   15   16 1   
    31   15   19 1   
    32   15   41 1   
    33   16   17 1   
    34   16   42 1   
    35   16   43 1   
    36   17   18 1   
    37   17   44 1   
    38   18   45 1   
    39   18   46 1   
    40   19   20 1   
    41   19   47 1   
    42   19   48 1   
    43   20   21 ar  
    44   20   26 ar  
    45   21   22 ar  
    46   21   49 1   
    47   22   23 1   
    48   22   24 ar  
    49   23   50 1   
    50   23   51 1   
    51   23   52 1   
    52   24   25 ar  
    53   24   53 1   
    54   25   26 ar  
    55   25   27 1   
    56   27   54 1   
    57   27   55 1   
@<TRIPOS>SUBSTRUCTURE
     1 HW5         1 TEMP              0 ****  ****    0 ROOT
