@<TRIPOS>MOLECULE
HW5
   55    57     1     0     0
SMALL
bcc


@<TRIPOS>ATOM
      1 F23        -8.9080   -1.2700    2.2200 f         1 HW5     -0.142900
      2 C23        -8.0760   -0.9510    1.1980 ca        1 HW5      0.124900
      3 C22        -6.9580   -0.1360    1.4400 ca        1 HW5     -0.160000
      4 C21        -6.0930    0.1920    0.3870 ca        1 HW5     -0.024800
      5 C26        -6.3640   -0.2920   -0.9000 ca        1 HW5     -0.138000
      6 C25        -7.4760   -1.0990   -1.1330 ca        1 HW5     -0.105000
      7 C24        -8.3390   -1.4380   -0.0960 ca        1 HW5     -0.165000
      8 C14        -4.9430    1.0390    0.6650 ce        1 HW5     -0.126200
      9 C13        -3.8420    1.1060   -0.0960 c2        1 HW5     -0.144200
     10 C12        -2.7000    2.0000    0.2110 c3        1 HW5     -0.051200
     11 C11        -1.3750    1.2990   -0.0110 c3        1 HW5     -0.082400
     12 C10        -0.2250    2.2420    0.2950 c3        1 HW5      0.129400
     13 O09         0.9750    1.5100    0.0460 os        1 HW5     -0.414600
     14 C3'         2.1470    2.2930    0.2440 c3        1 HW5      0.115100
     15 C4'         3.3820    1.3650    0.2750 c3        1 HW5     -0.078700
     16 C5'         4.2170    1.7800   -0.9580 c3        1 HW5      0.141800
     17 N1'         3.7230    3.0500   -1.4820 n3        1 HW5     -0.787200
     18 C2'         2.3810    3.2560   -0.9520 c3        1 HW5      0.112800
     19 C08         3.0200   -0.1050    0.2610 c3        1 HW5     -0.113700
     20 C06         4.2220   -1.0030    0.3780 ca        1 HW5      0.451600
     21 C05         4.4950   -1.8930   -0.6810 ca        1 HW5     -0.291300
     22 C04         5.5960   -2.7520   -0.5800 ca        1 HW5     -0.006300
     23 C07         5.9040   -3.7050   -1.6710 c3        1 HW5     -0.060800
     24 C03         6.3870   -2.7030    0.5660 ca        1 HW5     -0.302300
     25 C02         6.0440   -1.7840    1.6030 ca        1 HW5      0.630200
     26 N01         4.9770   -0.9310    1.4960 nb        1 HW5     -0.734000
     27 N02         6.7780   -1.8060    2.8020 nh        1 HW5     -0.923500
     28 H1         -6.7680    0.2360    2.4580 ha        1 HW5      0.149000
     29 H2         -5.6990   -0.0300   -1.7360 ha        1 HW5      0.137000
     30 H3         -7.6770   -1.4720   -2.1490 ha        1 HW5      0.137000
     31 H4         -9.2180   -2.0740   -0.2720 ha        1 HW5      0.148000
     32 H5         -5.0230    1.6430    1.5860 ha        1 HW5      0.128000
     33 H7         -3.7290    0.4950   -1.0070 ha        1 HW5      0.127000
     34 H9         -2.7620    2.9020   -0.4580 hc        1 HW5      0.050200
     35 H10        -2.7570    2.3710    1.2700 hc        1 HW5      0.050200
     36 H11        -1.3000    0.3950    0.6470 hc        1 HW5      0.058700
     37 H12        -1.2940    0.9460   -1.0710 hc        1 HW5      0.058700
     38 H13        -0.2600    3.1490   -0.3650 h1        1 HW5      0.027700
     39 H14        -0.2480    2.5710    1.3690 h1        1 HW5      0.027700
     40 H15         2.0590    2.8650    1.2060 h1        1 HW5      0.042700
     41 H16         3.9610    1.5930    1.2100 hc        1 HW5      0.069700
     42 H17         5.3050    1.8430   -0.6940 h1        1 HW5      0.054700
     43 H18         4.1010    1.0130   -1.7730 h1        1 HW5      0.054700
     44 H19         4.3250    3.8000   -1.1930 hn        1 HW5      0.344800
     45 H21         1.6490    3.0100   -1.7700 h1        1 HW5      0.054700
     46 H22         2.2170    4.3200   -0.6410 h1        1 HW5      0.054700
     47 H23         2.3170   -0.3130    1.1140 hc        1 HW5      0.070200
     48 H24         2.4670   -0.3450   -0.6860 hc        1 HW5      0.070200
     49 H25         3.8550   -1.9080   -1.5720 ha        1 HW5      0.144000
     50 H26         5.2550   -4.6120   -1.5730 hc        1 HW5      0.049033
     51 H27         5.7080   -3.2400   -2.6680 hc        1 HW5      0.049033
     52 H28         6.9720   -4.0320   -1.6330 hc        1 HW5      0.049033
     53 H29         7.2520   -3.3700    0.6740 ha        1 HW5      0.141000
     54 H30         7.7380   -2.0340    2.6740 hn        1 HW5      0.399300
     55 H31         6.6270   -1.0370    3.4170 hn        1 HW5      0.399300
@<TRIPOS>BOND
     1    1    2 1   
     2    2    3 ar  
     3    2    7 ar  
     4    3    4 ar  
     5    3   28 1   
     6    4    5 ar  
     7    4    8 1   
     8    5    6 ar  
     9    5   29 1   
    10    6    7 ar  
    11    6   30 1   
    12    7   31 1   
    13    8    9 2   
    14    8   32 1   
    15    9   10 1   
    16    9   33 1   
    17   10   11 1   
    18   10   34 1   
    19   10   35 1   
    20   11   12 1   
    21   11   36 1   
    22   11   37 1   
    23   12   13 1   
    24   12   38 1   
    25   12   39 1   
    26   13   14 1   
    27   14   15 1   
    28   14   18 1   
    29   14   40 1   
    30   15   16 1   
    31   15   19 1   
    32   15   41 1   
    33   16   17 1   
    34   16   42 1   
    35   16   43 1   
    36   17   18 1   
    37   17   44 1   
    38   18   45 1   
    39   18   46 1   
    40   19   20 1   
    41   19   47 1   
    42   19   48 1   
    43   20   21 ar  
    44   20   26 ar  
    45   21   22 ar  
    46   21   49 1   
    47   22   23 1   
    48   22   24 ar  
    49   23   50 1   
    50   23   51 1   
    51   23   52 1   
    52   24   25 ar  
    53   24   53 1   
    54   25   26 ar  
    55   25   27 1   
    56   27   54 1   
    57   27   55 1   
@<TRIPOS>SUBSTRUCTURE
     1 HW5         1 TEMP              0 ****  ****    0 ROOT
