@<TRIPOS>MOLECULE
HW5
   55    57     1     0     0
SMALL
bcc


@<TRIPOS>ATOM
      1 F23         1.5280    2.4490   -0.0960 f         1 HW5     -0.141900
      2 C23         2.4150    1.4300    0.0140 ca        1 HW5      0.124900
      3 C22         2.5590    0.7620    1.2420 ca        1 HW5     -0.160000
      4 C21         3.4800   -0.2850    1.3570 ca        1 HW5     -0.027800
      5 C26         4.2390   -0.6670    0.2420 ca        1 HW5     -0.138000
      6 C25         4.0860   -0.0040   -0.9740 ca        1 HW5     -0.105000
      7 C24         3.1810    1.0460   -1.1020 ca        1 HW5     -0.167000
      8 C14         3.5970   -0.9900    2.6280 ce        1 HW5     -0.131200
      9 C13         4.7040   -1.1250    3.3650 c2        1 HW5     -0.144200
     10 C12         6.0320   -0.5460    3.0530 c3        1 HW5     -0.056200
     11 C11         7.1680   -1.5040    3.3490 c3        1 HW5     -0.081400
     12 C10         7.4740   -1.5650    4.8350 c3        1 HW5      0.129400
     13 O09         8.5410   -2.5010    4.9890 os        1 HW5     -0.421600
     14 C3'         8.9850   -2.6190    6.3380 c3        1 HW5      0.114100
     15 C4'         9.7650   -3.9430    6.5030 c3        1 HW5     -0.080700
     16 C5'        11.2010   -3.5140    6.8850 c3        1 HW5      0.140800
     17 N1'        11.3390   -2.0650    6.7610 n3        1 HW5     -0.789200
     18 C2'        10.0000   -1.4970    6.6820 c3        1 HW5      0.118800
     19 C08         9.7280   -4.8140    5.2620 c3        1 HW5     -0.121700
     20 C06        10.2190   -6.2080    5.5530 ca        1 HW5      0.452600
     21 C05         9.3600   -7.0790    6.2550 ca        1 HW5     -0.296300
     22 C04         9.7910   -8.3810    6.5290 ca        1 HW5     -0.005300
     23 C07         8.9120   -9.3260    7.2550 c3        1 HW5     -0.060800
     24 C03        11.0540   -8.7790    6.0950 ca        1 HW5     -0.303300
     25 C02        11.8640   -7.8490    5.3770 ca        1 HW5      0.632200
     26 N01        11.4490   -6.5660    5.1270 nb        1 HW5     -0.730000
     27 N02        13.0920   -8.2810    4.8480 nh        1 HW5     -0.924500
     28 H1          1.9500    1.0690    2.1050 ha        1 HW5      0.150000
     29 H2          4.9530   -1.4990    0.3290 ha        1 HW5      0.141000
     30 H3          4.6850   -0.3120   -1.8440 ha        1 HW5      0.138000
     31 H4          3.0570    1.5740   -2.0580 ha        1 HW5      0.148000
     32 H5          2.6470   -1.4310    2.9820 ha        1 HW5      0.132000
     33 H7          4.6570   -1.6940    4.3110 ha        1 HW5      0.123000
     34 H9          6.0830   -0.2470    1.9710 hc        1 HW5      0.056700
     35 H10         6.1630    0.3930    3.6590 hc        1 HW5      0.056700
     36 H11         8.0900   -1.1710    2.8040 hc        1 HW5      0.058200
     37 H12         6.9180   -2.5330    2.9790 hc        1 HW5      0.058200
     38 H13         7.7890   -0.5600    5.2230 h1        1 HW5      0.026700
     39 H14         6.5820   -1.9170    5.4190 h1        1 HW5      0.026700
     40 H15         8.1070   -2.5870    7.0350 h1        1 HW5      0.046700
     41 H16         9.3110   -4.5120    7.3580 hc        1 HW5      0.059700
     42 H17        11.3920   -3.7750    7.9620 h1        1 HW5      0.059200
     43 H18        11.9610   -4.0510    6.2580 h1        1 HW5      0.059200
     44 H19        11.8560   -1.8410    5.9290 hn        1 HW5      0.351800
     45 H21         9.9440   -0.6710    5.9250 h1        1 HW5      0.054200
     46 H22         9.7520   -1.0710    7.6920 h1        1 HW5      0.054200
     47 H23        10.3250   -4.3290    4.4450 hc        1 HW5      0.071700
     48 H24         8.6690   -4.8900    4.8950 hc        1 HW5      0.071700
     49 H25         8.3710   -6.7330    6.5790 ha        1 HW5      0.141000
     50 H26         8.2830   -8.7880    8.0060 hc        1 HW5      0.048700
     51 H27         8.2300   -9.8400    6.5310 hc        1 HW5      0.048700
     52 H28         9.5110  -10.1060    7.7860 hc        1 HW5      0.048700
     53 H29        11.4140   -9.7980    6.2910 ha        1 HW5      0.141000
     54 H30        13.5460   -8.9660    5.4090 hn        1 HW5      0.400300
     55 H31        13.6990   -7.5620    4.5200 hn        1 HW5      0.400300
@<TRIPOS>BOND
     1    1    2 1   
     2    2    3 ar  
     3    2    7 ar  
     4    3    4 ar  
     5    3   28 1   
     6    4    5 ar  
     7    4    8 1   
     8    5    6 ar  
     9    5   29 1   
    10    6    7 ar  
    11    6   30 1   
    12    7   31 1   
    13    8    9 2   
    14    8   32 1   
    15    9   10 1   
    16    9   33 1   
    17   10   11 1   
    18   10   34 1   
    19   10   35 1   
    20   11   12 1   
    21   11   36 1   
    22   11   37 1   
    23   12   13 1   
    24   12   38 1   
    25   12   39 1   
    26   13   14 1   
    27   14   15 1   
    28   14   18 1   
    29   14   40 1   
    30   15   16 1   
    31   15   19 1   
    32   15   41 1   
    33   16   17 1   
    34   16   42 1   
    35   16   43 1   
    36   17   18 1   
    37   17   44 1   
    38   18   45 1   
    39   18   46 1   
    40   19   20 1   
    41   19   47 1   
    42   19   48 1   
    43   20   21 ar  
    44   20   26 ar  
    45   21   22 ar  
    46   21   49 1   
    47   22   23 1   
    48   22   24 ar  
    49   23   50 1   
    50   23   51 1   
    51   23   52 1   
    52   24   25 ar  
    53   24   53 1   
    54   25   26 ar  
    55   25   27 1   
    56   27   54 1   
    57   27   55 1   
@<TRIPOS>SUBSTRUCTURE
     1 HW5         1 TEMP              0 ****  ****    0 ROOT
