@<TRIPOS>MOLECULE
HW6
   57    59     1     0     0
SMALL
bcc


@<TRIPOS>ATOM
      1 F23        -8.2290   -0.7860   -2.2880 f         1 HW6     -0.136900
      2 C23        -7.4350   -0.3200   -1.2950 ca        1 HW6      0.137900
      3 C24        -7.6880    0.9470   -0.7410 ca        1 HW6     -0.167000
      4 C22        -6.3660   -1.1080   -0.8300 ca        1 HW6     -0.166000
      5 C21        -5.5480   -0.6270    0.1940 ca        1 HW6     -0.041300
      6 C26        -5.7930    0.6330    0.7520 ca        1 HW6     -0.141000
      7 C25        -6.8570    1.4070    0.2820 ca        1 HW6      0.043400
      8 CL2        -7.1480    2.9360    0.9650 cl        1 HW6     -0.085400
      9 C14        -4.4180   -1.4540    0.7020 c3        1 HW6     -0.041100
     10 C13        -3.0760   -0.9070    0.2530 c3        1 HW6     -0.076400
     11 C12        -1.9400   -1.7380    0.8100 c3        1 HW6     -0.079400
     12 C11        -0.6020   -1.1940    0.3600 c3        1 HW6     -0.084400
     13 C10         0.5290   -2.0340    0.9270 c3        1 HW6      0.129400
     14 O09         1.7440   -1.4460    0.4630 os        1 HW6     -0.415600
     15 C3'         2.8970   -2.1690    0.8770 c3        1 HW6      0.115100
     16 C4'         4.1570   -1.3140    0.6150 c3        1 HW6     -0.078700
     17 C5'         4.9680   -2.1170   -0.4300 c3        1 HW6      0.140800
     18 N1'         4.4250   -3.4680   -0.5440 n3        1 HW6     -0.787200
     19 C2'         3.0840   -3.4550    0.0270 c3        1 HW6      0.112800
     20 C08         3.8360    0.0880    0.1430 c3        1 HW6     -0.113700
     21 C06         5.0700    0.9340   -0.0230 ca        1 HW6      0.450600
     22 C05         5.4070    1.3780   -1.3170 ca        1 HW6     -0.291300
     23 C04         6.5360    2.1880   -1.4850 ca        1 HW6     -0.006300
     24 C07         6.9050    2.6820   -2.8320 c3        1 HW6     -0.060800
     25 C03         7.2960    2.5260   -0.3670 ca        1 HW6     -0.301300
     26 C02         6.9030    2.0280    0.9120 ca        1 HW6      0.629200
     27 N01         5.7860    1.2530    1.0780 nb        1 HW6     -0.733000
     28 N02         7.7260    2.2810    2.0230 nh        1 HW6     -0.922500
     29 H1         -8.5270    1.5530   -1.1130 ha        1 HW6      0.163000
     30 H2         -6.1860   -2.0960   -1.2780 ha        1 HW6      0.153000
     31 H3         -5.1460    1.0080    1.5600 ha        1 HW6      0.152000
     32 H4         -4.4550   -1.4770    1.8250 hc        1 HW6      0.053700
     33 H5         -4.5260   -2.5140    0.3460 hc        1 HW6      0.053700
     34 H6         -3.0260   -0.9010   -0.8670 hc        1 HW6      0.048700
     35 H7         -2.9710    0.1570    0.5960 hc        1 HW6      0.048700
     36 H8         -1.9890   -1.7410    1.9310 hc        1 HW6      0.041200
     37 H9         -2.0490   -2.8010    0.4700 hc        1 HW6      0.041200
     38 H10        -0.5380   -1.1940   -0.7590 hc        1 HW6      0.056700
     39 H11        -0.4800   -0.1320    0.7000 hc        1 HW6      0.056700
     40 H12         0.5130   -2.0260    2.0500 h1        1 HW6      0.027200
     41 H13         0.4610   -3.0960    0.5690 h1        1 HW6      0.027200
     42 H14         2.8120   -2.4210    1.9680 h1        1 HW6      0.041700
     43 H15         4.7410   -1.2560    1.5720 hc        1 HW6      0.070700
     44 H16         4.8740   -1.6310   -1.4400 h1        1 HW6      0.055700
     45 H17         6.0550   -2.1350   -0.1540 h1        1 HW6      0.055700
     46 H18         5.0050   -4.1150   -0.0430 hn        1 HW6      0.345800
     47 H20         2.8880   -4.3700    0.6450 h1        1 HW6      0.054700
     48 H21         2.3500   -3.4410   -0.8260 h1        1 HW6      0.054700
     49 H22         3.2840    0.0390   -0.8340 hc        1 HW6      0.068700
     50 H23         3.1460    0.5710    0.8880 hc        1 HW6      0.068700
     51 H24         4.7930    1.0900   -2.1800 ha        1 HW6      0.144000
     52 H25         6.1860    3.4770   -3.1550 hc        1 HW6      0.049367
     53 H26         7.9350    3.1150   -2.8380 hc        1 HW6      0.049367
     54 H27         6.8640    1.8500   -3.5770 hc        1 HW6      0.049367
     55 H28         8.1910    3.1530   -0.4710 ha        1 HW6      0.141000
     56 H29         8.1850    3.1640    1.9800 hn        1 HW6      0.398800
     57 H30         7.3220    2.0860    2.9130 hn        1 HW6      0.398800
@<TRIPOS>BOND
     1    1    2 1   
     2    2    3 ar  
     3    2    4 ar  
     4    3    7 ar  
     5    3   29 1   
     6    4    5 ar  
     7    4   30 1   
     8    5    6 ar  
     9    5    9 1   
    10    6    7 ar  
    11    6   31 1   
    12    7    8 1   
    13    9   10 1   
    14    9   32 1   
    15    9   33 1   
    16   10   11 1   
    17   10   34 1   
    18   10   35 1   
    19   11   12 1   
    20   11   36 1   
    21   11   37 1   
    22   12   13 1   
    23   12   38 1   
    24   12   39 1   
    25   13   14 1   
    26   13   40 1   
    27   13   41 1   
    28   14   15 1   
    29   15   16 1   
    30   15   19 1   
    31   15   42 1   
    32   16   17 1   
    33   16   20 1   
    34   16   43 1   
    35   17   18 1   
    36   17   44 1   
    37   17   45 1   
    38   18   19 1   
    39   18   46 1   
    40   19   47 1   
    41   19   48 1   
    42   20   21 1   
    43   20   49 1   
    44   20   50 1   
    45   21   22 ar  
    46   21   27 ar  
    47   22   23 ar  
    48   22   51 1   
    49   23   24 1   
    50   23   25 ar  
    51   24   52 1   
    52   24   53 1   
    53   24   54 1   
    54   25   26 ar  
    55   25   55 1   
    56   26   27 ar  
    57   26   28 1   
    58   28   56 1   
    59   28   57 1   
@<TRIPOS>SUBSTRUCTURE
     1 HW6         1 TEMP              0 ****  ****    0 ROOT
