@<TRIPOS>MOLECULE
HW6
   57    55     1     0     0
SMALL
bcc


@<TRIPOS>ATOM
      1 F23        -6.6310   -5.6080   -1.2940 f         1 HW6     -0.102000
      2 C23        -5.3810   -5.4110   -0.8510 c2        1 HW6      0.102000
      3 C24        -4.3630   -6.2540   -1.2640 c2        1 HW6     -0.167000
      4 C22        -5.1340   -4.4510    0.1170 c1        1 HW6     -0.166000
      5 C21        -3.8710   -4.3340    0.6690 c1        1 HW6     -0.034000
      6 C26        -2.8530   -5.1770    0.2550 c1        1 HW6     -0.140000
      7 C25        -3.0990   -6.1370   -0.7120 c1        1 HW6     -0.034000
      8 CL2        -1.7780   -7.0730   -1.3610 cl        1 HW6     -0.006000
      9 C14        -3.6070   -3.2990    1.7600 c3        1 HW6     -0.127000
     10 C13        -3.1600   -1.9570    1.1080 c3        1 HW6     -0.156000
     11 C12        -2.2850   -1.1610    2.1090 c3        1 HW6     -0.156000
     12 C11        -1.3750   -0.1850    1.3360 c3        1 HW6     -0.196000
     13 C10        -1.1300    1.0640    2.1820 c3        1 HW6     -0.021000
     14 O09         0.1520    1.6390    1.8330 os        1 HW6     -0.268000
     15 C3'         0.0740    2.8820    1.3610 c3        1 HW6      0.001000
     16 C4'         1.1790    3.1330    0.3290 c3        1 HW6     -0.133000
     17 C5'         1.7430    4.2960    0.7000 c3        1 HW6     -0.093000
     18 N1'         1.5190    4.4200    2.2850 n3        1 HW6     -0.267000
     19 C2'         0.3300    3.9290    2.5230 c3        1 HW6     -0.112000
     20 C08         2.2570    1.9580    0.3700 c3        1 HW6     -0.099000
     21 C06         2.9480    1.8430   -1.0090 c2        1 HW6      0.028000
     22 C05         4.3390    1.7260   -1.0820 c2        1 HW6     -0.226000
     23 C04         4.9420    1.4730   -2.2860 c1        1 HW6      0.001000
     24 C07         6.4660    1.3360   -2.3660 c3        1 HW6     -0.186000
     25 C03         4.1850    1.3350   -3.4130 c1        1 HW6     -0.237000
     26 C02         2.8000    1.4520   -3.3400 c1        1 HW6      0.109000
     27 N01         2.1950    1.7050   -2.1340 n1        1 HW6     -0.208000
     28 N02         2.0290    1.4460   -4.5300 n3        1 HW6     -0.321000
     29 H1         -4.5370   -6.9340   -1.9490 ha        1 HW6      0.163000
     30 H2         -5.8530   -3.8560    0.4090 ha        1 HW6      0.152000
     31 H3         -1.9610   -5.0940    0.6450 ha        1 HW6      0.152000
     32 H4         -2.8940   -3.6270    2.3600 hc        1 HW6      0.092500
     33 H5         -4.4360   -3.1520    2.2820 hc        1 HW6      0.092500
     34 H6         -2.6460   -2.1420    0.3040 hc        1 HW6      0.088500
     35 H7         -3.9530   -1.4270    0.8730 hc        1 HW6      0.088500
     36 H8         -2.8620   -0.6560    2.7180 hc        1 HW6      0.079500
     37 H9         -1.7350   -1.7800    2.6230 hc        1 HW6      0.079500
     38 H10        -0.5270   -0.6160    1.1440 hc        1 HW6      0.092500
     39 H11        -1.8100    0.0700    0.4960 hc        1 HW6      0.092500
     40 H12        -1.1320    0.8200    3.1340 h1        1 HW6      0.086500
     41 H13        -1.8380    1.7180    2.0110 h1        1 HW6      0.086500
     42 H14        -0.8030    3.0350    0.9580 h1        1 HW6      0.086000
     43 H15         0.7960    3.2120   -0.5660 hc        1 HW6      0.105000
     44 H16         1.3070    5.0450    0.2370 h1        1 HW6      0.092500
     45 H17         2.6970    4.2850    0.4970 h1        1 HW6      0.092500
     46 H18         1.5400    5.3100    2.5300 hn        1 HW6      0.139000
     47 H20         0.3170    3.4780    3.3970 h1        1 HW6      0.097500
     48 H21        -0.3440    4.6390    2.4950 h1        1 HW6      0.097500
     49 H22         2.9280    2.1540    1.0560 hc        1 HW6      0.107000
     50 H23         1.8120    1.1150    0.5820 hc        1 HW6      0.107000
     51 H24         4.8740    1.7720   -0.2700 ha        1 HW6      0.145000
     52 H25         6.7080    0.3950   -2.3560 hc        1 HW6      0.088667
     53 H26         6.8770    1.7880   -1.5960 hc        1 HW6      0.088667
     54 H27         6.7920    1.7520   -3.2040 hc        1 HW6      0.088667
     55 H28         4.6200    1.1530   -4.2790 ha        1 HW6      0.141000
     56 H29         1.1250    1.4300   -4.4830 hn        1 HW6      0.195000
     57 H30         2.4450    1.5230   -5.3460 hn        1 HW6      0.195000
@<TRIPOS>BOND
     1    1    2 1   
     2    2    3 1   
     3    2    4 1   
     4    3    7 1   
     5    3   29 1   
     6    4   30 1   
     7    5    6 1   
     8    5    9 1   
     9    6   31 1   
    10    7    8 1   
    11    9   10 1   
    12    9   32 1   
    13    9   33 1   
    14   10   11 1   
    15   10   34 1   
    16   10   35 1   
    17   11   12 1   
    18   11   36 1   
    19   11   37 1   
    20   12   13 1   
    21   12   38 1   
    22   12   39 1   
    23   13   14 1   
    24   13   40 1   
    25   13   41 1   
    26   14   15 1   
    27   15   16 1   
    28   15   19 1   
    29   15   42 1   
    30   16   17 1   
    31   16   20 1   
    32   16   43 1   
    33   17   18 1   
    34   17   44 1   
    35   17   45 1   
    36   18   19 1   
    37   18   46 1   
    38   19   47 1   
    39   19   48 1   
    40   20   21 1   
    41   20   49 1   
    42   20   50 1   
    43   21   22 1   
    44   21   27 1   
    45   22   23 1   
    46   22   51 1   
    47   23   24 1   
    48   24   52 1   
    49   24   53 1   
    50   24   54 1   
    51   25   26 1   
    52   25   55 1   
    53   26   28 1   
    54   28   56 1   
    55   28   57 1   
@<TRIPOS>SUBSTRUCTURE
     1 HW6         1 TEMP              0 ****  ****    0 ROOT
