@<TRIPOS>MOLECULE
HW6
   57    59     1     0     0
SMALL
bcc


@<TRIPOS>ATOM
      1 F23        -0.0330   -0.4270    0.1170 f         1 HW6     -0.136900
      2 C23         1.3000   -0.1980    0.0450 ca        1 HW6      0.137900
      3 C24         2.0300    0.0300    1.2250 ca        1 HW6     -0.167000
      4 C22         1.9400   -0.1920   -1.2080 ca        1 HW6     -0.166000
      5 C21         3.3140    0.0430   -1.2810 ca        1 HW6     -0.041300
      6 C26         4.0480    0.2710   -0.1110 ca        1 HW6     -0.140000
      7 C25         3.4030    0.2630    1.1270 ca        1 HW6      0.043400
      8 Cl2         4.3010    0.5410    2.5430 cl        1 HW6     -0.084400
      9 C14         4.0060    0.0430   -2.6000 c3        1 HW6     -0.041100
     10 C13         4.4020    1.4450   -3.0250 c3        1 HW6     -0.076400
     11 C12         5.1310    1.4230   -4.3520 c3        1 HW6     -0.079400
     12 C11         5.5280    2.8200   -4.7750 c3        1 HW6     -0.084400
     13 C10         6.2540    2.7830   -6.1080 c3        1 HW6      0.130400
     14 O09         6.6060    4.1320   -6.4150 os        1 HW6     -0.422600
     15 C3'         7.2540    4.2620   -7.6770 c3        1 HW6      0.113100
     16 C4'         8.0430    5.5900   -7.7100 c3        1 HW6     -0.079700
     17 C5'         7.3480    6.4390   -8.8010 c3        1 HW6      0.140800
     18 N1'         6.1440    5.7610   -9.2720 n7        1 HW6     -0.788200
     19 C2'         6.2080    4.3780   -8.8170 c3        1 HW6      0.117800
     20 C08         8.0770    6.2890   -6.3660 c3        1 HW6     -0.117700
     21 C06         8.9430    7.5210   -6.3850 ca        1 HW6      0.451600
     22 C05         8.3190    8.7790   -6.2660 ca        1 HW6     -0.295300
     23 C04         9.1120    9.9330   -6.2700 ca        1 HW6     -0.005300
     24 C07         8.4840   11.2700   -6.1620 c3        1 HW6     -0.060800
     25 C03        10.4940    9.8020   -6.3860 ca        1 HW6     -0.301300
     26 C02        11.0570    8.4940   -6.4910 ca        1 HW6      0.632200
     27 N01        10.2790    7.3660   -6.5070 nb        1 HW6     -0.731000
     28 N02        12.4560    8.3550   -6.5040 nv        1 HW6     -0.924500
     29 H1          1.5180    0.0230    2.1980 ha        1 HW6      0.163000
     30 H2          1.3500   -0.3740   -2.1180 ha        1 HW6      0.152000
     31 H3          5.1320    0.4560   -0.1740 ha        1 HW6      0.152000
     32 H4          4.9250   -0.6000   -2.5340 hc        1 HW6      0.053200
     33 H5          3.3400   -0.4080   -3.3840 hc        1 HW6      0.053200
     34 H6          3.4860    2.0870   -3.1080 hc        1 HW6      0.048700
     35 H7          5.0590    1.9030   -2.2390 hc        1 HW6      0.048700
     36 H8          6.0460    0.7780   -4.2680 hc        1 HW6      0.041200
     37 H9          4.4720    0.9630   -5.1350 hc        1 HW6      0.041200
     38 H10         6.1950    3.2840   -4.0020 hc        1 HW6      0.056200
     39 H11         4.6200    3.4710   -4.8630 hc        1 HW6      0.056200
     40 H12         5.5920    2.3690   -6.9150 h1        1 HW6      0.027200
     41 H13         7.1840    2.1580   -6.0430 h1        1 HW6      0.027200
     42 H14         7.9380    3.3900   -7.8510 h1        1 HW6      0.050700
     43 H15         9.0940    5.3640   -8.0320 hc        1 HW6      0.074700
     44 H16         7.1170    7.4680   -8.4140 h1        1 HW6      0.053200
     45 H17         8.0360    6.5480   -9.6840 h1        1 HW6      0.053200
     46 H18         5.3290    6.2070   -8.8940 hn        1 HW6      0.348800
     47 H20         6.5380    3.7490   -9.6880 h1        1 HW6      0.054700
     48 H21         5.2070    4.0090   -8.4710 h1        1 HW6      0.054700
     49 H22         8.4610    5.5690   -5.5920 hc        1 HW6      0.067700
     50 H23         7.0350    6.5740   -6.0620 hc        1 HW6      0.067700
     51 H24         7.2280    8.8520   -6.1720 ha        1 HW6      0.142000
     52 H25         8.0080   11.5460   -7.1370 hc        1 HW6      0.049367
     53 H26         7.6900   11.2670   -5.3740 hc        1 HW6      0.049367
     54 H27         9.2370   12.0540   -5.9040 hc        1 HW6      0.049367
     55 H28        11.1400   10.6890   -6.3820 ha        1 HW6      0.141000
     56 H29        12.8000    7.4560   -6.7610 hn        1 HW6      0.400300
     57 H30        12.9250    9.1080   -6.9560 hn        1 HW6      0.400300
@<TRIPOS>BOND
     1    1    2 1   
     2    2    3 ar  
     3    2    4 ar  
     4    3    7 ar  
     5    3   29 1   
     6    4    5 ar  
     7    4   30 1   
     8    5    6 ar  
     9    5    9 1   
    10    6    7 ar  
    11    6   31 1   
    12    7    8 1   
    13    9   10 1   
    14    9   32 1   
    15    9   33 1   
    16   10   11 1   
    17   10   34 1   
    18   10   35 1   
    19   11   12 1   
    20   11   36 1   
    21   11   37 1   
    22   12   13 1   
    23   12   38 1   
    24   12   39 1   
    25   13   14 1   
    26   13   40 1   
    27   13   41 1   
    28   14   15 1   
    29   15   16 1   
    30   15   19 1   
    31   15   42 1   
    32   16   17 1   
    33   16   20 1   
    34   16   43 1   
    35   17   18 1   
    36   17   44 1   
    37   17   45 1   
    38   18   19 1   
    39   18   46 1   
    40   19   47 1   
    41   19   48 1   
    42   20   21 1   
    43   20   49 1   
    44   20   50 1   
    45   21   22 ar  
    46   21   27 ar  
    47   22   23 ar  
    48   22   51 1   
    49   23   24 1   
    50   23   25 ar  
    51   24   52 1   
    52   24   53 1   
    53   24   54 1   
    54   25   26 ar  
    55   25   55 1   
    56   26   27 ar  
    57   26   28 1   
    58   28   56 1   
    59   28   57 1   
@<TRIPOS>SUBSTRUCTURE
     1 HW6         1 TEMP              0 ****  ****    0 ROOT
