@<TRIPOS>MOLECULE
HW6
   57    59     1     0     0
SMALL
bcc


@<TRIPOS>ATOM
      1 F23        -0.0180   -0.4070    0.1460 f         1 HW6     -0.136900
      2 C23         1.3170   -0.1920    0.0650 ca        1 HW6      0.137900
      3 C24         2.0580    0.0190    1.2400 ca        1 HW6     -0.167000
      4 C22         1.9460   -0.1840   -1.1940 ca        1 HW6     -0.166000
      5 C21         3.3210    0.0380   -1.2770 ca        1 HW6     -0.041300
      6 C26         4.0680    0.2490   -0.1120 ca        1 HW6     -0.140000
      7 C25         3.4330    0.2390    1.1320 ca        1 HW6      0.043400
      8 CL2         4.3460    0.4960    2.5430 cl        1 HW6     -0.084400
      9 C14         4.0020    0.0420   -2.6020 c3        1 HW6     -0.041100
     10 C13         4.4050    1.4430   -3.0210 c3        1 HW6     -0.076400
     11 C12         5.1230    1.4240   -4.3540 c3        1 HW6     -0.079400
     12 C11         5.5260    2.8210   -4.7710 c3        1 HW6     -0.084400
     13 C10         6.2420    2.7870   -6.1100 c3        1 HW6      0.130400
     14 O09         6.5980    4.1360   -6.4130 os        1 HW6     -0.422600
     15 C3'         7.2390    4.2680   -7.6790 c3        1 HW6      0.113100
     16 C4'         8.0320    5.5950   -7.7110 c3        1 HW6     -0.079700
     17 C5'         7.3350    6.4490   -8.7960 c3        1 HW6      0.140800
     18 N1'         6.1250    5.7770   -9.2620 n3        1 HW6     -0.788200
     19 C2'         6.1870    4.3920   -8.8120 c3        1 HW6      0.117800
     20 C08         8.0750    6.2890   -6.3650 c3        1 HW6     -0.117700
     21 C06         8.9430    7.5190   -6.3840 ca        1 HW6      0.451600
     22 C05         8.3230    8.7790   -6.2590 ca        1 HW6     -0.295300
     23 C04         9.1190    9.9300   -6.2620 ca        1 HW6     -0.005300
     24 C07         8.5000   11.2680   -6.1210 c3        1 HW6     -0.060800
     25 C03        10.5000    9.7960   -6.3880 ca        1 HW6     -0.302300
     26 C02        11.0600    8.4870   -6.5000 ca        1 HW6      0.632200
     27 N01        10.2790    7.3610   -6.5140 nb        1 HW6     -0.731000
     28 N02        12.4570    8.3450   -6.5230 nh        1 HW6     -0.923500
     29 H1          1.5550    0.0100    2.2170 ha        1 HW6      0.163000
     30 H2          1.3460   -0.3520   -2.1000 ha        1 HW6      0.152000
     31 H3          5.1530    0.4230   -0.1820 ha        1 HW6      0.152000
     32 H4          4.9160   -0.6090   -2.5480 hc        1 HW6      0.053200
     33 H5          3.3260   -0.4000   -3.3830 hc        1 HW6      0.053200
     34 H6          3.4940    2.0930   -3.0920 hc        1 HW6      0.048700
     35 H7          5.0720    1.8910   -2.2370 hc        1 HW6      0.048700
     36 H8          4.4550    0.9740   -5.1350 hc        1 HW6      0.041200
     37 H9          6.0340    0.7730   -4.2820 hc        1 HW6      0.041200
     38 H10         6.2020    3.2760   -4.0010 hc        1 HW6      0.056200
     39 H11         4.6220    3.4780   -4.8490 hc        1 HW6      0.056200
     40 H12         5.5740    2.3800   -6.9140 h1        1 HW6      0.027200
     41 H13         7.1710    2.1570   -6.0540 h1        1 HW6      0.027200
     42 H14         7.9190    3.3950   -7.8590 h1        1 HW6      0.050700
     43 H15         9.0810    5.3670   -8.0380 hc        1 HW6      0.074700
     44 H16         7.1100    7.4780   -8.4060 h1        1 HW6      0.053200
     45 H17         8.0180    6.5570   -9.6820 h1        1 HW6      0.053200
     46 H18         5.3140    6.2250   -8.8780 hn        1 HW6      0.348800
     47 H20         6.5090    3.7640   -9.6870 h1        1 HW6      0.054700
     48 H21         5.1860    4.0260   -8.4600 h1        1 HW6      0.054700
     49 H22         8.4600    5.5660   -5.5950 hc        1 HW6      0.067700
     50 H23         7.0340    6.5760   -6.0560 hc        1 HW6      0.067700
     51 H24         7.2330    8.8540   -6.1600 ha        1 HW6      0.142000
     52 H25         9.1670   12.0670   -6.5300 hc        1 HW6      0.049033
     53 H26         7.5220   11.3110   -6.6600 hc        1 HW6      0.049033
     54 H27         8.3140   11.4860   -5.0390 hc        1 HW6      0.049033
     55 H28        11.1480   10.6820   -6.3890 ha        1 HW6      0.141000
     56 H29        12.7970    7.4450   -6.7850 hn        1 HW6      0.400300
     57 H30        12.9250    9.0980   -6.9760 hn        1 HW6      0.400300
@<TRIPOS>BOND
     1    1    2 1   
     2    2    3 ar  
     3    2    4 ar  
     4    3    7 ar  
     5    3   29 1   
     6    4    5 ar  
     7    4   30 1   
     8    5    6 ar  
     9    5    9 1   
    10    6    7 ar  
    11    6   31 1   
    12    7    8 1   
    13    9   10 1   
    14    9   32 1   
    15    9   33 1   
    16   10   11 1   
    17   10   34 1   
    18   10   35 1   
    19   11   12 1   
    20   11   36 1   
    21   11   37 1   
    22   12   13 1   
    23   12   38 1   
    24   12   39 1   
    25   13   14 1   
    26   13   40 1   
    27   13   41 1   
    28   14   15 1   
    29   15   16 1   
    30   15   19 1   
    31   15   42 1   
    32   16   17 1   
    33   16   20 1   
    34   16   43 1   
    35   17   18 1   
    36   17   44 1   
    37   17   45 1   
    38   18   19 1   
    39   18   46 1   
    40   19   47 1   
    41   19   48 1   
    42   20   21 1   
    43   20   49 1   
    44   20   50 1   
    45   21   22 ar  
    46   21   27 ar  
    47   22   23 ar  
    48   22   51 1   
    49   23   24 1   
    50   23   25 ar  
    51   24   52 1   
    52   24   53 1   
    53   24   54 1   
    54   25   26 ar  
    55   25   55 1   
    56   26   27 ar  
    57   26   28 1   
    58   28   56 1   
    59   28   57 1   
@<TRIPOS>SUBSTRUCTURE
     1 HW6         1 TEMP              0 ****  ****    0 ROOT
