@<TRIPOS>MOLECULE
HW6
   58    60     1     0     0
SMALL
bcc


@<TRIPOS>ATOM
      1 F23        -0.0220   -0.1310    0.2280 f         1 HW6     -0.131900
      2 C23         1.3230   -0.0330    0.1050 ca        1 HW6      0.141900
      3 C24         2.1210    0.0710    1.2590 ca        1 HW6     -0.164000
      4 C22         1.9070   -0.0350   -1.1750 ca        1 HW6     -0.165000
      5 C21         3.2930    0.0680   -1.3010 ca        1 HW6     -0.046300
      6 C26         4.0950    0.1690   -0.1580 ca        1 HW6     -0.143000
      7 C25         3.5050    0.1710    1.1070 ca        1 HW6      0.044400
      8 CL2         4.4860    0.2960    2.4890 cl        1 HW6     -0.081400
      9 C14         3.9260    0.0600   -2.6500 c3        1 HW6     -0.039100
     10 C13         4.4080    1.4440   -3.0440 c3        1 HW6     -0.076400
     11 C12         5.0930    1.4160   -4.3940 c3        1 HW6     -0.080400
     12 C11         5.5580    2.8000   -4.7910 c3        1 HW6     -0.083400
     13 C10         6.2610    2.7560   -6.1350 c3        1 HW6      0.129400
     14 O09         6.6480    4.1010   -6.4340 os        1 HW6     -0.437600
     15 C3'         7.2750    4.2310   -7.7050 c3        1 HW6      0.119100
     16 C4'         8.0510    5.5690   -7.7410 c3        1 HW6     -0.086700
     17 C5'         7.3110    6.4340   -8.7900 c3        1 HW6      0.147800
     18 N1'         6.1360    5.7280   -9.2810 n3        1 HW6     -0.785200
     19 C2'         6.2210    4.3430   -8.8370 c3        1 HW6      0.118800
     20 C08         8.1190    6.2320   -6.3800 c3        1 HW6     -0.129700
     21 C06         8.9470    7.4870   -6.3940 ca        1 HW6      0.473600
     22 C05         8.2960    8.7410   -6.2430 ca        1 HW6     -0.200300
     23 C04         9.0420    9.9200   -6.2390 ca        1 HW6      0.000700
     24 C07         8.3890   11.2400   -6.0980 c3        1 HW6     -0.080800
     25 C03        10.4410    9.8360   -6.3850 ca        1 HW6     -0.217300
     26 C02        10.9940    8.5530   -6.5290 ca        1 HW6      0.446200
     27 N01        10.2860    7.3900   -6.5360 nb        1 HW6     -0.669000
     28 N02        12.4620    8.4120   -6.6850 n4        1 HW6     -0.818300
     29 H1          1.6510    0.0680    2.2530 ha        1 HW6      0.167000
     30 H2          1.2640   -0.1200   -2.0630 ha        1 HW6      0.153000
     31 H3          5.1880    0.2440   -0.2620 ha        1 HW6      0.148000
     32 H4          4.7960   -0.6510   -2.6460 hc        1 HW6      0.055200
     33 H5          3.1960   -0.3130   -3.4160 hc        1 HW6      0.055200
     34 H6          3.5370    2.1500   -3.0770 hc        1 HW6      0.047700
     35 H7          5.1190    1.8290   -2.2660 hc        1 HW6      0.047700
     36 H8          4.3850    1.0180   -5.1680 hc        1 HW6      0.045200
     37 H9          5.9710    0.7180   -4.3570 hc        1 HW6      0.045200
     38 H10         6.2580    3.2100   -4.0170 hc        1 HW6      0.053700
     39 H11         4.6830    3.4990   -4.8510 hc        1 HW6      0.053700
     40 H12         7.1760    2.1070   -6.0930 h1        1 HW6      0.034700
     41 H13         5.5760    2.3730   -6.9370 h1        1 HW6      0.034700
     42 H14         7.9650    3.3660   -7.8850 h1        1 HW6      0.058700
     43 H15         9.0910    5.3580   -8.1040 hc        1 HW6      0.065700
     44 H16         7.9870    6.6090   -9.6720 h1        1 HW6      0.044200
     45 H17         7.0400    7.4360   -8.3590 h1        1 HW6      0.044200
     46 H18         5.2970    6.1560   -8.9340 hn        1 HW6      0.359800
     47 H20         6.5550    3.7250   -9.7160 h1        1 HW6      0.067200
     48 H21         5.2270    3.9580   -8.4880 h1        1 HW6      0.067200
     49 H22         7.0810    6.4820   -6.0290 hc        1 HW6      0.090700
     50 H23         8.5470    5.5000   -5.6400 hc        1 HW6      0.090700
     51 H24         7.2000    8.7720   -6.1290 ha        1 HW6      0.183000
     52 H25         8.1120   11.6340   -7.1100 hc        1 HW6      0.076033
     53 H26         9.0710   11.9790   -5.6080 hc        1 HW6      0.076033
     54 H27         7.4550   11.1600   -5.4870 hc        1 HW6      0.076033
     55 H28        11.0490   10.7530   -6.3820 ha        1 HW6      0.166000
     56 H29        12.8350    7.8040   -5.9450 hn        1 HW6      0.469467
     57 H30        12.8980    9.3370   -6.6230 hn        1 HW6      0.469467
     58 H023       12.6730    7.9900   -7.5980 hn        1 HW6      0.469467
@<TRIPOS>BOND
     1    1    2 1   
     2    2    3 ar  
     3    2    4 ar  
     4    3    7 ar  
     5    3   29 1   
     6    4    5 ar  
     7    4   30 1   
     8    5    6 ar  
     9    5    9 1   
    10    6    7 ar  
    11    6   31 1   
    12    7    8 1   
    13    9   10 1   
    14    9   32 1   
    15    9   33 1   
    16   10   11 1   
    17   10   34 1   
    18   10   35 1   
    19   11   12 1   
    20   11   36 1   
    21   11   37 1   
    22   12   13 1   
    23   12   38 1   
    24   12   39 1   
    25   13   14 1   
    26   13   40 1   
    27   13   41 1   
    28   14   15 1   
    29   15   16 1   
    30   15   19 1   
    31   15   42 1   
    32   16   17 1   
    33   16   20 1   
    34   16   43 1   
    35   17   18 1   
    36   17   44 1   
    37   17   45 1   
    38   18   19 1   
    39   18   46 1   
    40   19   47 1   
    41   19   48 1   
    42   20   21 1   
    43   20   49 1   
    44   20   50 1   
    45   21   22 ar  
    46   21   27 ar  
    47   22   23 ar  
    48   22   51 1   
    49   23   24 1   
    50   23   25 ar  
    51   24   52 1   
    52   24   53 1   
    53   24   54 1   
    54   25   26 ar  
    55   25   55 1   
    56   26   27 ar  
    57   26   28 1   
    58   28   56 1   
    59   28   57 1   
    60   28   58 1   
@<TRIPOS>SUBSTRUCTURE
     1 HW6         1 TEMP              0 ****  ****    0 ROOT
