@<TRIPOS>MOLECULE
HW7
   55    57     1     0     0
SMALL
bcc


@<TRIPOS>ATOM
      1 Cl2         0.0820    0.2200    0.3140 cl        1 HW7     -0.082400
      2 C25         1.7630    0.0300    0.1570 ca        1 HW7      0.076400
      3 C24         2.5420   -0.1160    1.3020 ca        1 HW7     -0.199000
      4 C23         3.9360   -0.2740    1.1580 ca        1 HW7      0.167900
      5 F23         4.7060   -0.4160    2.2620 f         1 HW7     -0.132900
      6 C22         4.5350   -0.2840   -0.1100 ca        1 HW7     -0.200000
      7 C26         2.3290    0.0230   -1.1220 ca        1 HW7     -0.221000
      8 C21         3.7150   -0.1340   -1.2430 ca        1 HW7      0.165100
      9 O14         4.3960   -0.1580   -2.4410 os        1 HW7     -0.325900
     10 C13         3.5960   -0.0080   -3.6230 c3        1 HW7      0.128400
     11 C12         4.5740   -0.0670   -4.7850 c3        1 HW7     -0.085400
     12 C11         3.8290    0.0680   -6.0940 c3        1 HW7     -0.084400
     13 C10         4.8030    0.0160   -7.2580 c3        1 HW7      0.131400
     14 O09         4.0210    0.1540   -8.4440 os        1 HW7     -0.423600
     15 C3'         4.8010    0.0850   -9.6340 c3        1 HW7      0.113100
     16 C2'         5.0160   -1.3910  -10.0600 c3        1 HW7      0.117800
     17 C4'         4.0160    0.7360  -10.7950 c3        1 HW7     -0.080700
     18 C5'         3.7440   -0.4190  -11.7880 c3        1 HW7      0.140800
     19 N1'         4.1670   -1.6900  -11.2060 n7        1 HW7     -0.788200
     20 C08         2.7430    1.4190  -10.3380 c3        1 HW7     -0.116700
     21 C06         2.0520    2.1470  -11.4600 ca        1 HW7      0.451600
     22 N01         2.6370    3.2560  -11.9620 nb        1 HW7     -0.731000
     23 C05         0.8240    1.6410  -11.9300 ca        1 HW7     -0.296300
     24 C04         0.1640    2.3150  -12.9650 ca        1 HW7     -0.005300
     25 C07        -1.1210    1.7990  -13.4910 c3        1 HW7     -0.060800
     26 C03         0.7400    3.4670  -13.4950 ca        1 HW7     -0.301300
     27 C02         1.9820    3.9270  -12.9620 ca        1 HW7      0.633200
     28 N02         2.5110    5.1430  -13.4240 nv        1 HW7     -0.924500
     29 H1          2.0940   -0.1110    2.3060 ha        1 HW7      0.165000
     30 H2          5.6200   -0.4070   -0.2230 ha        1 HW7      0.169000
     31 H3          1.6880    0.1410   -2.0070 ha        1 HW7      0.156000
     32 H4          3.0630    0.9780   -3.5920 h1        1 HW7      0.045200
     33 H5          2.8500   -0.8430   -3.6790 h1        1 HW7      0.045200
     34 H6          5.1330   -1.0390   -4.7520 hc        1 HW7      0.060200
     35 H7          5.3290    0.7550   -4.6780 hc        1 HW7      0.060200
     36 H8          3.0770   -0.7570   -6.2020 hc        1 HW7      0.057200
     37 H9          3.2670    1.0370   -6.1250 hc        1 HW7      0.057200
     38 H10         5.3550   -0.9610   -7.2770 h1        1 HW7      0.030200
     39 H11         5.5470    0.8550   -7.1970 h1        1 HW7      0.030200
     40 H12         5.7840    0.6030   -9.4800 h1        1 HW7      0.051700
     41 H13         4.8110   -2.0820   -9.2000 h1        1 HW7      0.055200
     42 H14         6.0830   -1.5320  -10.3830 h1        1 HW7      0.055200
     43 H15         4.6830    1.4940  -11.2850 hc        1 HW7      0.075700
     44 H16         4.3530   -0.2620  -12.7200 h1        1 HW7      0.053200
     45 H17         2.6610   -0.4420  -12.0830 h1        1 HW7      0.053200
     46 H18         3.3640   -2.2150  -10.9090 hn        1 HW7      0.348800
     47 H20         2.0420    0.6570   -9.9040 hc        1 HW7      0.067200
     48 H21         2.9950    2.1430   -9.5160 hc        1 HW7      0.067200
     49 H22         0.3910    0.7340  -11.4900 ha        1 HW7      0.141000
     50 H23        -1.7830    1.4670  -12.6530 hc        1 HW7      0.049700
     51 H24        -1.6610    2.5790  -14.0810 hc        1 HW7      0.049700
     52 H25        -0.9330    0.9200  -14.1580 hc        1 HW7      0.049700
     53 H26         0.2390    4.0200  -14.3010 ha        1 HW7      0.141000
     54 H27         3.4550    5.3330  -13.1650 hn        1 HW7      0.400800
     55 H28         2.3140    5.3240  -14.3830 hn        1 HW7      0.400800
@<TRIPOS>BOND
     1    1    2 1   
     2    2    3 ar  
     3    2    7 ar  
     4    3    4 ar  
     5    3   29 1   
     6    4    5 1   
     7    4    6 ar  
     8    6    8 ar  
     9    6   30 1   
    10    7    8 ar  
    11    7   31 1   
    12    8    9 1   
    13    9   10 1   
    14   10   11 1   
    15   10   32 1   
    16   10   33 1   
    17   11   12 1   
    18   11   34 1   
    19   11   35 1   
    20   12   13 1   
    21   12   36 1   
    22   12   37 1   
    23   13   14 1   
    24   13   38 1   
    25   13   39 1   
    26   14   15 1   
    27   15   16 1   
    28   15   17 1   
    29   15   40 1   
    30   16   19 1   
    31   16   41 1   
    32   16   42 1   
    33   17   18 1   
    34   17   20 1   
    35   17   43 1   
    36   18   19 1   
    37   18   44 1   
    38   18   45 1   
    39   19   46 1   
    40   20   21 1   
    41   20   47 1   
    42   20   48 1   
    43   21   22 ar  
    44   21   23 ar  
    45   22   27 ar  
    46   23   24 ar  
    47   23   49 1   
    48   24   25 1   
    49   24   26 ar  
    50   25   50 1   
    51   25   51 1   
    52   25   52 1   
    53   26   27 ar  
    54   26   53 1   
    55   27   28 1   
    56   28   54 1   
    57   28   55 1   
@<TRIPOS>SUBSTRUCTURE
     1 HW7         1 TEMP              0 ****  ****    0 ROOT
