@<TRIPOS>MOLECULE
HW7
   56    58     1     0     0
SMALL
bcc


@<TRIPOS>ATOM
      1 CL2         0.0570   -0.0590    0.2940 cl        1 HW7     -0.078400
      2 C25         1.7490   -0.0960    0.1440 ca        1 HW7      0.075400
      3 C24         2.5360   -0.1360    1.2920 ca        1 HW7     -0.194000
      4 C23         3.9390   -0.1660    1.1530 ca        1 HW7      0.171900
      5 F23         4.7160   -0.2060    2.2590 f         1 HW7     -0.127900
      6 C22         4.5390   -0.1550   -0.1150 ca        1 HW7     -0.197000
      7 C26         2.3170   -0.0840   -1.1350 ca        1 HW7     -0.222000
      8 C21         3.7120   -0.1140   -1.2500 ca        1 HW7      0.159100
      9 O14         4.3950   -0.1030   -2.4490 os        1 HW7     -0.325900
     10 C13         3.5880   -0.0700   -3.6320 c3        1 HW7      0.130400
     11 C12         4.5700   -0.0750   -4.7920 c3        1 HW7     -0.087400
     12 C11         3.8250    0.0290   -6.1030 c3        1 HW7     -0.082400
     13 C10         4.8060    0.0040   -7.2620 c3        1 HW7      0.130400
     14 O09         4.0310    0.1650   -8.4530 os        1 HW7     -0.437600
     15 C3'         4.8110    0.0600   -9.6400 c3        1 HW7      0.118100
     16 C2'         5.0010   -1.4240  -10.0500 c3        1 HW7      0.118800
     17 C4'         4.0300    0.7050  -10.8090 c3        1 HW7     -0.086700
     18 C5'         3.6780   -0.4690  -11.7530 c3        1 HW7      0.147800
     19 N1'         4.1260   -1.7290  -11.1740 n3        1 HW7     -0.785200
     20 C08         2.8050    1.4630  -10.3350 c3        1 HW7     -0.128700
     21 C06         2.1040    2.1750  -11.4590 ca        1 HW7      0.472600
     22 N01         2.6850    3.2580  -12.0150 nb        1 HW7     -0.669000
     23 C05         0.8400    1.6930  -11.8950 ca        1 HW7     -0.200300
     24 C04         0.1630    2.3420  -12.9270 ca        1 HW7      0.000700
     25 C07        -1.1470    1.8540  -13.4110 c3        1 HW7     -0.080800
     26 C03         0.7550    3.4750  -13.5180 ca        1 HW7     -0.216300
     27 C02         2.0060    3.8770  -13.0210 ca        1 HW7      0.447200
     28 N02         2.6720    5.0640  -13.6090 n4        1 HW7     -0.818300
     29 H1          2.0870   -0.1470    2.2960 ha        1 HW7      0.169000
     30 H2          5.6320   -0.1800   -0.2240 ha        1 HW7      0.170000
     31 H3          1.6700   -0.0520   -2.0210 ha        1 HW7      0.152000
     32 H4          2.9640    0.8620   -3.6340 h1        1 HW7      0.043700
     33 H5          2.9230   -0.9720   -3.6600 h1        1 HW7      0.043700
     34 H6          5.1760   -1.0180   -4.7600 hc        1 HW7      0.063200
     35 H7          5.2830    0.7820   -4.6780 hc        1 HW7      0.063200
     36 H8          3.2310    0.9800   -6.1390 hc        1 HW7      0.054700
     37 H9          3.1010   -0.8200   -6.2100 hc        1 HW7      0.054700
     38 H10         5.5450    0.8470   -7.1850 h1        1 HW7      0.037200
     39 H11         5.3620   -0.9700   -7.2970 h1        1 HW7      0.037200
     40 H12         5.8020    0.5660   -9.4970 h1        1 HW7      0.059700
     41 H13         6.0610   -1.5800  -10.3930 h1        1 HW7      0.067700
     42 H14         4.8060   -2.1010   -9.1770 h1        1 HW7      0.067700
     43 H15         4.7210    1.4120  -11.3390 hc        1 HW7      0.066700
     44 H16         4.2230   -0.3400  -12.7290 h1        1 HW7      0.044700
     45 H17         2.5760   -0.4850  -11.9730 h1        1 HW7      0.044700
     46 H18         3.3410   -2.2750  -10.8690 hn        1 HW7      0.359800
     47 H20         2.0860    0.7510   -9.8470 hc        1 HW7      0.090200
     48 H21         3.1180    2.2050   -9.5490 hc        1 HW7      0.090200
     49 H22         0.4030    0.8040  -11.4110 ha        1 HW7      0.182000
     50 H23        -1.7710    2.6930  -13.8080 hc        1 HW7      0.075700
     51 H24        -0.9930    1.1110  -14.2360 hc        1 HW7      0.075700
     52 H25        -1.7140    1.3490  -12.5890 hc        1 HW7      0.075700
     53 H26         0.2370    4.0050  -14.3310 ha        1 HW7      0.166000
     54 H27         3.5600    4.7830  -14.0430 hn        1 HW7      0.469800
     55 H28         2.8670    5.7550  -12.8740 hn        1 HW7      0.469800
     56 H023        2.0580    5.4780  -14.3170 hn        1 HW7      0.469800
@<TRIPOS>BOND
     1    1    2 1   
     2    2    3 ar  
     3    2    7 ar  
     4    3    4 ar  
     5    3   29 1   
     6    4    5 1   
     7    4    6 ar  
     8    6    8 ar  
     9    6   30 1   
    10    7    8 ar  
    11    7   31 1   
    12    8    9 1   
    13    9   10 1   
    14   10   11 1   
    15   10   32 1   
    16   10   33 1   
    17   11   12 1   
    18   11   34 1   
    19   11   35 1   
    20   12   13 1   
    21   12   36 1   
    22   12   37 1   
    23   13   14 1   
    24   13   38 1   
    25   13   39 1   
    26   14   15 1   
    27   15   16 1   
    28   15   17 1   
    29   15   40 1   
    30   16   19 1   
    31   16   41 1   
    32   16   42 1   
    33   17   18 1   
    34   17   20 1   
    35   17   43 1   
    36   18   19 1   
    37   18   44 1   
    38   18   45 1   
    39   19   46 1   
    40   20   21 1   
    41   20   47 1   
    42   20   48 1   
    43   21   22 ar  
    44   21   23 ar  
    45   22   27 ar  
    46   23   24 ar  
    47   23   49 1   
    48   24   25 1   
    49   24   26 ar  
    50   25   50 1   
    51   25   51 1   
    52   25   52 1   
    53   26   27 ar  
    54   26   53 1   
    55   27   28 1   
    56   28   54 1   
    57   28   55 1   
    58   28   56 1   
@<TRIPOS>SUBSTRUCTURE
     1 HW7         1 TEMP              0 ****  ****    0 ROOT
