@<TRIPOS>MOLECULE
HW7
   55    50     1     0     0
SMALL
bcc


@<TRIPOS>ATOM
      1 CL2        -0.4910   -6.3640    7.0850 cl        1 HW7     -0.004000
      2 C25         0.2300   -4.7490    7.1900 c1        1 HW7     -0.002000
      3 C24         0.1130   -4.0110    8.3650 c1        1 HW7     -0.199000
      4 C23         0.5410   -2.6990    8.4020 c1        1 HW7      0.133000
      5 F23         0.4790   -2.0030    9.5560 f         1 HW7     -0.098000
      6 C22         1.0890   -2.1140    7.2680 c2        1 HW7     -0.200000
      7 C26         0.7730   -4.1680    6.0670 c1        1 HW7     -0.221000
      8 C21         1.2060   -2.8420    6.1070 c1        1 HW7      0.120000
      9 O14         1.8560   -2.2580    4.9520 o         1 HW7     -0.209000
     10 C13         0.9550   -1.7290    3.9820 c3        1 HW7     -0.022000
     11 C12         1.7280   -0.9420    2.9640 c3        1 HW7     -0.165000
     12 C11         0.8090   -0.6380    1.7300 c3        1 HW7     -0.162000
     13 C10         1.6380   -0.0530    0.6130 c3        1 HW7     -0.019000
     14 O09         0.8250    0.0790   -0.5620 os        1 HW7     -0.281000
     15 C3'         1.6120    0.1260   -1.8530 c3        1 HW7      0.002000
     16 C2'         1.7690   -1.0560   -2.3280 c3        1 HW7     -0.119000
     17 C4'         0.8140    0.8920   -2.9410 c3        1 HW7     -0.120000
     18 C5'         0.8500    0.0100   -4.1770 c3        1 HW7     -0.097000
     19 N1'         1.7420   -0.9010   -3.9210 n3        1 HW7     -0.267000
     20 C08        -0.5800    1.0950   -2.5050 c3        1 HW7     -0.101000
     21 C06        -1.2800    2.1250   -3.4560 c2        1 HW7      0.029000
     22 N01        -0.6290    3.2950   -3.8020 n2        1 HW7     -0.205000
     23 C05        -2.5770    1.9110   -3.8610 c1        1 HW7     -0.230000
     24 C04        -3.2260    2.8620   -4.6110 c1        1 HW7      0.002000
     25 C07        -4.6190    2.5940   -5.1190 c3        1 HW7     -0.186000
     26 C03        -2.5790    4.0240   -4.9560 c1        1 HW7     -0.237000
     27 C02        -1.2720    4.2360   -4.5450 c1        1 HW7      0.111000
     28 N02        -0.6300    5.4710   -4.8390 n2        1 HW7     -0.321000
     29 H1         -0.2100   -4.4340    9.1680 ha        1 HW7      0.165000
     30 H2          1.3990   -1.1680    7.2960 ha        1 HW7      0.169000
     31 H3          0.8580   -4.6880    5.2350 ha        1 HW7      0.156000
     32 H4          0.4950   -2.4440    3.5510 h1        1 HW7      0.084500
     33 H5          0.3160   -1.1510    4.4170 h1        1 HW7      0.084500
     34 H6          2.0300   -0.1020    3.3640 hc        1 HW7      0.099500
     35 H7          2.5270   -1.4770    2.6630 hc        1 HW7      0.099500
     36 H8          0.3820   -1.4870    1.4190 hc        1 HW7      0.096000
     37 H9          0.0850    0.0260    1.9980 hc        1 HW7      0.096000
     38 H10         2.4150   -0.6610    0.4150 h1        1 HW7      0.069500
     39 H11         1.9770    0.8420    0.8850 h1        1 HW7      0.069500
     40 H12         2.4580    0.5410   -1.7130 h1        1 HW7      0.091000
     41 H13         1.0390   -1.6330   -2.0380 h1        1 HW7      0.094000
     42 H14         2.6540   -1.4390   -2.0270 h1        1 HW7      0.094000
     43 H15         1.2430    1.7600   -3.1310 hc        1 HW7      0.117000
     44 H16        -0.0220   -0.4030   -4.3240 h1        1 HW7      0.094500
     45 H17         1.1170    0.5430   -4.9660 h1        1 HW7      0.094500
     46 H18         1.4840   -1.6940   -4.3020 hn        1 HW7      0.144000
     47 H20        -1.0670    0.2280   -2.5400 hc        1 HW7      0.105000
     48 H21        -0.5880    1.4350   -1.5970 hc        1 HW7      0.105000
     49 H22        -3.0670    1.1580   -3.5160 ha        1 HW7      0.141000
     50 H23        -4.8130    3.1830   -5.8400 hc        1 HW7      0.088667
     51 H24        -5.2630    2.7390   -4.3980 hc        1 HW7      0.088667
     52 H25        -4.6800    1.6610   -5.4310 hc        1 HW7      0.088667
     53 H26        -3.0590    4.7310   -5.5120 ha        1 HW7      0.141000
     54 H27        -1.0710    6.1140   -5.3350 hn        1 HW7      0.195500
     55 H28         0.2140    5.6260   -4.5440 hn        1 HW7      0.195500
@<TRIPOS>BOND
     1    1    2 1   
     2    2    7 1   
     3    3    4 1   
     4    3   29 1   
     5    4    6 1   
     6    6    8 1   
     7    6   30 1   
     8    7   31 1   
     9    9   10 1   
    10   10   11 1   
    11   10   32 1   
    12   10   33 1   
    13   11   12 1   
    14   11   34 1   
    15   11   35 1   
    16   12   13 1   
    17   12   36 1   
    18   12   37 1   
    19   13   14 1   
    20   13   38 1   
    21   13   39 1   
    22   14   15 1   
    23   15   16 1   
    24   15   17 1   
    25   15   40 1   
    26   16   19 1   
    27   16   41 1   
    28   16   42 1   
    29   17   18 1   
    30   17   20 1   
    31   17   43 1   
    32   18   19 1   
    33   18   44 1   
    34   18   45 1   
    35   19   46 1   
    36   20   21 1   
    37   20   47 1   
    38   20   48 1   
    39   21   22 1   
    40   21   23 1   
    41   22   27 1   
    42   23   49 1   
    43   24   25 1   
    44   24   26 1   
    45   25   50 1   
    46   25   51 1   
    47   25   52 1   
    48   26   53 1   
    49   28   54 1   
    50   28   55 1   
@<TRIPOS>SUBSTRUCTURE
     1 HW7         1 TEMP              0 ****  ****    0 ROOT
