@<TRIPOS>MOLECULE
HW7
   55    57     1     0     0
SMALL
bcc


@<TRIPOS>ATOM
      1 CL2         6.7260    3.1690    0.6380 cl        1 HW7     -0.082400
      2 C25         6.7060    1.5210    0.2220 ca        1 HW7      0.076400
      3 C24         7.9100    0.8670   -0.0290 ca        1 HW7     -0.200000
      4 C23         7.8790   -0.4990   -0.3730 ca        1 HW7      0.167900
      5 F23         9.0410   -1.1480   -0.6200 f         1 HW7     -0.132900
      6 C22         6.6650   -1.1950   -0.4630 ca        1 HW7     -0.200000
      7 C26         5.4780    0.8560    0.1410 ca        1 HW7     -0.221000
      8 C21         5.4710   -0.5010   -0.2020 ca        1 HW7      0.165100
      9 O14         4.3330   -1.2700   -0.3160 os        1 HW7     -0.325900
     10 C13         3.0900   -0.6010   -0.0570 c3        1 HW7      0.128400
     11 C12         2.0130   -1.6540   -0.2470 c3        1 HW7     -0.085400
     12 C11         0.6490   -1.0490   -0.0010 c3        1 HW7     -0.084400
     13 C10        -0.4320   -2.1000   -0.1880 c3        1 HW7      0.131400
     14 O09        -1.6770   -1.4420    0.0480 os        1 HW7     -0.415600
     15 C3'        -2.7890   -2.3280   -0.0350 c3        1 HW7      0.115100
     16 C2'        -2.9010   -3.2020    1.2430 c3        1 HW7      0.113800
     17 C4'        -4.0940   -1.5030   -0.0890 c3        1 HW7     -0.078700
     18 C5'        -4.8560   -1.8870    1.2010 c3        1 HW7      0.140800
     19 N1'        -4.2370   -3.0620    1.8080 n3        1 HW7     -0.788200
     20 C08        -3.8510   -0.0130   -0.1950 c3        1 HW7     -0.113700
     21 C06        -5.1310    0.7670   -0.3380 ca        1 HW7      0.450600
     22 N01        -5.8590    0.6090   -1.4660 nb        1 HW7     -0.733000
     23 C05        -5.4990    1.6460    0.7000 ca        1 HW7     -0.292300
     24 C04        -6.6720    2.3990    0.5690 ca        1 HW7     -0.006300
     25 C07        -7.0740    3.3430    1.6370 c3        1 HW7     -0.060800
     26 C03        -7.4450    2.2490   -0.5800 ca        1 HW7     -0.301300
     27 C02        -7.0180    1.3290   -1.5840 ca        1 HW7      0.629200
     28 N02        -7.8500    1.1000   -2.6950 nh        1 HW7     -0.922500
     29 H1          8.8730    1.3930    0.0350 ha        1 HW7      0.165000
     30 H2          6.6410   -2.2600   -0.7310 ha        1 HW7      0.169000
     31 H3          4.5450    1.3990    0.3450 ha        1 HW7      0.156000
     32 H4          3.0890   -0.2050    0.9920 h1        1 HW7      0.045200
     33 H5          2.9620    0.2450   -0.7830 h1        1 HW7      0.045200
     34 H6          2.0750   -2.0670   -1.2880 hc        1 HW7      0.059700
     35 H7          2.1960   -2.5050    0.4600 hc        1 HW7      0.059700
     36 H8          0.5870   -0.6360    1.0390 hc        1 HW7      0.057700
     37 H9          0.4660   -0.1990   -0.7090 hc        1 HW7      0.057700
     38 H10        -0.4160   -2.5120   -1.2320 h1        1 HW7      0.030200
     39 H11        -0.3030   -2.9440    0.5410 h1        1 HW7      0.030200
     40 H12        -2.6890   -2.9700   -0.9510 h1        1 HW7      0.042700
     41 H13        -2.6580   -4.2720    1.0130 h1        1 HW7      0.054700
     42 H14        -2.1650   -2.8290    2.0080 h1        1 HW7      0.054700
     43 H15        -4.6820   -1.8440   -0.9830 hc        1 HW7      0.071700
     44 H16        -4.7880   -1.0480    1.9470 h1        1 HW7      0.056200
     45 H17        -5.9410   -2.0650    0.9790 h1        1 HW7      0.056200
     46 H18        -4.7820   -3.8810    1.6090 hn        1 HW7      0.346800
     47 H20        -3.2990    0.3440    0.7150 hc        1 HW7      0.068700
     48 H21        -3.1890    0.1840   -1.0810 hc        1 HW7      0.068700
     49 H22        -4.8740    1.7380    1.5980 ha        1 HW7      0.144000
     50 H23        -6.4040    4.2390    1.6250 hc        1 HW7      0.049700
     51 H24        -8.1280    3.6890    1.5000 hc        1 HW7      0.049700
     52 H25        -6.9890    2.8560    2.6410 hc        1 HW7      0.049700
     53 H26        -8.3740    2.8210   -0.7050 ha        1 HW7      0.141000
     54 H27        -7.4310    0.6060   -3.4530 hn        1 HW7      0.399300
     55 H28        -8.3600    1.9070   -2.9780 hn        1 HW7      0.399300
@<TRIPOS>BOND
     1    1    2 1   
     2    2    3 ar  
     3    2    7 ar  
     4    3    4 ar  
     5    3   29 1   
     6    4    5 1   
     7    4    6 ar  
     8    6    8 ar  
     9    6   30 1   
    10    7    8 ar  
    11    7   31 1   
    12    8    9 1   
    13    9   10 1   
    14   10   11 1   
    15   10   32 1   
    16   10   33 1   
    17   11   12 1   
    18   11   34 1   
    19   11   35 1   
    20   12   13 1   
    21   12   36 1   
    22   12   37 1   
    23   13   14 1   
    24   13   38 1   
    25   13   39 1   
    26   14   15 1   
    27   15   16 1   
    28   15   17 1   
    29   15   40 1   
    30   16   19 1   
    31   16   41 1   
    32   16   42 1   
    33   17   18 1   
    34   17   20 1   
    35   17   43 1   
    36   18   19 1   
    37   18   44 1   
    38   18   45 1   
    39   19   46 1   
    40   20   21 1   
    41   20   47 1   
    42   20   48 1   
    43   21   22 ar  
    44   21   23 ar  
    45   22   27 ar  
    46   23   24 ar  
    47   23   49 1   
    48   24   25 1   
    49   24   26 ar  
    50   25   50 1   
    51   25   51 1   
    52   25   52 1   
    53   26   27 ar  
    54   26   53 1   
    55   27   28 1   
    56   28   54 1   
    57   28   55 1   
@<TRIPOS>SUBSTRUCTURE
     1 HW7         1 TEMP              0 ****  ****    0 ROOT
