@<TRIPOS>MOLECULE
HW8
   56    58     1     0     0
SMALL
bcc


@<TRIPOS>ATOM
      1 N02        -6.8640   -1.4390    2.2870 nh        1 HW8     -0.922500
      2 C02        -6.0030   -1.4860    1.1760 ca        1 HW8      0.628200
      3 C03        -6.4270   -2.1770    0.0010 ca        1 HW8     -0.302300
      4 C04        -5.6210   -2.1360   -1.1340 ca        1 HW8     -0.007300
      5 C07        -6.0340   -2.8220   -2.3800 c3        1 HW8     -0.060800
      6 C05        -4.4160   -1.4260   -1.0840 ca        1 HW8     -0.291300
      7 C06        -4.0530   -0.7790    0.1140 ca        1 HW8      0.451600
      8 N01        -4.8140   -0.8070    1.2300 nb        1 HW8     -0.732000
      9 C08        -2.7390   -0.0450    0.1600 c3        1 HW8     -0.113700
     10 C4'        -2.9140    1.4440    0.3670 c3        1 HW8     -0.078700
     11 C5'        -3.6310    2.1250   -0.8220 c3        1 HW8      0.140800
     12 N1'        -2.9510    3.3730   -1.1590 n3        1 HW8     -0.788200
     13 C3'        -1.5730    2.1990    0.5020 c3        1 HW8      0.116100
     14 C2'        -1.6210    3.3250   -0.5650 c3        1 HW8      0.112800
     15 O09        -0.4990    1.3000    0.2490 os        1 HW8     -0.415600
     16 C10         0.7680    1.8350    0.6310 c3        1 HW8      0.129400
     17 C11         1.8080    0.7930    0.2560 c3        1 HW8     -0.083400
     18 C12         3.1940    1.2800    0.6130 c3        1 HW8     -0.079400
     19 C13         4.2410    0.2460    0.2520 c3        1 HW8     -0.075400
     20 C14         5.6300    0.7420    0.6030 c3        1 HW8     -0.128700
     21 C26         6.6880   -0.2450    0.1990 ca        1 HW8      0.410600
     22 N21         6.7650   -1.4320    0.8540 nb        1 HW8     -0.666000
     23 C22         7.7250   -2.2920    0.4740 ca        1 HW8      0.398200
     24 C23         8.6490   -2.0340   -0.5560 ca        1 HW8     -0.251300
     25 C24         8.5640   -0.8120   -1.2230 ca        1 HW8     -0.091000
     26 C25         7.5740    0.0970   -0.8460 ca        1 HW8     -0.246300
     27 H1         -7.4080   -2.2660    2.3970 hn        1 HW8      0.398300
     28 H2         -6.4530   -1.1180    3.1360 hn        1 HW8      0.398300
     29 H3         -7.3800   -2.7230   -0.0110 ha        1 HW8      0.140000
     30 H4         -6.4900   -2.0810   -3.0850 hc        1 HW8      0.049033
     31 H5         -5.1520   -3.2880   -2.8860 hc        1 HW8      0.049033
     32 H6         -6.7880   -3.6200   -2.1720 hc        1 HW8      0.049033
     33 H7         -3.7610   -1.3740   -1.9630 ha        1 HW8      0.144000
     34 H8         -2.1080   -0.4550    0.9950 hc        1 HW8      0.069700
     35 H9         -2.1780   -0.2280   -0.7960 hc        1 HW8      0.069700
     36 H10        -3.5060    1.6180    1.3060 hc        1 HW8      0.070700
     37 H11        -3.5820    1.4600   -1.7280 h1        1 HW8      0.055700
     38 H12        -4.7120    2.3010   -0.5810 h1        1 HW8      0.055700
     39 H13        -3.4630    4.1540   -0.7920 hn        1 HW8      0.344800
     40 H15        -1.4660    2.6310    1.5330 h1        1 HW8      0.041700
     41 H16        -0.8890    3.0850   -1.3850 h1        1 HW8      0.054700
     42 H17        -1.3330    4.3110   -0.1140 h1        1 HW8      0.054700
     43 H18         0.9510    2.8000    0.0890 h1        1 HW8      0.026700
     44 H19         0.7750    2.0300    1.7370 h1        1 HW8      0.026700
     45 H20         1.5830   -0.1650    0.7920 hc        1 HW8      0.056700
     46 H21         1.7410    0.5820   -0.8430 hc        1 HW8      0.056700
     47 H22         3.4090    2.2400    0.0720 hc        1 HW8      0.039700
     48 H23         3.2470    1.5000    1.7120 hc        1 HW8      0.039700
     49 H24         4.0300   -0.7100    0.8000 hc        1 HW8      0.052700
     50 H25         4.1850    0.0220   -0.8450 hc        1 HW8      0.052700
     51 H26         5.8240    1.7190    0.0850 hc        1 HW8      0.054200
     52 H27         5.6930    0.9290    1.7090 hc        1 HW8      0.054200
     53 H28         7.7530   -3.2460    1.0310 h4        1 HW8      0.021100
     54 H29         9.4110   -2.7770   -0.8200 ha        1 HW8      0.143000
     55 H30         9.2650   -0.5670   -2.0340 ha        1 HW8      0.137000
     56 H31         7.4820    1.0660   -1.3540 ha        1 HW8      0.142000
@<TRIPOS>BOND
     1    1    2 1   
     2    1   27 1   
     3    1   28 1   
     4    2    3 ar  
     5    2    8 ar  
     6    3    4 ar  
     7    3   29 1   
     8    4    5 1   
     9    4    6 ar  
    10    5   30 1   
    11    5   31 1   
    12    5   32 1   
    13    6    7 ar  
    14    6   33 1   
    15    7    8 ar  
    16    7    9 1   
    17    9   10 1   
    18    9   34 1   
    19    9   35 1   
    20   10   11 1   
    21   10   13 1   
    22   10   36 1   
    23   11   12 1   
    24   11   37 1   
    25   11   38 1   
    26   12   14 1   
    27   12   39 1   
    28   13   14 1   
    29   13   15 1   
    30   13   40 1   
    31   14   41 1   
    32   14   42 1   
    33   15   16 1   
    34   16   17 1   
    35   16   43 1   
    36   16   44 1   
    37   17   18 1   
    38   17   45 1   
    39   17   46 1   
    40   18   19 1   
    41   18   47 1   
    42   18   48 1   
    43   19   20 1   
    44   19   49 1   
    45   19   50 1   
    46   20   21 1   
    47   20   51 1   
    48   20   52 1   
    49   21   22 ar  
    50   21   26 ar  
    51   22   23 ar  
    52   23   24 ar  
    53   23   53 1   
    54   24   25 ar  
    55   24   54 1   
    56   25   26 ar  
    57   25   55 1   
    58   26   56 1   
@<TRIPOS>SUBSTRUCTURE
     1 HW8         1 TEMP              0 ****  ****    0 ROOT
