@<TRIPOS>MOLECULE
HW8
   56    58     1     0     0
SMALL
bcc


@<TRIPOS>ATOM
      1 N02        -0.0820    0.2610    0.2460 nh        1 HW8     -0.923500
      2 C02         1.3060    0.0710    0.1340 ca        1 HW8      0.632200
      3 C03         2.0860   -0.0460    1.3250 ca        1 HW8     -0.302300
      4 C04         3.4720   -0.1320    1.2170 ca        1 HW8     -0.006300
      5 C07         4.3200   -0.2580    2.4240 c3        1 HW8     -0.060800
      6 C05         4.0560   -0.1060   -0.0550 ca        1 HW8     -0.295300
      7 C06         3.2240    0.0010   -1.1880 ca        1 HW8      0.452600
      8 N01         1.8770    0.0770   -1.1110 nb        1 HW8     -0.731000
      9 C08         3.8690    0.0400   -2.5480 c3        1 HW8     -0.117700
     10 C4'         3.5790   -1.2070   -3.3580 c3        1 HW8     -0.079700
     11 C5'         4.2190   -2.4740   -2.7450 c3        1 HW8      0.140800
     12 N1'         5.2050   -3.0330   -3.6660 n3        1 HW8     -0.789200
     13 C3'         4.1390   -1.1340   -4.7960 c3        1 HW8      0.114100
     14 C2'         4.9900   -2.4190   -4.9700 c3        1 HW8      0.116800
     15 O09         4.9550    0.0270   -4.9240 os        1 HW8     -0.423600
     16 C10         5.1320    0.4350   -6.2810 c3        1 HW8      0.130400
     17 C11         6.0630    1.6340   -6.2540 c3        1 HW8     -0.083400
     18 C12         6.3150    2.1380   -7.6580 c3        1 HW8     -0.079400
     19 C13         7.2440    3.3340   -7.6460 c3        1 HW8     -0.075400
     20 C14         7.4950    3.8330   -9.0540 c3        1 HW8     -0.128700
     21 C26         8.4680    4.9780   -9.0720 ca        1 HW8      0.410600
     22 N21         8.1020    6.1620   -8.5160 nb        1 HW8     -0.666000
     23 C22         8.9910    7.1690   -8.5530 ca        1 HW8      0.399200
     24 C23        10.2700    7.0670   -9.1310 ca        1 HW8     -0.251300
     25 C24        10.6380    5.8490   -9.7010 ca        1 HW8     -0.091000
     26 C25         9.7310    4.7880   -9.6740 ca        1 HW8     -0.246300
     27 H1         -0.4830   -0.2080    1.0270 hn        1 HW8      0.400300
     28 H2         -0.6030    0.1560   -0.5970 hn        1 HW8      0.400300
     29 H3          1.6020   -0.0550    2.3100 ha        1 HW8      0.141000
     30 H4          4.6770   -1.3140    2.5290 hc        1 HW8      0.049033
     31 H5          3.7550    0.0160    3.3480 hc        1 HW8      0.049033
     32 H6          5.2160    0.4070    2.3460 hc        1 HW8      0.049033
     33 H7          5.1460   -0.1670   -0.1700 ha        1 HW8      0.142000
     34 H8          3.4980    0.9370   -3.1160 hc        1 HW8      0.068700
     35 H9          4.9780    0.1620   -2.4280 hc        1 HW8      0.068700
     36 H10         2.4670   -1.3500   -3.4240 hc        1 HW8      0.074700
     37 H11         4.6750   -2.2430   -1.7440 h1        1 HW8      0.052200
     38 H12         3.4260   -3.2570   -2.5900 h1        1 HW8      0.052200
     39 H13         6.1320   -2.8280   -3.3400 hn        1 HW8      0.348800
     40 H15         3.3050   -1.1030   -5.5460 h1        1 HW8      0.050700
     41 H16         5.9600   -2.1820   -5.4800 h1        1 HW8      0.054200
     42 H17         4.4250   -3.1560   -5.6030 h1        1 HW8      0.054200
     43 H18         5.5760   -0.4060   -6.8760 h1        1 HW8      0.026700
     44 H19         4.1360    0.7090   -6.7230 h1        1 HW8      0.026700
     45 H20         5.6070    2.4440   -5.6270 hc        1 HW8      0.056200
     46 H21         7.0300    1.3430   -5.7660 hc        1 HW8      0.056200
     47 H22         6.7630    1.3170   -8.2780 hc        1 HW8      0.039700
     48 H23         5.3410    2.4230   -8.1370 hc        1 HW8      0.039700
     49 H24         6.7930    4.1540   -7.0270 hc        1 HW8      0.053200
     50 H25         8.2170    3.0500   -7.1660 hc        1 HW8      0.053200
     51 H26         6.5240    4.1600   -9.5150 hc        1 HW8      0.054200
     52 H27         7.9010    2.9980   -9.6850 hc        1 HW8      0.054200
     53 H28         8.6550    8.1140   -8.0890 h4        1 HW8      0.021100
     54 H29        10.9510    7.9270   -9.1310 ha        1 HW8      0.143000
     55 H30        11.6270    5.7240  -10.1650 ha        1 HW8      0.137000
     56 H31         9.9930    3.8170  -10.1140 ha        1 HW8      0.141000
@<TRIPOS>BOND
     1    1    2 1   
     2    1   27 1   
     3    1   28 1   
     4    2    3 ar  
     5    2    8 ar  
     6    3    4 ar  
     7    3   29 1   
     8    4    5 1   
     9    4    6 ar  
    10    5   30 1   
    11    5   31 1   
    12    5   32 1   
    13    6    7 ar  
    14    6   33 1   
    15    7    8 ar  
    16    7    9 1   
    17    9   10 1   
    18    9   34 1   
    19    9   35 1   
    20   10   11 1   
    21   10   13 1   
    22   10   36 1   
    23   11   12 1   
    24   11   37 1   
    25   11   38 1   
    26   12   14 1   
    27   12   39 1   
    28   13   14 1   
    29   13   15 1   
    30   13   40 1   
    31   14   41 1   
    32   14   42 1   
    33   15   16 1   
    34   16   17 1   
    35   16   43 1   
    36   16   44 1   
    37   17   18 1   
    38   17   45 1   
    39   17   46 1   
    40   18   19 1   
    41   18   47 1   
    42   18   48 1   
    43   19   20 1   
    44   19   49 1   
    45   19   50 1   
    46   20   21 1   
    47   20   51 1   
    48   20   52 1   
    49   21   22 ar  
    50   21   26 ar  
    51   22   23 ar  
    52   23   24 ar  
    53   23   53 1   
    54   24   25 ar  
    55   24   54 1   
    56   25   26 ar  
    57   25   55 1   
    58   26   56 1   
@<TRIPOS>SUBSTRUCTURE
     1 HW8         1 TEMP              0 ****  ****    0 ROOT
