@<TRIPOS>MOLECULE
HW8
   57    59     1     0     0
SMALL
bcc


@<TRIPOS>ATOM
      1 N02        -0.1390    0.2880    0.1350 n4        1 HW8     -0.818300
      2 C02         1.3360    0.1460    0.0780 ca        1 HW8      0.446200
      3 C03         2.0610    0.0400    1.2770 ca        1 HW8     -0.217300
      4 C04         3.4600   -0.0910    1.1720 ca        1 HW8      0.000700
      5 C07         4.2850   -0.2230    2.3920 c3        1 HW8     -0.080800
      6 C05         4.0380   -0.1060   -0.0970 ca        1 HW8     -0.200300
      7 C06         3.2200    0.0080   -1.2540 ca        1 HW8      0.474600
      8 N01         1.8790    0.1330   -1.1700 nb        1 HW8     -0.669000
      9 C08         3.8720    0.0060   -2.6090 c3        1 HW8     -0.129700
     10 C4'         3.5960   -1.2680   -3.3810 c3        1 HW8     -0.086700
     11 C5'         4.2400   -2.5150   -2.7280 c3        1 HW8      0.147800
     12 N1'         5.2000   -3.1200   -3.6420 n3        1 HW8     -0.785200
     13 C3'         4.1770   -1.2220   -4.8150 c3        1 HW8      0.119100
     14 C2'         5.0090   -2.5230   -4.9570 c3        1 HW8      0.118800
     15 O09         5.0060   -0.0710   -4.9340 os        1 HW8     -0.437600
     16 C10         5.2390    0.3150   -6.2920 c3        1 HW8      0.129400
     17 C11         6.1560    1.5230   -6.2420 c3        1 HW8     -0.082400
     18 C12         6.4110    2.0490   -7.6380 c3        1 HW8     -0.080400
     19 C13         7.3060    3.2700   -7.5970 c3        1 HW8     -0.074400
     20 C14         7.5210    3.8270   -8.9900 c3        1 HW8     -0.126700
     21 C26         8.4630    4.9960   -8.9960 ca        1 HW8      0.405600
     22 N21         8.1780    6.0790   -8.2280 nb        1 HW8     -0.672000
     23 C22         9.0300    7.1170   -8.2720 ca        1 HW8      0.398200
     24 C23        10.1920    7.1460   -9.0650 ca        1 HW8     -0.246300
     25 C24        10.4790    6.0300   -9.8510 ca        1 HW8     -0.088000
     26 C25         9.6090    4.9400   -9.8200 ca        1 HW8     -0.244300
     27 H1         -0.4370    0.3200    1.1140 hn        1 HW8      0.469467
     28 H2         -0.5820   -0.5110   -0.3360 hn        1 HW8      0.469467
     29 H3          1.5840    0.0560    2.2680 ha        1 HW8      0.166000
     30 H4          4.4060   -1.3070    2.6520 hc        1 HW8      0.075367
     31 H5          3.8100    0.2960    3.2610 hc        1 HW8      0.075367
     32 H6          5.3040    0.2120    2.2330 hc        1 HW8      0.075367
     33 H7          5.1300   -0.2050   -0.2140 ha        1 HW8      0.183000
     34 H8          3.5050    0.8830   -3.2110 hc        1 HW8      0.091200
     35 H9          4.9810    0.1390   -2.4820 hc        1 HW8      0.091200
     36 H10         2.4880   -1.4230   -3.4600 hc        1 HW8      0.065700
     37 H11         4.7170   -2.2470   -1.7460 h1        1 HW8      0.043700
     38 H12         3.4440   -3.2830   -2.5260 h1        1 HW8      0.043700
     39 H13         6.1380   -2.9640   -3.3200 hn        1 HW8      0.358800
     40 H15         3.3550   -1.1880   -5.5760 h1        1 HW8      0.058700
     41 H16         4.4390   -3.2610   -5.5850 h1        1 HW8      0.067200
     42 H17         5.9890   -2.3090   -5.4610 h1        1 HW8      0.067200
     43 H18         4.2600    0.5700   -6.7780 h1        1 HW8      0.033700
     44 H19         5.7160   -0.5340   -6.8490 h1        1 HW8      0.033700
     45 H20         5.6870    2.3210   -5.6090 hc        1 HW8      0.054200
     46 H21         7.1240    1.2380   -5.7530 hc        1 HW8      0.054200
     47 H22         6.8890    1.2490   -8.2620 hc        1 HW8      0.042700
     48 H23         5.4360    2.3140   -8.1260 hc        1 HW8      0.042700
     49 H24         6.8420    4.0540   -6.9420 hc        1 HW8      0.053700
     50 H25         8.2950    2.9980   -7.1420 hc        1 HW8      0.053700
     51 H26         7.9310    3.0220   -9.6570 hc        1 HW8      0.054200
     52 H27         6.5350    4.1500   -9.4220 hc        1 HW8      0.054200
     53 H28         8.7610    7.9790   -7.6350 h4        1 HW8      0.021100
     54 H29        10.8480    8.0250   -9.0600 ha        1 HW8      0.147000
     55 H30        11.3760    6.0080  -10.4870 ha        1 HW8      0.142000
     56 H31         9.8090    4.0480  -10.4300 ha        1 HW8      0.143000
     57 H023       -0.4240    1.1520   -0.3420 hn        1 HW8      0.469467
@<TRIPOS>BOND
     1    1    2 1   
     2    1   27 1   
     3    1   28 1   
     4    1   57 1   
     5    2    3 ar  
     6    2    8 ar  
     7    3    4 ar  
     8    3   29 1   
     9    4    5 1   
    10    4    6 ar  
    11    5   30 1   
    12    5   31 1   
    13    5   32 1   
    14    6    7 ar  
    15    6   33 1   
    16    7    8 ar  
    17    7    9 1   
    18    9   10 1   
    19    9   34 1   
    20    9   35 1   
    21   10   11 1   
    22   10   13 1   
    23   10   36 1   
    24   11   12 1   
    25   11   37 1   
    26   11   38 1   
    27   12   14 1   
    28   12   39 1   
    29   13   14 1   
    30   13   15 1   
    31   13   40 1   
    32   14   41 1   
    33   14   42 1   
    34   15   16 1   
    35   16   17 1   
    36   16   43 1   
    37   16   44 1   
    38   17   18 1   
    39   17   45 1   
    40   17   46 1   
    41   18   19 1   
    42   18   47 1   
    43   18   48 1   
    44   19   20 1   
    45   19   49 1   
    46   19   50 1   
    47   20   21 1   
    48   20   51 1   
    49   20   52 1   
    50   21   22 ar  
    51   21   26 ar  
    52   22   23 ar  
    53   23   24 ar  
    54   23   53 1   
    55   24   25 ar  
    56   24   54 1   
    57   25   26 ar  
    58   25   55 1   
    59   26   56 1   
@<TRIPOS>SUBSTRUCTURE
     1 HW8         1 TEMP              0 ****  ****    0 ROOT
