@<TRIPOS>MOLECULE
HW8
   56    58     1     0     0
SMALL
bcc


@<TRIPOS>ATOM
      1 N02        -0.0830    0.2560    0.2440 nv        1 HW8     -0.923500
      2 C02         1.3060    0.0700    0.1320 ca        1 HW8      0.631200
      3 C03         2.0850   -0.0450    1.3230 ca        1 HW8     -0.302300
      4 C04         3.4720   -0.1250    1.2160 ca        1 HW8     -0.006300
      5 C07         4.3180   -0.2230    2.4270 c3        1 HW8     -0.060800
      6 C05         4.0560   -0.1010   -0.0560 ca        1 HW8     -0.295300
      7 C06         3.2240    0.0040   -1.1890 ca        1 HW8      0.452600
      8 N01         1.8770    0.0770   -1.1130 nb        1 HW8     -0.731000
      9 C08         3.8690    0.0420   -2.5490 c3        1 HW8     -0.117700
     10 C4'         3.5800   -1.2050   -3.3580 c3        1 HW8     -0.079700
     11 C5'         4.2200   -2.4720   -2.7430 c3        1 HW8      0.140800
     12 N1'         5.2090   -3.0310   -3.6620 n7        1 HW8     -0.789200
     13 C3'         4.1420   -1.1330   -4.7960 c3        1 HW8      0.114100
     14 C2'         4.9960   -2.4180   -4.9670 c3        1 HW8      0.116800
     15 O09         4.9560    0.0290   -4.9250 os        1 HW8     -0.423600
     16 C10         5.1350    0.4340   -6.2820 c3        1 HW8      0.130400
     17 C11         6.0630    1.6360   -6.2550 c3        1 HW8     -0.083400
     18 C12         6.3180    2.1360   -7.6600 c3        1 HW8     -0.079400
     19 C13         7.2430    3.3350   -7.6470 c3        1 HW8     -0.075400
     20 C14         7.4980    3.8310   -9.0570 c3        1 HW8     -0.128700
     21 C26         8.4670    4.9790   -9.0740 ca        1 HW8      0.410600
     22 N21         8.0930    6.1640   -8.5250 nb        1 HW8     -0.666000
     23 C22         8.9780    7.1740   -8.5610 ca        1 HW8      0.399200
     24 C23        10.2600    7.0760   -9.1330 ca        1 HW8     -0.251300
     25 C24        10.6370    5.8570   -9.6950 ca        1 HW8     -0.091000
     26 C25         9.7350    4.7930   -9.6680 ca        1 HW8     -0.246300
     27 H1         -0.4840   -0.2140    1.0240 hn        1 HW8      0.400300
     28 H2         -0.6040    0.1480   -0.6000 hn        1 HW8      0.400300
     29 H3          1.6010   -0.0570    2.3080 ha        1 HW8      0.141000
     30 H4          4.7010    0.7930    2.7020 hc        1 HW8      0.048700
     31 H5          3.7390   -0.6260    3.2930 hc        1 HW8      0.048700
     32 H6          5.1970   -0.8900    2.2440 hc        1 HW8      0.048700
     33 H7          5.1460   -0.1620   -0.1720 ha        1 HW8      0.142000
     34 H8          4.9780    0.1650   -2.4290 hc        1 HW8      0.068700
     35 H9          3.4980    0.9380   -3.1180 hc        1 HW8      0.068700
     36 H10         2.4690   -1.3500   -3.4250 hc        1 HW8      0.074700
     37 H11         3.4280   -3.2550   -2.5900 h1        1 HW8      0.052700
     38 H12         4.6740   -2.2400   -1.7420 h1        1 HW8      0.052700
     39 H13         6.1350   -2.8250   -3.3350 hn        1 HW8      0.348800
     40 H15         3.3090   -1.1060   -5.5470 h1        1 HW8      0.050700
     41 H16         4.4330   -3.1550   -5.6010 h1        1 HW8      0.054200
     42 H17         5.9660   -2.1790   -5.4760 h1        1 HW8      0.054200
     43 H18         5.5820   -0.4070   -6.8740 h1        1 HW8      0.026700
     44 H19         4.1400    0.7050   -6.7260 h1        1 HW8      0.026700
     45 H20         5.6030    2.4460   -5.6320 hc        1 HW8      0.056200
     46 H21         7.0290    1.3480   -5.7640 hc        1 HW8      0.056200
     47 H22         6.7710    1.3150   -8.2760 hc        1 HW8      0.039700
     48 H23         5.3450    2.4160   -8.1430 hc        1 HW8      0.039700
     49 H24         8.2150    3.0560   -7.1620 hc        1 HW8      0.053200
     50 H25         6.7870    4.1560   -7.0340 hc        1 HW8      0.053200
     51 H26         7.9110    2.9950   -9.6820 hc        1 HW8      0.054200
     52 H27         6.5280    4.1520   -9.5230 hc        1 HW8      0.054200
     53 H28         8.6350    8.1200   -8.1040 h4        1 HW8      0.021100
     54 H29        10.9380    7.9380   -9.1320 ha        1 HW8      0.143000
     55 H30        11.6290    5.7340  -10.1530 ha        1 HW8      0.137000
     56 H31        10.0030    3.8200  -10.1030 ha        1 HW8      0.141000
@<TRIPOS>BOND
     1    1    2 1   
     2    1   27 1   
     3    1   28 1   
     4    2    3 ar  
     5    2    8 ar  
     6    3    4 ar  
     7    3   29 1   
     8    4    5 1   
     9    4    6 ar  
    10    5   30 1   
    11    5   31 1   
    12    5   32 1   
    13    6    7 ar  
    14    6   33 1   
    15    7    8 ar  
    16    7    9 1   
    17    9   10 1   
    18    9   34 1   
    19    9   35 1   
    20   10   11 1   
    21   10   13 1   
    22   10   36 1   
    23   11   12 1   
    24   11   37 1   
    25   11   38 1   
    26   12   14 1   
    27   12   39 1   
    28   13   14 1   
    29   13   15 1   
    30   13   40 1   
    31   14   41 1   
    32   14   42 1   
    33   15   16 1   
    34   16   17 1   
    35   16   43 1   
    36   16   44 1   
    37   17   18 1   
    38   17   45 1   
    39   17   46 1   
    40   18   19 1   
    41   18   47 1   
    42   18   48 1   
    43   19   20 1   
    44   19   49 1   
    45   19   50 1   
    46   20   21 1   
    47   20   51 1   
    48   20   52 1   
    49   21   22 ar  
    50   21   26 ar  
    51   22   23 ar  
    52   23   24 ar  
    53   23   53 1   
    54   24   25 ar  
    55   24   54 1   
    56   25   26 ar  
    57   25   55 1   
    58   26   56 1   
@<TRIPOS>SUBSTRUCTURE
     1 HW8         1 TEMP              0 ****  ****    0 ROOT
