@<TRIPOS>MOLECULE
HW9
   60    62     1     0     0
SMALL
bcc


@<TRIPOS>ATOM
      1 N02        -0.1270    0.3080    0.1450 n4        1 HW9     -0.818300
      2 C02         1.3460    0.1530    0.0810 ca        1 HW9      0.446200
      3 C03         2.0750    0.0360    1.2760 ca        1 HW9     -0.217300
      4 C04         3.4720   -0.1060    1.1650 ca        1 HW9      0.000700
      5 C05         4.0450   -0.1200   -0.1070 ca        1 HW9     -0.200300
      6 C07         4.3020   -0.2500    2.3810 c3        1 HW9     -0.080800
      7 N01         1.8840    0.1410   -1.1700 nb        1 HW9     -0.669000
      8 C06         3.2240    0.0050   -1.2600 ca        1 HW9      0.474600
      9 C08         3.8700    0.0030   -2.6180 c3        1 HW9     -0.129700
     10 C4'         3.5810   -1.2660   -3.3930 c3        1 HW9     -0.086700
     11 C3'         4.1550   -1.2180   -4.8290 c3        1 HW9      0.119100
     12 C2'         4.9780   -2.5240   -4.9810 c3        1 HW9      0.118800
     13 N1'         5.1710   -3.1270   -3.6690 n3        1 HW9     -0.785200
     14 C5'         4.2200   -2.5200   -2.7480 c3        1 HW9      0.147800
     15 O09         4.9910   -0.0730   -4.9480 os        1 HW9     -0.437600
     16 C10         5.2180    0.3190   -6.3060 c3        1 HW9      0.129400
     17 C11         6.1410    1.5230   -6.2550 c3        1 HW9     -0.082400
     18 C12         6.3860    2.0580   -7.6490 c3        1 HW9     -0.080400
     19 C13         7.2840    3.2770   -7.6070 c3        1 HW9     -0.074400
     20 C14         7.4870    3.8450   -8.9970 c3        1 HW9     -0.125700
     21 C26         8.4310    5.0130   -9.0030 ca        1 HW9      0.408600
     22 N21         8.1610    6.0850   -8.2140 nb        1 HW9     -0.677000
     23 C22         9.0150    7.1210   -8.2620 ca        1 HW9      0.401200
     24 C23        10.1620    7.1590   -9.0750 ca        1 HW9     -0.249300
     25 C24        10.4400    6.0530   -9.8860 ca        1 HW9     -0.032300
     26 C25         9.5600    4.9640   -9.8480 ca        1 HW9     -0.247300
     27 C27        11.6390    6.0260  -10.7530 c3        1 HW9     -0.062800
     28 H1         -0.4210    0.3350    1.1250 hn        1 HW9      0.469467
     29 H2         -0.4060    1.1780   -0.3250 hn        1 HW9      0.469467
     30 H3          1.6030    0.0530    2.2690 ha        1 HW9      0.166000
     31 H4          5.1360   -0.2280   -0.2290 ha        1 HW9      0.183000
     32 H5          3.8350    0.2690    3.2540 hc        1 HW9      0.075367
     33 H6          5.3240    0.1780    2.2190 hc        1 HW9      0.075367
     34 H7          4.4150   -1.3350    2.6360 hc        1 HW9      0.075367
     35 H8          3.5070    0.8850   -3.2150 hc        1 HW9      0.091200
     36 H9          4.9800    0.1270   -2.4950 hc        1 HW9      0.091200
     37 H10         2.4710   -1.4130   -3.4670 hc        1 HW9      0.065700
     38 H11         3.3290   -1.1760   -5.5870 h1        1 HW9      0.058700
     39 H12         4.4000   -3.2560   -5.6090 h1        1 HW9      0.067700
     40 H13         5.9560   -2.3150   -5.4890 h1        1 HW9      0.067700
     41 H14         6.1120   -2.9790   -3.3510 hn        1 HW9      0.358800
     42 H16         4.7030   -2.2590   -1.7680 h1        1 HW9      0.043700
     43 H17         3.4190   -3.2840   -2.5450 h1        1 HW9      0.043700
     44 H18         5.6890   -0.5290   -6.8690 h1        1 HW9      0.033700
     45 H19         4.2380    0.5800   -6.7860 h1        1 HW9      0.033700
     46 H20         7.1110    1.2310   -5.7770 hc        1 HW9      0.054200
     47 H21         5.6790    2.3180   -5.6130 hc        1 HW9      0.054200
     48 H22         5.4080    2.3290   -8.1280 hc        1 HW9      0.042700
     49 H23         6.8570    1.2610   -8.2830 hc        1 HW9      0.042700
     50 H24         6.8280    4.0560   -6.9410 hc        1 HW9      0.053700
     51 H25         8.2760    2.9990   -7.1640 hc        1 HW9      0.053700
     52 H26         6.4970    4.1750   -9.4160 hc        1 HW9      0.053200
     53 H27         7.8870    3.0450   -9.6750 hc        1 HW9      0.053200
     54 H28         8.7610    7.9760   -7.6090 h4        1 HW9      0.021100
     55 H29        10.8190    8.0380   -9.0710 ha        1 HW9      0.146000
     56 H30         9.7450    4.0810  -10.4740 ha        1 HW9      0.142000
     57 H31        11.9470    7.0610  -11.0430 hc        1 HW9      0.052367
     58 H32        11.4450    5.4390  -11.6840 hc        1 HW9      0.052367
     59 H33        12.4910    5.5470  -10.2070 hc        1 HW9      0.052367
     60 H023       -0.5790   -0.4840   -0.3300 hn        1 HW9      0.469467
@<TRIPOS>BOND
     1    1    2 1   
     2    1   28 1   
     3    1   29 1   
     4    1   60 1   
     5    2    3 ar  
     6    2    7 ar  
     7    3    4 ar  
     8    3   30 1   
     9    4    5 ar  
    10    4    6 1   
    11    5    8 ar  
    12    5   31 1   
    13    6   32 1   
    14    6   33 1   
    15    6   34 1   
    16    7    8 ar  
    17    8    9 1   
    18    9   10 1   
    19    9   35 1   
    20    9   36 1   
    21   10   11 1   
    22   10   14 1   
    23   10   37 1   
    24   11   12 1   
    25   11   15 1   
    26   11   38 1   
    27   12   13 1   
    28   12   39 1   
    29   12   40 1   
    30   13   14 1   
    31   13   41 1   
    32   14   42 1   
    33   14   43 1   
    34   15   16 1   
    35   16   17 1   
    36   16   44 1   
    37   16   45 1   
    38   17   18 1   
    39   17   46 1   
    40   17   47 1   
    41   18   19 1   
    42   18   48 1   
    43   18   49 1   
    44   19   20 1   
    45   19   50 1   
    46   19   51 1   
    47   20   21 1   
    48   20   52 1   
    49   20   53 1   
    50   21   22 ar  
    51   21   26 ar  
    52   22   23 ar  
    53   23   24 ar  
    54   23   54 1   
    55   24   25 ar  
    56   24   55 1   
    57   25   26 ar  
    58   25   27 1   
    59   26   56 1   
    60   27   57 1   
    61   27   58 1   
    62   27   59 1   
@<TRIPOS>SUBSTRUCTURE
     1 HW9         1 TEMP              0 ****  ****    0 ROOT
