@<TRIPOS>MOLECULE
HW9
   59    61     1     0     0
SMALL
bcc


@<TRIPOS>ATOM
      1 N02        -0.0340    0.2290    0.2860 nv        1 HW9     -0.923500
      2 C02         1.3540    0.0520    0.1560 ca        1 HW9      0.631200
      3 C03         2.1510   -0.0610    1.3350 ca        1 HW9     -0.302300
      4 C04         3.5360   -0.1330    1.2080 ca        1 HW9     -0.006300
      5 C05         4.1030   -0.1010   -0.0710 ca        1 HW9     -0.295300
      6 C07         4.4000   -0.2280    2.4080 c3        1 HW9     -0.060800
      7 N01         1.9080    0.0660   -1.0980 nb        1 HW9     -0.731000
      8 C06         3.2550    0.0010   -1.1920 ca        1 HW9      0.452600
      9 C08         3.8810    0.0480   -2.5610 c3        1 HW9     -0.117700
     10 C4'         3.5880   -1.1990   -3.3700 c3        1 HW9     -0.079700
     11 C3'         4.1290   -1.1200   -4.8150 c3        1 HW9      0.114100
     12 C2'         4.9870   -2.4000   -5.0020 c3        1 HW9      0.116800
     13 N1'         5.2210   -3.0150   -3.7020 n7        1 HW9     -0.789200
     14 C5'         4.2430   -2.4650   -2.7680 c3        1 HW9      0.140800
     15 O09         4.9370    0.0460   -4.9500 os        1 HW9     -0.423600
     16 C10         5.0950    0.4580   -6.3080 c3        1 HW9      0.130400
     17 C11         6.0180    1.6630   -6.2900 c3        1 HW9     -0.083400
     18 C12         6.2510    2.1700   -7.6960 c3        1 HW9     -0.079400
     19 C13         7.1710    3.3730   -7.6930 c3        1 HW9     -0.075400
     20 C14         7.4050    3.8750   -9.1040 c3        1 HW9     -0.127700
     21 C26         8.3680    5.0280   -9.1300 ca        1 HW9      0.413600
     22 N21         7.9960    6.2080   -8.5700 nb        1 HW9     -0.670000
     23 C22         8.8770    7.2210   -8.6170 ca        1 HW9      0.401200
     24 C23        10.1500    7.1310   -9.2070 ca        1 HW9     -0.253300
     25 C24        10.5320    5.9150   -9.7830 ca        1 HW9     -0.036300
     26 C25         9.6250    4.8480   -9.7430 ca        1 HW9     -0.249300
     27 C27        11.8640    5.7520  -10.4080 c3        1 HW9     -0.060800
     28 H1         -0.5650    0.1200   -0.5500 hn        1 HW9      0.400300
     29 H2         -0.4210   -0.2450    1.0710 hn        1 HW9      0.400300
     30 H3          1.6800   -0.0780    2.3270 ha        1 HW9      0.141000
     31 H4          5.1910   -0.1550   -0.2020 ha        1 HW9      0.142000
     32 H5          4.7800    0.7890    2.6800 hc        1 HW9      0.048700
     33 H6          3.8350   -0.6370    3.2810 hc        1 HW9      0.048700
     34 H7          5.2790   -0.8900    2.2110 hc        1 HW9      0.048700
     35 H8          4.9910    0.1760   -2.4550 hc        1 HW9      0.068700
     36 H9          3.4970    0.9430   -3.1220 hc        1 HW9      0.068700
     37 H10         2.4760   -1.3490   -3.4220 hc        1 HW9      0.074700
     38 H11         3.2860   -1.0930   -5.5540 h1        1 HW9      0.050700
     39 H12         5.9490   -2.1550   -5.5240 h1        1 HW9      0.054200
     40 H13         4.4180   -3.1380   -5.6300 h1        1 HW9      0.054200
     41 H14         6.1510   -2.8060   -3.3870 hn        1 HW9      0.348800
     42 H16         4.7090   -2.2330   -1.7720 h1        1 HW9      0.052200
     43 H17         3.4570   -3.2520   -2.6060 h1        1 HW9      0.052200
     44 H18         4.0920    0.7250   -6.7380 h1        1 HW9      0.026700
     45 H19         5.5380   -0.3800   -6.9100 h1        1 HW9      0.026700
     46 H20         5.5630    2.4700   -5.6580 hc        1 HW9      0.056200
     47 H21         6.9920    1.3780   -5.8130 hc        1 HW9      0.056200
     48 H22         6.6990    1.3530   -8.3220 hc        1 HW9      0.039200
     49 H23         5.2710    2.4470   -8.1650 hc        1 HW9      0.039200
     50 H24         6.7200    4.1900   -7.0700 hc        1 HW9      0.053200
     51 H25         8.1510    3.0970   -7.2220 hc        1 HW9      0.053200
     52 H26         7.8120    3.0430   -9.7380 hc        1 HW9      0.053200
     53 H27         6.4270    4.1930   -9.5550 hc        1 HW9      0.053200
     54 H28         8.5390    8.1650   -8.1520 h4        1 HW9      0.020100
     55 H29        10.8230    7.9980   -9.2150 ha        1 HW9      0.142000
     56 H30         9.8900    3.8790  -10.1870 ha        1 HW9      0.141000
     57 H31        12.2620    6.7330  -10.7660 hc        1 HW9      0.049367
     58 H32        12.5840    5.3320   -9.6600 hc        1 HW9      0.049367
     59 H33        11.8130    5.0500  -11.2760 hc        1 HW9      0.049367
@<TRIPOS>BOND
     1    1    2 1   
     2    1   28 1   
     3    1   29 1   
     4    2    3 ar  
     5    2    7 ar  
     6    3    4 ar  
     7    3   30 1   
     8    4    5 ar  
     9    4    6 1   
    10    5    8 ar  
    11    5   31 1   
    12    6   32 1   
    13    6   33 1   
    14    6   34 1   
    15    7    8 ar  
    16    8    9 1   
    17    9   10 1   
    18    9   35 1   
    19    9   36 1   
    20   10   11 1   
    21   10   14 1   
    22   10   37 1   
    23   11   12 1   
    24   11   15 1   
    25   11   38 1   
    26   12   13 1   
    27   12   39 1   
    28   12   40 1   
    29   13   14 1   
    30   13   41 1   
    31   14   42 1   
    32   14   43 1   
    33   15   16 1   
    34   16   17 1   
    35   16   44 1   
    36   16   45 1   
    37   17   18 1   
    38   17   46 1   
    39   17   47 1   
    40   18   19 1   
    41   18   48 1   
    42   18   49 1   
    43   19   20 1   
    44   19   50 1   
    45   19   51 1   
    46   20   21 1   
    47   20   52 1   
    48   20   53 1   
    49   21   22 ar  
    50   21   26 ar  
    51   22   23 ar  
    52   23   24 ar  
    53   23   54 1   
    54   24   25 ar  
    55   24   55 1   
    56   25   26 ar  
    57   25   27 1   
    58   26   56 1   
    59   27   57 1   
    60   27   58 1   
    61   27   59 1   
@<TRIPOS>SUBSTRUCTURE
     1 HW9         1 TEMP              0 ****  ****    0 ROOT
