@<TRIPOS>MOLECULE
HW9
   59    56     1     0     0
SMALL
bcc


@<TRIPOS>ATOM
      1 N02        -6.0590   -2.0010    4.2950 n3        1 HW9     -0.321000
      2 C02        -4.6580   -1.8740    4.5280 c2        1 HW9      0.110000
      3 C03        -4.1850   -1.6210    5.8140 c2        1 HW9     -0.237000
      4 C04        -2.8390   -1.5250    6.0400 c1        1 HW9      0.001000
      5 C05        -1.9590   -1.6780    5.0030 c1        1 HW9     -0.229000
      6 C07        -2.3190   -1.3270    7.4540 c3        1 HW9     -0.186000
      7 N01        -3.7740   -2.0260    3.4910 n1        1 HW9     -0.205000
      8 C06        -2.4340   -1.9310    3.7170 c1        1 HW9      0.030000
      9 C08        -1.4690   -2.1220    2.5870 c2        1 HW9     -0.102000
     10 C4'        -2.1490   -2.9260    1.4520 c3        1 HW9     -0.119000
     11 C3'        -1.3620   -2.6750    0.0400 c3        1 HW9      0.003000
     12 C2'        -0.3550   -3.4570    0.0510 c3        1 HW9     -0.120000
     13 N1'        -0.7770   -4.6670    0.9850 n3        1 HW9     -0.268000
     14 C5'        -2.0630   -4.2110    1.6940 c3        1 HW9     -0.096000
     15 O09        -0.9090   -1.2690   -0.0450 os        1 HW9     -0.280000
     16 C10        -0.6310   -0.8140   -1.3940 c3        1 HW9     -0.020000
     17 C11         0.3400    0.4160   -1.3400 c3        1 HW9     -0.162000
     18 C12         0.6790    0.8600   -2.7550 c3        1 HW9     -0.158000
     19 C13         1.8170    1.9040   -2.7100 c3        1 HW9     -0.154000
     20 C14         2.2120    2.2850   -4.1200 c3        1 HW9     -0.113000
     21 C26         3.3190    3.3320   -4.0710 c2        1 HW9     -0.009000
     22 N21         4.1670    3.3820   -2.9890 n2        1 HW9     -0.144000
     23 C22         5.2640    4.2140   -3.0080 c1        1 HW9     -0.064000
     24 C23         5.5190    5.0100   -4.1300 c1        1 HW9     -0.188000
     25 C24         4.6680    4.9610   -5.2180 c1        1 HW9     -0.029000
     26 C25         3.5730    4.1290   -5.1970 c2        1 HW9     -0.183000
     27 C27         4.9540    5.8360   -6.4690 c2        1 HW9     -0.186000
     28 H1         -6.6270   -2.1610    4.9950 hn        1 HW9      0.194500
     29 H2         -6.3920   -1.9460    3.4310 hn        1 HW9      0.194500
     30 H3         -4.8260   -1.5110    6.5680 ha        1 HW9      0.141000
     31 H4         -0.9850   -1.6080    5.1660 ha        1 HW9      0.142000
     32 H5         -2.5070   -0.4140    7.7450 hc        1 HW9      0.088000
     33 H6         -1.3560   -1.4830    7.4710 hc        1 HW9      0.088000
     34 H7         -2.7610   -1.9580    8.0540 hc        1 HW9      0.088000
     35 H8         -0.6920   -2.6050    2.9050 ha        1 HW9      0.107500
     36 H9         -1.1970   -1.2660    2.2520 ha        1 HW9      0.107500
     37 H10        -3.0990   -2.6580    1.3650 hc        1 HW9      0.114000
     38 H11        -1.9560   -2.8920   -0.7270 h1        1 HW9      0.089000
     39 H12         0.4260   -2.9990    0.4200 h1        1 HW9      0.094000
     40 H13        -0.1660   -3.7760   -0.8490 h1        1 HW9      0.094000
     41 H14        -0.1150   -4.8180    1.6120 hn        1 HW9      0.144000
     42 H16        -2.8460   -4.6820    1.3210 h1        1 HW9      0.091500
     43 H17        -1.9950   -4.3730    2.6640 h1        1 HW9      0.091500
     44 H18        -0.2180   -1.5310   -1.8990 h1        1 HW9      0.066000
     45 H19        -1.4770   -0.5470   -1.8320 h1        1 HW9      0.066000
     46 H20         1.1700    0.1600   -0.8670 hc        1 HW9      0.095500
     47 H21        -0.0940    1.1530   -0.8630 hc        1 HW9      0.095500
     48 H22        -0.1020    1.2530   -3.1650 hc        1 HW9      0.078500
     49 H23         0.9640    0.0930   -3.2740 hc        1 HW9      0.078500
     50 H24         1.5130    2.6940   -2.2340 hc        1 HW9      0.092000
     51 H25         2.5900    1.5230   -2.2480 hc        1 HW9      0.092000
     52 H26         2.5350    1.4930   -4.5930 hc        1 HW9      0.093000
     53 H27         1.4440    2.6480   -4.5840 hc        1 HW9      0.093000
     54 H28         5.8670    4.2470   -2.2350 ha        1 HW9      0.157000
     55 H29         6.3180    5.6150   -4.1430 ha        1 HW9      0.142000
     56 H30         2.9750    4.0940   -5.9600 ha        1 HW9      0.141000
     57 H31         4.1170    6.1940   -6.8130 ha        1 HW9      0.089000
     58 H32         5.5390    6.5650   -6.2240 ha        1 HW9      0.089000
     59 H33         5.3840    5.2900   -7.1600 ha        1 HW9      0.089000
@<TRIPOS>BOND
     1    1    2 1   
     2    1   28 1   
     3    1   29 1   
     4    2    3 1   
     5    2    7 1   
     6    3    4 1   
     7    3   30 1   
     8    4    6 1   
     9    5    8 1   
    10    5   31 1   
    11    6   32 1   
    12    6   33 1   
    13    6   34 1   
    14    9   10 1   
    15    9   35 1   
    16    9   36 1   
    17   10   11 1   
    18   10   14 1   
    19   10   37 1   
    20   11   12 1   
    21   11   15 1   
    22   11   38 1   
    23   12   13 1   
    24   12   39 1   
    25   12   40 1   
    26   13   14 1   
    27   13   41 1   
    28   14   42 1   
    29   14   43 1   
    30   15   16 1   
    31   16   17 1   
    32   16   44 1   
    33   16   45 1   
    34   17   18 1   
    35   17   46 1   
    36   17   47 1   
    37   18   19 1   
    38   18   48 1   
    39   18   49 1   
    40   19   20 1   
    41   19   50 1   
    42   19   51 1   
    43   20   21 1   
    44   20   52 1   
    45   20   53 1   
    46   21   22 1   
    47   21   26 1   
    48   22   23 1   
    49   23   54 1   
    50   24   25 1   
    51   24   55 1   
    52   25   26 1   
    53   26   56 1   
    54   27   57 1   
    55   27   58 1   
    56   27   59 1   
@<TRIPOS>SUBSTRUCTURE
     1 HW9         1 TEMP              0 ****  ****    0 ROOT
