@<TRIPOS>MOLECULE
HW9
   59    61     1     0     0
SMALL
bcc


@<TRIPOS>ATOM
      1 N02        -0.0480    0.2310    0.2710 nh        1 HW9     -0.923500
      2 C02         1.3410    0.0590    0.1470 ca        1 HW9      0.632200
      3 C03         2.1340   -0.0440    1.3300 ca        1 HW9     -0.301300
      4 C04         3.5190   -0.1120    1.2100 ca        1 HW9     -0.006300
      5 C05         4.0910   -0.0830   -0.0670 ca        1 HW9     -0.295300
      6 C07         4.3810   -0.2220    2.4100 c3        1 HW9     -0.060800
      7 N01         1.9010    0.0680   -1.1040 nb        1 HW9     -0.731000
      8 C06         3.2480    0.0090   -1.1920 ca        1 HW9      0.452600
      9 C08         3.8800    0.0510   -2.5590 c3        1 HW9     -0.117700
     10 C4'         3.5970   -1.2020   -3.3620 c3        1 HW9     -0.079700
     11 C3'         4.1440   -1.1270   -4.8060 c3        1 HW9      0.114100
     12 C2'         5.0090   -2.4030   -4.9820 c3        1 HW9      0.116800
     13 N1'         5.2420   -3.0100   -3.6780 n3        1 HW9     -0.789200
     14 C5'         4.2580   -2.4590   -2.7500 c3        1 HW9      0.140800
     15 O09         4.9450    0.0430   -4.9440 os        1 HW9     -0.423600
     16 C10         5.1070    0.4480   -6.3030 c3        1 HW9      0.130400
     17 C11         6.0240    1.6580   -6.2880 c3        1 HW9     -0.083400
     18 C12         6.2610    2.1570   -7.6970 c3        1 HW9     -0.079400
     19 C13         7.1730    3.3660   -7.6960 c3        1 HW9     -0.075400
     20 C14         7.4120    3.8590   -9.1100 c3        1 HW9     -0.127700
     21 C26         8.3670    5.0190   -9.1380 ca        1 HW9      0.413600
     22 N21         7.9820    6.2010   -8.5920 nb        1 HW9     -0.670000
     23 C22         8.8580    7.2190   -8.6390 ca        1 HW9      0.401200
     24 C23        10.1370    7.1330   -9.2170 ca        1 HW9     -0.253300
     25 C24        10.5310    5.9140   -9.7810 ca        1 HW9     -0.036300
     26 C25         9.6310    4.8420   -9.7390 ca        1 HW9     -0.249300
     27 C27        11.8580    5.7620  -10.4180 c3        1 HW9     -0.060800
     28 H1         -0.4360   -0.2390    1.0570 hn        1 HW9      0.400300
     29 H2         -0.5750    0.1170   -0.5670 hn        1 HW9      0.400300
     30 H3          1.6580   -0.0550    2.3200 ha        1 HW9      0.141000
     31 H4          5.1810   -0.1310   -0.1920 ha        1 HW9      0.142000
     32 H5          5.2470    0.4820    2.3350 hc        1 HW9      0.049033
     33 H6          4.7830   -1.2630    2.4950 hc        1 HW9      0.049033
     34 H7          3.8120    0.0140    3.3420 hc        1 HW9      0.049033
     35 H8          4.9880    0.1870   -2.4490 hc        1 HW9      0.068700
     36 H9          3.4930    0.9410   -3.1260 hc        1 HW9      0.068700
     37 H10         2.4870   -1.3590   -3.4180 hc        1 HW9      0.074700
     38 H11         3.3040   -1.1090   -5.5480 h1        1 HW9      0.050700
     39 H12         5.9720   -2.1560   -5.5020 h1        1 HW9      0.054200
     40 H13         4.4470   -3.1480   -5.6070 h1        1 HW9      0.054200
     41 H14         6.1700   -2.7930   -3.3610 hn        1 HW9      0.348800
     42 H16         4.7190   -2.2200   -1.7550 h1        1 HW9      0.052200
     43 H17         3.4760   -3.2510   -2.5860 h1        1 HW9      0.052200
     44 H18         4.1050    0.7070   -6.7390 h1        1 HW9      0.026700
     45 H19         5.5570   -0.3910   -6.8990 h1        1 HW9      0.026700
     46 H20         5.5610    2.4660   -5.6630 hc        1 HW9      0.056200
     47 H21         6.9970    1.3810   -5.8050 hc        1 HW9      0.056200
     48 H22         6.7160    1.3390   -8.3150 hc        1 HW9      0.039200
     49 H23         5.2810    2.4260   -8.1720 hc        1 HW9      0.039200
     50 H24         6.7140    4.1840   -7.0820 hc        1 HW9      0.053200
     51 H25         8.1520    3.0990   -7.2190 hc        1 HW9      0.053200
     52 H26         6.4340    4.1680   -9.5690 hc        1 HW9      0.053200
     53 H27         7.8280    3.0260   -9.7350 hc        1 HW9      0.053200
     54 H28         8.5100    8.1650   -8.1840 h4        1 HW9      0.020100
     55 H29        10.8060    8.0020   -9.2220 ha        1 HW9      0.142000
     56 H30         9.9080    3.8690  -10.1680 ha        1 HW9      0.141000
     57 H31        12.2550    4.7280  -10.2690 hc        1 HW9      0.049367
     58 H32        11.7740    5.9500  -11.5180 hc        1 HW9      0.049367
     59 H33        12.5930    6.4900   -9.9930 hc        1 HW9      0.049367
@<TRIPOS>BOND
     1    1    2 1   
     2    1   28 1   
     3    1   29 1   
     4    2    3 ar  
     5    2    7 ar  
     6    3    4 ar  
     7    3   30 1   
     8    4    5 ar  
     9    4    6 1   
    10    5    8 ar  
    11    5   31 1   
    12    6   32 1   
    13    6   33 1   
    14    6   34 1   
    15    7    8 ar  
    16    8    9 1   
    17    9   10 1   
    18    9   35 1   
    19    9   36 1   
    20   10   11 1   
    21   10   14 1   
    22   10   37 1   
    23   11   12 1   
    24   11   15 1   
    25   11   38 1   
    26   12   13 1   
    27   12   39 1   
    28   12   40 1   
    29   13   14 1   
    30   13   41 1   
    31   14   42 1   
    32   14   43 1   
    33   15   16 1   
    34   16   17 1   
    35   16   44 1   
    36   16   45 1   
    37   17   18 1   
    38   17   46 1   
    39   17   47 1   
    40   18   19 1   
    41   18   48 1   
    42   18   49 1   
    43   19   20 1   
    44   19   50 1   
    45   19   51 1   
    46   20   21 1   
    47   20   52 1   
    48   20   53 1   
    49   21   22 ar  
    50   21   26 ar  
    51   22   23 ar  
    52   23   24 ar  
    53   23   54 1   
    54   24   25 ar  
    55   24   55 1   
    56   25   26 ar  
    57   25   27 1   
    58   26   56 1   
    59   27   57 1   
    60   27   58 1   
    61   27   59 1   
@<TRIPOS>SUBSTRUCTURE
     1 HW9         1 TEMP              0 ****  ****    0 ROOT
