@<TRIPOS>MOLECULE
HW9
   59    61     1     0     0
SMALL
bcc


@<TRIPOS>ATOM
      1 N02        -7.2950   -1.4710    2.1180 nh        1 HW9     -0.922500
      2 C02        -6.3930   -1.5090    1.0400 ca        1 HW9      0.628200
      3 C03        -6.7680   -2.2000   -0.1510 ca        1 HW9     -0.302300
      4 C04        -5.9190   -2.1510   -1.2550 ca        1 HW9     -0.007300
      5 C05        -4.7220   -1.4330   -1.1580 ca        1 HW9     -0.291300
      6 C07        -6.2810   -2.8350   -2.5180 c3        1 HW9     -0.060800
      7 N01        -5.2110   -0.8230    1.1410 nb        1 HW9     -0.732000
      8 C06        -4.4080   -0.7860    0.0540 ca        1 HW9      0.451600
      9 C08        -3.1020   -0.0450    0.1510 c3        1 HW9     -0.113700
     10 C4'        -3.2950    1.4430    0.3580 c3        1 HW9     -0.078700
     11 C3'        -1.9640    2.2050    0.5460 c3        1 HW9      0.116100
     12 C2'        -1.9800    3.3360   -0.5190 c3        1 HW9      0.112800
     13 N1'        -3.2870    3.3770   -1.1610 n3        1 HW9     -0.788200
     14 C5'        -3.9710    2.1240   -0.8540 c3        1 HW9      0.140800
     15 O09        -0.8760    1.3140    0.3280 os        1 HW9     -0.415600
     16 C10         0.3730    1.8550    0.7590 c3        1 HW9      0.129400
     17 C11         1.4320    0.8220    0.4190 c3        1 HW9     -0.083400
     18 C12         2.8020    1.3170    0.8270 c3        1 HW9     -0.079400
     19 C13         3.8670    0.2910    0.5020 c3        1 HW9     -0.075400
     20 C14         5.2400    0.7950    0.9030 c3        1 HW9     -0.128700
     21 C26         6.3180   -0.1850    0.5360 ca        1 HW9      0.413600
     22 N21         6.3800   -1.3710    1.1940 nb        1 HW9     -0.670000
     23 C22         7.3590   -2.2220    0.8450 ca        1 HW9      0.401200
     24 C23         8.3140   -1.9590   -0.1520 ca        1 HW9     -0.253300
     25 C24         8.2500   -0.7360   -0.8290 ca        1 HW9     -0.036300
     26 C25         7.2350    0.1640   -0.4790 ca        1 HW9     -0.248300
     27 C27         9.2340   -0.3910   -1.8780 c3        1 HW9     -0.060800
     28 H1         -7.8380   -2.3010    2.2050 hn        1 HW9      0.398300
     29 H2         -6.9190   -1.1490    2.9830 hn        1 HW9      0.398300
     30 H3         -7.7160   -2.7520   -0.2020 ha        1 HW9      0.140000
     31 H4         -4.0350   -1.3730   -2.0120 ha        1 HW9      0.144000
     32 H5         -6.7140   -2.0950   -3.2380 hc        1 HW9      0.049033
     33 H6         -5.3780   -3.2950   -2.9900 hc        1 HW9      0.049033
     34 H7         -7.0380   -3.6380   -2.3410 hc        1 HW9      0.049033
     35 H8         -2.5000   -0.4540    1.0090 hc        1 HW9      0.069700
     36 H9         -2.5050   -0.2200   -0.7830 hc        1 HW9      0.069700
     37 H10        -3.9210    1.6090    1.2750 hc        1 HW9      0.070700
     38 H11        -1.8990    2.6340    1.5810 h1        1 HW9      0.041700
     39 H12        -1.7160    4.3210   -0.0530 h1        1 HW9      0.054700
     40 H13        -1.2170    3.1030   -1.3120 h1        1 HW9      0.054700
     41 H14        -3.8180    4.1540   -0.8100 hn        1 HW9      0.344800
     42 H16        -3.8840    1.4630   -1.7610 h1        1 HW9      0.055700
     43 H17        -5.0620    2.2920   -0.6530 h1        1 HW9      0.055700
     44 H18         0.5690    2.8240    0.2280 h1        1 HW9      0.026700
     45 H19         0.3380    2.0460    1.8650 h1        1 HW9      0.026700
     46 H20         1.1950   -0.1400    0.9440 hc        1 HW9      0.056700
     47 H21         1.4070    0.6130   -0.6820 hc        1 HW9      0.056700
     48 H22         3.0290    2.2790    0.2970 hc        1 HW9      0.039200
     49 H23         2.8130    1.5340    1.9280 hc        1 HW9      0.039200
     50 H24         3.6440   -0.6680    1.0400 hc        1 HW9      0.052700
     51 H25         3.8530    0.0680   -0.5970 hc        1 HW9      0.052700
     52 H26         5.4460    1.7740    0.3940 hc        1 HW9      0.053200
     53 H27         5.2620    0.9810    2.0110 hc        1 HW9      0.053200
     54 H28         7.3770   -3.1770    1.4020 h4        1 HW9      0.020100
     55 H29         9.0890   -2.6980   -0.3910 ha        1 HW9      0.142000
     56 H30         7.1510    1.1320   -0.9910 ha        1 HW9      0.141000
     57 H31        10.0750    0.1990   -1.4310 hc        1 HW9      0.049700
     58 H32         9.6620   -1.3120   -2.3450 hc        1 HW9      0.049700
     59 H33         8.7620    0.2270   -2.6810 hc        1 HW9      0.049700
@<TRIPOS>BOND
     1    1    2 1   
     2    1   28 1   
     3    1   29 1   
     4    2    3 ar  
     5    2    7 ar  
     6    3    4 ar  
     7    3   30 1   
     8    4    5 ar  
     9    4    6 1   
    10    5    8 ar  
    11    5   31 1   
    12    6   32 1   
    13    6   33 1   
    14    6   34 1   
    15    7    8 ar  
    16    8    9 1   
    17    9   10 1   
    18    9   35 1   
    19    9   36 1   
    20   10   11 1   
    21   10   14 1   
    22   10   37 1   
    23   11   12 1   
    24   11   15 1   
    25   11   38 1   
    26   12   13 1   
    27   12   39 1   
    28   12   40 1   
    29   13   14 1   
    30   13   41 1   
    31   14   42 1   
    32   14   43 1   
    33   15   16 1   
    34   16   17 1   
    35   16   44 1   
    36   16   45 1   
    37   17   18 1   
    38   17   46 1   
    39   17   47 1   
    40   18   19 1   
    41   18   48 1   
    42   18   49 1   
    43   19   20 1   
    44   19   50 1   
    45   19   51 1   
    46   20   21 1   
    47   20   52 1   
    48   20   53 1   
    49   21   22 ar  
    50   21   26 ar  
    51   22   23 ar  
    52   23   24 ar  
    53   23   54 1   
    54   24   25 ar  
    55   24   55 1   
    56   25   26 ar  
    57   25   27 1   
    58   26   56 1   
    59   27   57 1   
    60   27   58 1   
    61   27   59 1   
@<TRIPOS>SUBSTRUCTURE
     1 HW9         1 TEMP              0 ****  ****    0 ROOT
