@<TRIPOS>MOLECULE
HWD
   22    19     1     0     0
SMALL
bcc


@<TRIPOS>ATOM
      1 N1          0.1720   -0.5140    0.4230 n1        1 HWD     -0.743300
      2 C2          1.5440   -0.5230    0.4450 c1        1 HWD      0.839900
      3 O2          2.1730   -0.5000   -0.6120 o         1 HWD     -0.602500
      4 N3          2.1990   -0.5140    1.6130 n2        1 HWD     -0.838800
      5 C4          1.4930   -0.4960    2.8040 c1        1 HWD      0.614900
      6 O4          2.1180   -0.6170    3.9210 o         1 HWD     -0.644900
      7 C5          0.1350   -0.4860    2.7840 c1        1 HWD     -0.307500
      8 C6         -0.5280   -0.4960    1.5850 c1        1 HWD      0.485300
      9 C7         -0.5230   -0.6290   -0.8350 c3        1 HWD      0.248100
     10 C8         -0.7750    0.7420   -1.3990 c3        1 HWD     -0.011500
     11 N8         -2.1960    1.0170   -1.4010 n3        1 HWD     -0.908800
     12 C9         -0.2400    0.8130   -2.8400 c         1 HWD      0.895600
     13 O91        -0.6330   -0.0390   -3.7040 o         1 HWD     -0.824300
     14 O92         0.4470    1.8550   -3.2260 o         1 HWD     -0.824300
     15 H3          3.0840   -0.4980    1.6220 hn        1 HWD      0.494400
     16 H5         -0.4040   -0.4870    3.6770 ha        1 HWD      0.105500
     17 H6         -1.4580   -0.5930    1.5680 ha        1 HWD      0.120500
     18 H71        -0.0190   -1.0970   -1.4080 h1        1 HWD      0.083200
     19 H72        -1.3710   -1.0860   -0.6960 h1        1 HWD      0.083200
     20 H8         -0.3190    1.4020   -0.8510 h1        1 HWD      0.053700
     21 H81        -2.5630    0.8420   -2.2910 hn        1 HWD      0.341800
     22 H82        -2.3370    1.9060   -1.1780 hn        1 HWD      0.341800
@<TRIPOS>BOND
     1    1    8 3   
     2    1    9 1   
     3    2    3 2   
     4    2    4 2   
     5    4   15 1   
     6    5    6 1   
     7    5    7 3   
     8    7   16 1   
     9    8   17 1   
    10    9   10 1   
    11    9   18 1   
    12    9   19 1   
    13   10   11 1   
    14   10   12 1   
    15   10   20 1   
    16   11   21 1   
    17   11   22 1   
    18   12   13 1   
    19   12   14 1   
@<TRIPOS>SUBSTRUCTURE
     1 HWD         1 TEMP              0 ****  ****    0 ROOT
