@<TRIPOS>MOLECULE
HWD
   23    23     1     0     0
SMALL
bcc


@<TRIPOS>ATOM
      1 N1         -0.3460    0.2550    0.4030 n         1 HWD     -0.385000
      2 C2          0.2960    1.3210    1.0790 c         1 HWD      0.810500
      3 O2          0.0510    2.5150    0.7670 o         1 HWD     -0.713500
      4 N3          1.2300    1.0310    2.0750 ns        1 HWD     -0.577500
      5 C4          1.5740   -0.2910    2.4360 c         1 HWD      0.712700
      6 O4          2.4070   -0.4610    3.3380 o         1 HWD     -0.588500
      7 C5          0.8980   -1.3550    1.6870 cc        1 HWD     -0.310200
      8 C6         -0.0200   -1.0560    0.7330 cd        1 HWD      0.050600
      9 C7         -1.4400    0.5380   -0.5060 c3        1 HWD      0.088000
     10 C8         -1.0250    1.0290   -1.8940 c3        1 HWD     -0.107500
     11 N8         -0.6080    2.4560   -1.9200 nz        1 HWD     -0.824600
     12 C9         -2.2780    0.8080   -2.8990 c         1 HWD      0.944600
     13 O91        -2.8170   -0.3070   -2.8070 o         1 HWD     -0.749800
     14 O92        -2.5160    1.7860   -3.6470 o         1 HWD     -0.749800
     15 H3          1.6470    1.8030    2.5520 hn        1 HWD      0.356500
     16 H5          1.1700   -2.3880    1.9430 ha        1 HWD      0.188000
     17 H6         -0.5550   -1.8390    0.1590 h4        1 HWD      0.183000
     18 H71        -2.0320   -0.4140   -0.6790 h1        1 HWD      0.107700
     19 H72        -2.1240    1.2900   -0.0150 h1        1 HWD      0.107700
     20 H8         -0.1880    0.4090   -2.3170 hx        1 HWD      0.096700
     21 H81         0.4030    2.5480   -1.9680 hn        1 HWD      0.453467
     22 H82        -0.9390    2.9410   -1.0790 hn        1 HWD      0.453467
     23 H83        -1.0520    2.8800   -2.7620 hn        1 HWD      0.453467
@<TRIPOS>BOND
     1    1    2 1   
     2    1    8 1   
     3    1    9 1   
     4    2    3 2   
     5    2    4 1   
     6    4    5 1   
     7    4   15 1   
     8    5    6 2   
     9    5    7 1   
    10    7    8 2   
    11    7   16 1   
    12    8   17 1   
    13    9   10 1   
    14    9   18 1   
    15    9   19 1   
    16   10   11 1   
    17   10   12 1   
    18   10   20 1   
    19   11   21 1   
    20   11   22 1   
    21   11   23 1   
    22   12   13 1   
    23   12   14 1   
@<TRIPOS>SUBSTRUCTURE
     1 HWD         1 TEMP              0 ****  ****    0 ROOT
