@<TRIPOS>MOLECULE
HWD
   22    22     1     0     0
SMALL
bcc


@<TRIPOS>ATOM
      1 N1         -0.0960   -0.5530   -0.5780 n         1 HWD     -0.342000
      2 C2         -1.2260   -0.1290   -1.3230 c         1 HWD      0.795500
      3 O2         -2.3730   -0.0620   -0.8270 o         1 HWD     -0.644500
      4 N3         -1.0560    0.1840   -2.6870 n         1 HWD     -0.594500
      5 C4          0.1880    0.1250   -3.3360 c         1 HWD      0.721700
      6 O4          0.2460    0.4300   -4.5450 o         1 HWD     -0.665500
      7 C5          1.3160   -0.3030   -2.5160 cc        1 HWD     -0.384200
      8 C6          1.1380   -0.5940   -1.1940 cd        1 HWD      0.104600
      9 C7         -0.2070   -0.7440    0.8630 c3        1 HWD      0.103000
     10 C8          0.3230    0.4060    1.7420 c3        1 HWD     -0.011500
     11 N8          1.6750    0.8070    1.3900 n3        1 HWD     -0.908800
     12 C9          0.1600   -0.0940    3.2270 c         1 HWD      0.895600
     13 O91         1.2040   -0.1780    3.9290 o         1 HWD     -0.824300
     14 O92        -1.0060   -0.3740    3.6080 o         1 HWD     -0.824300
     15 H3         -1.8630    0.4840   -3.1850 hn        1 HWD      0.336500
     16 H5          2.2940   -0.3640   -3.0030 ha        1 HWD      0.163000
     17 H6          1.9840   -0.8970   -0.5460 h4        1 HWD      0.178000
     18 H71         0.3530   -1.6900    1.1090 h1        1 HWD      0.083200
     19 H72        -1.2960   -0.8830    1.1270 h1        1 HWD      0.083200
     20 H8         -0.3630    1.2900    1.6140 h1        1 HWD      0.053700
     21 H81         1.8230    1.7410    1.7250 hn        1 HWD      0.341800
     22 H82         2.3170    0.2150    1.8920 hn        1 HWD      0.341800
@<TRIPOS>BOND
     1    1    2 1   
     2    1    8 1   
     3    1    9 1   
     4    2    3 2   
     5    2    4 1   
     6    4    5 1   
     7    4   15 1   
     8    5    6 2   
     9    5    7 1   
    10    7    8 2   
    11    7   16 1   
    12    8   17 1   
    13    9   10 1   
    14    9   18 1   
    15    9   19 1   
    16   10   11 1   
    17   10   12 1   
    18   10   20 1   
    19   11   21 1   
    20   11   22 1   
    21   12   13 1   
    22   12   14 1   
@<TRIPOS>SUBSTRUCTURE
     1 HWD         1 TEMP              0 ****  ****    0 ROOT
