@<TRIPOS>MOLECULE
HWD
   23    23     1     0     0
SMALL
bcc


@<TRIPOS>ATOM
      1 N1         -0.3250    0.2660    0.4100 n         1 HWD     -0.385000
      2 C2          0.3710    1.3310    1.0340 c         1 HWD      0.810500
      3 O2          0.1360    2.5240    0.7110 o         1 HWD     -0.712500
      4 N3          1.3450    1.0380    1.9900 n         1 HWD     -0.577500
      5 C4          1.6790   -0.2840    2.3600 c         1 HWD      0.712700
      6 O4          2.5500   -0.4560    3.2240 o         1 HWD     -0.588500
      7 C5          0.9450   -1.3470    1.6640 cc        1 HWD     -0.310200
      8 C6         -0.0100   -1.0450    0.7490 cd        1 HWD      0.050600
      9 C7         -1.4540    0.5570   -0.4520 c3        1 HWD      0.088000
     10 C8         -1.0950    1.0130   -1.8670 c3        1 HWD     -0.107500
     11 N8         -0.6510    2.4300   -1.9410 n4        1 HWD     -0.824600
     12 C9         -2.4000    0.8010   -2.8070 c         1 HWD      0.944600
     13 O91        -2.9570   -0.3000   -2.6680 o         1 HWD     -0.749800
     14 O92        -2.6530    1.7700   -3.5610 o         1 HWD     -0.749800
     15 H3          1.8000    1.8100    2.4310 hn        1 HWD      0.356500
     16 H5          1.2080   -2.3800    1.9270 ha        1 HWD      0.188000
     17 H6         -0.5890   -1.8270    0.2160 h4        1 HWD      0.183000
     18 H71        -2.0990    1.3320    0.0560 h1        1 HWD      0.107700
     19 H72        -2.0740   -0.3850   -0.5790 h1        1 HWD      0.107700
     20 H8         -0.2930    0.3670   -2.3170 hx        1 HWD      0.096700
     21 H81        -0.9310    2.9370   -1.0930 hn        1 HWD      0.453467
     22 H82         0.3580    2.4990   -2.0380 hn        1 HWD      0.453467
     23 H83        -1.1270    2.8480   -2.7680 hn        1 HWD      0.453467
@<TRIPOS>BOND
     1    1    2 1   
     2    1    8 1   
     3    1    9 1   
     4    2    3 2   
     5    2    4 1   
     6    4    5 1   
     7    4   15 1   
     8    5    6 2   
     9    5    7 1   
    10    7    8 2   
    11    7   16 1   
    12    8   17 1   
    13    9   10 1   
    14    9   18 1   
    15    9   19 1   
    16   10   11 1   
    17   10   12 1   
    18   10   20 1   
    19   11   21 1   
    20   11   22 1   
    21   11   23 1   
    22   12   13 1   
    23   12   14 1   
@<TRIPOS>SUBSTRUCTURE
     1 HWD         1 TEMP              0 ****  ****    0 ROOT
