@<TRIPOS>MOLECULE
HWG
   57    59     1     0     0
SMALL
bcc


@<TRIPOS>ATOM
      1 C1          2.6420   -1.9530   -1.1270 ca        1 HWG     -0.074800
      2 C2          1.4500   -1.7750   -1.8350 ca        1 HWG     -0.108000
      3 C3          1.0990   -0.5030   -2.2970 ca        1 HWG     -0.140600
      4 C4          1.9270    0.5940   -2.0570 ca        1 HWG     -0.108000
      5 C5          3.1150    0.4240   -1.3340 ca        1 HWG     -0.074800
      6 C6          3.4660   -0.8490   -0.8770 ca        1 HWG     -0.115000
      7 C7         -1.9680   -0.6070    1.8310 ca        1 HWG     -0.092000
      8 C8         -1.7870   -0.8490    3.1890 ca        1 HWG     -0.139000
      9 C9         -0.7860   -0.1490    3.8730 ca        1 HWG      0.085100
     10 C10         0.0110    0.7970    3.2020 ca        1 HWG      0.038100
     11 C11        -0.1720    1.0500    1.8310 ca        1 HWG     -0.004300
     12 C12        -1.1690    0.3240    1.1580 ca        1 HWG     -0.162600
     13 O13        -0.6550   -0.4050    5.2260 os        1 HWG     -0.313900
     14 C14         0.5550    0.1030    5.7980 c3        1 HWG      0.089400
     15 C15         0.8680    1.4960    5.2780 c3        1 HWG      0.089400
     16 O16         1.0240    1.4850    3.8560 os        1 HWG     -0.313900
     17 C26         3.0410   -3.3000   -0.6560 c3        1 HWG     -0.056800
     18 C30         3.9780    1.5940   -1.0530 c3        1 HWG     -0.056800
     19 C38        -0.1480   -0.3180   -3.1020 c         1 HWG      0.651700
     20 C39        -1.3980    0.5710   -0.2960 c         1 HWG      0.641700
     21 N40        -1.3850   -0.6130   -2.4550 n         1 HWG     -0.328400
     22 N41        -1.4400   -0.6090   -1.0930 n         1 HWG     -0.385500
     23 O42        -0.0890   -0.0240   -4.3060 o         1 HWG     -0.557100
     24 O43        -1.6270    1.7000   -0.7580 o         1 HWG     -0.562100
     25 C45        -2.6550   -0.3200   -3.2030 c3        1 HWG      0.131400
     26 C46        -3.9080   -0.5770   -2.3470 c3        1 HWG     -0.106100
     27 C50        -2.7270    1.1330   -3.6910 c3        1 HWG     -0.106100
     28 C54        -2.7460   -1.2560   -4.4210 c3        1 HWG     -0.106100
     29 H2          0.7980   -2.6370   -2.0420 ha        1 HWG      0.146500
     30 H4          1.6500    1.5880   -2.4380 ha        1 HWG      0.146500
     31 H6          4.4020   -0.9880   -0.3140 ha        1 HWG      0.136000
     32 H7         -2.7560   -1.1500    1.2870 ha        1 HWG      0.150000
     33 H8         -2.4120   -1.5740    3.7290 ha        1 HWG      0.156000
     34 H141        1.3890   -0.6080    5.5570 h1        1 HWG      0.072200
     35 H142        0.3510    0.1110    6.9010 h1        1 HWG      0.072200
     36 H151        1.8590    1.8620    5.6550 h1        1 HWG      0.072700
     37 H152        0.0530    2.2150    5.5500 h1        1 HWG      0.072700
     38 H261        3.5460   -3.2400    0.3390 hc        1 HWG      0.047867
     39 H262        2.1540   -3.9740   -0.5620 hc        1 HWG      0.047867
     40 H263        3.7550   -3.7610   -1.3850 hc        1 HWG      0.047867
     41 H301        4.0860    2.2330   -1.9650 hc        1 HWG      0.047867
     42 H302        3.5200    2.2160   -0.2420 hc        1 HWG      0.047867
     43 H303        4.9970    1.2770   -0.7210 hc        1 HWG      0.047867
     44 H341        1.2520    1.5640    0.3110 hc        1 HWG      0.063700
     45 H342       -0.0010    2.8290    0.6590 hc        1 HWG      0.063700
     46 H343        1.3680    2.5580    1.8280 hc        1 HWG      0.063700
     47 H41        -0.8840   -1.3650   -0.7210 hn        1 HWG      0.310500
     48 H461       -3.9070   -1.6110   -1.9300 hc        1 HWG      0.048700
     49 H462       -3.9770    0.1590   -1.5110 hc        1 HWG      0.048700
     50 H463       -4.8090   -0.4570   -2.9960 hc        1 HWG      0.048700
     51 H501       -1.9240    1.3410   -4.4390 hc        1 HWG      0.048700
     52 H502       -3.7170    1.3030   -4.1770 hc        1 HWG      0.048700
     53 H503       -2.6190    1.8420   -2.8340 hc        1 HWG      0.048700
     54 H541       -3.7090   -1.0540   -4.9480 hc        1 HWG      0.048700
     55 H542       -1.9070   -1.0730   -5.1340 hc        1 HWG      0.048700
     56 H543       -2.7290   -2.3250   -4.1020 hc        1 HWG      0.048700
     57 C34         0.6580    2.0540    1.1270 c3        1 HWG     -0.071800
@<TRIPOS>BOND
     1    1    2 ar  
     2    1    6 ar  
     3    1   17 1   
     4    2    3 ar  
     5    2   29 1   
     6    3    4 ar  
     7    3   19 1   
     8    4    5 ar  
     9    4   30 1   
    10    5    6 ar  
    11    5   18 1   
    12    6   31 1   
    13    7    8 ar  
    14    7   12 ar  
    15    7   32 1   
    16    8    9 ar  
    17    8   33 1   
    18    9   10 ar  
    19    9   13 1   
    20   10   11 ar  
    21   10   16 1   
    22   11   12 ar  
    23   11   57 1   
    24   12   20 1   
    25   13   14 1   
    26   14   15 1   
    27   14   34 1   
    28   14   35 1   
    29   15   16 1   
    30   15   36 1   
    31   15   37 1   
    32   17   38 1   
    33   17   39 1   
    34   17   40 1   
    35   18   41 1   
    36   18   42 1   
    37   18   43 1   
    38   19   21 1   
    39   19   23 2   
    40   20   22 1   
    41   20   24 2   
    42   21   22 1   
    43   21   25 1   
    44   22   47 1   
    45   25   26 1   
    46   25   27 1   
    47   25   28 1   
    48   26   48 1   
    49   26   49 1   
    50   26   50 1   
    51   27   51 1   
    52   27   52 1   
    53   27   53 1   
    54   28   54 1   
    55   28   55 1   
    56   28   56 1   
    57   44   57 1   
    58   45   57 1   
    59   46   57 1   
@<TRIPOS>SUBSTRUCTURE
     1 HWG         1 TEMP              0 ****  ****    0 ROOT
