@<TRIPOS>MOLECULE
HWG
   57    55     1     0     0
SMALL
bcc


@<TRIPOS>ATOM
      1 C1          0.0380    0.7100    0.2400 c2        1 HWG     -0.094000
      2 C2          1.3570    0.1680   -0.0600 c2        1 HWG     -0.018000
      3 C3          1.5960   -1.1260   -0.3270 c2        1 HWG     -0.242000
      4 C4          0.9710    1.5740    4.3300 c1        1 HWG      0.200000
      5 C5          1.0420    1.2330    5.5610 c1        1 HWG     -0.560000
      6 C6         -1.1030    0.1050   -0.1220 c2        1 HWG     -0.192000
      7 C7          3.2520    2.5960   -4.3080 c3        1 HWG     -0.183000
      8 C8          2.4340    2.9360   -5.4520 c1        1 HWG     -0.130000
      9 C9          1.3350    3.8120   -5.2700 c2        1 HWG     -0.068000
     10 C10         1.0240    4.3610   -4.0400 c2        1 HWG      0.110000
     11 C11         1.8430    4.0530   -2.8690 c2        1 HWG     -0.021000
     12 C12         2.9080    3.2160   -3.0010 c2        1 HWG     -0.183000
     13 O13         0.5540    4.1380   -6.3600 oh        1 HWG     -0.256000
     14 C14        -1.7440    4.0940   -4.9080 c2        1 HWG     -0.264000
     15 C15        -1.1780    5.2070   -4.4450 c2        1 HWG     -0.020000
     16 O16         0.0480    5.2990   -3.7940 os        1 HWG     -0.163000
     17 C26         0.0470    2.0070    0.9650 c3        1 HWG     -0.206000
     18 C30         1.1140    0.8830    6.8240 c2        1 HWG      0.126000
     19 C38         2.9120   -1.7020   -0.6280 c2        1 HWG      0.289000
     20 C39         3.8150    2.8390   -1.9010 c2        1 HWG      0.240000
     21 N40         4.0280   -0.7630   -1.0100 n         1 HWG      0.041000
     22 N41         4.0190   -0.1070   -2.0070 n1        1 HWG     -0.302000
     23 O42         3.1370   -2.9150   -0.6300 o         1 HWG     -0.275000
     24 O43         3.4770    2.6930   -0.7230 o         1 HWG     -0.308000
     25 C45         5.1570   -0.8070    0.0300 c3        1 HWG     -0.007000
     26 C46         5.9890    0.4780   -0.0270 c3        1 HWG     -0.223667
     27 C50         4.5770   -0.9400    1.4400 c3        1 HWG     -0.223667
     28 C54         6.0720   -2.0000   -0.2540 c3        1 HWG     -0.223667
     29 H2          2.1730    0.9200   -0.0360 ha        1 HWG      0.161000
     30 H4          0.7900   -1.8810   -0.3230 ha        1 HWG      0.156000
     31 H6         -1.1250   -0.8480   -0.6650 ha        1 HWG      0.117500
     32 H7          3.2150    1.4640   -4.2040 hc        1 HWG      0.179500
     33 H8          4.3250    2.8320   -4.5770 hc        1 HWG      0.179500
     34 H141        0.9160    3.6460   -7.1150 ho        1 HWG      0.240000
     35 H142       -2.7460    4.1140   -5.3520 ha        1 HWG      0.132500
     36 H151       -1.2360    3.1220   -4.9100 ha        1 HWG      0.132500
     37 H152       -1.6250    6.2160   -4.4340 h4        1 HWG      0.164000
     38 H261        0.4470    1.8650    2.0050 hc        1 HWG      0.097667
     39 H262       -0.9820    2.4370    1.0380 hc        1 HWG      0.097667
     40 H263        0.7050    2.7430    0.4350 hc        1 HWG      0.097667
     41 H301       -2.0860    0.5410    0.0990 ha        1 HWG      0.117500
     42 H302        1.8810    0.1850    7.2020 ha        1 HWG      0.119000
     43 H303        0.4100    1.2660    7.5840 ha        1 HWG      0.119000
     44 H341        0.4520    4.2880   -1.2680 hc        1 HWG      0.102333
     45 H342        2.1850    4.5260   -0.7840 hc        1 HWG      0.102333
     46 H343        1.3200    5.8030   -1.7520 hc        1 HWG      0.102333
     47 H41         4.8680    2.6580   -2.2200 h4        1 HWG      0.106000
     48 H461        5.3400    1.3780    0.1130 hc        1 HWG      0.091778
     49 H462        6.5200    0.5650   -1.0050 hc        1 HWG      0.091778
     50 H463        6.7500    0.4490    0.7890 hc        1 HWG      0.091778
     51 H501        3.8620   -0.1110    1.6580 hc        1 HWG      0.091778
     52 H502        4.0560   -1.9190    1.5710 hc        1 HWG      0.091778
     53 H503        5.4140   -0.8900    2.1780 hc        1 HWG      0.091778
     54 H541        5.4980   -2.9590   -0.2180 hc        1 HWG      0.091778
     55 H542        6.8740   -2.0300    0.5210 hc        1 HWG      0.091778
     56 H543        6.5490   -1.9020   -1.2590 hc        1 HWG      0.091778
     57 C34         1.4400    4.7000   -1.5980 c3        1 HWG     -0.194000
@<TRIPOS>BOND
     1    1    2 1   
     2    1    6 1   
     3    1   17 1   
     4    2    3 1   
     5    2   29 1   
     6    3   19 1   
     7    3   30 1   
     8    4    5 1   
     9    5   18 1   
    10    6   31 1   
    11    6   41 1   
    12    7    8 1   
    13    7   12 1   
    14    7   32 1   
    15    7   33 1   
    16    8    9 1   
    17    9   10 1   
    18    9   13 1   
    19   10   11 1   
    20   10   16 1   
    21   11   12 1   
    22   11   57 1   
    23   12   20 1   
    24   13   34 1   
    25   14   15 1   
    26   14   35 1   
    27   14   36 1   
    28   15   16 1   
    29   15   37 1   
    30   17   38 1   
    31   17   39 1   
    32   17   40 1   
    33   18   42 1   
    34   18   43 1   
    35   19   21 1   
    36   19   23 1   
    37   20   24 1   
    38   20   47 1   
    39   21   22 1   
    40   21   25 1   
    41   25   26 1   
    42   25   27 1   
    43   25   28 1   
    44   26   48 1   
    45   26   49 1   
    46   26   50 1   
    47   27   51 1   
    48   27   52 1   
    49   27   53 1   
    50   28   54 1   
    51   28   55 1   
    52   28   56 1   
    53   44   57 1   
    54   45   57 1   
    55   46   57 1   
@<TRIPOS>SUBSTRUCTURE
     1 HWG         1 TEMP              0 ****  ****    0 ROOT
