@<TRIPOS>MOLECULE
HWG
   59    59     1     0     0
SMALL
bcc


@<TRIPOS>ATOM
      1 C1          0.4310   -1.7420    1.4450 c2        1 HWG     -0.046000
      2 C2          1.4000   -1.1330    0.6970 c2        1 HWG      0.015000
      3 C3          2.1690   -0.0020    1.1220 c2        1 HWG     -0.202000
      4 C4         -0.2910   -1.0340    3.8570 c1        1 HWG     -0.255000
      5 C5         -0.7030   -0.7080    5.1050 c2        1 HWG      0.315000
      6 C6          0.0800   -1.3310    2.7270 c1        1 HWG      0.179000
      7 C7          3.8640    3.3160   -3.8850 c3        1 HWG     -0.173000
      8 C8          3.8970    4.3030   -4.9460 c1        1 HWG     -0.092000
      9 C9          2.9100    5.3170   -4.9900 c2        1 HWG     -0.038000
     10 C10         1.8950    5.3990   -4.0480 c2        1 HWG      0.105000
     11 C11         1.8370    4.4290   -2.9500 c2        1 HWG      0.099000
     12 C12         2.7870    3.4380   -2.8650 c2        1 HWG     -0.232000
     13 O13         2.9600    6.2470   -5.9980 oh        1 HWG     -0.236000
     14 C14        -0.3130    7.6610   -5.4860 c2        1 HWG     -0.197000
     15 C15         0.8600    7.3610   -4.9280 c2        1 HWG     -0.053000
     16 O16         0.8760    6.3050   -3.9950 os        1 HWG     -0.161000
     17 C26        -0.3230   -2.9110    0.9060 c3        1 HWG     -0.202000
     18 C30        -1.7540   -1.4130    5.8150 c3        1 HWG     -0.293000
     19 C38         3.1310    0.6590    0.4230 c2        1 HWG      0.136000
     20 C39         2.7450    2.4800   -1.7580 c2        1 HWG      0.351000
     21 N40         3.6260    0.2910   -0.9400 nx        1 HWG      0.069000
     22 N41         3.6090    1.3120   -1.9050 ns        1 HWG     -0.298000
     23 O42         3.8140    1.7250    0.9410 oh        1 HWG     -0.242000
     24 O43         2.0230    2.5490   -0.7470 o         1 HWG     -0.360000
     25 C45         5.0220   -0.4660   -0.8350 c3        1 HWG      0.032000
     26 C46         5.2550   -1.2030   -2.1520 c3        1 HWG     -0.255000
     27 C50         6.1560    0.5150   -0.5690 c3        1 HWG     -0.255000
     28 C54         4.9280   -1.4710    0.3080 c3        1 HWG     -0.255000
     29 H2          1.5850   -1.5530   -0.3120 ha        1 HWG      0.151000
     30 H4          1.9520    0.3990    2.1340 ha        1 HWG      0.183000
     31 H6         -0.2090    0.1500    5.6200 ha        1 HWG      0.190000
     32 H7          3.7910    2.3170   -4.4180 hc        1 HWG      0.159000
     33 H8          4.8840    3.3650   -3.3980 hc        1 HWG      0.159000
     34 H141        3.6960    5.9970   -6.5880 ho        1 HWG      0.262000
     35 H142       -0.4120    8.5430   -6.1360 ha        1 HWG      0.146500
     36 H151       -1.2270    7.0770   -5.3190 ha        1 HWG      0.146500
     37 H152        1.8190    7.8830   -5.0560 h4        1 HWG      0.177000
     38 H261       -1.4180   -2.6770    0.8570 hc        1 HWG      0.122333
     39 H262        0.0240   -3.1790   -0.1220 hc        1 HWG      0.122333
     40 H263       -0.1840   -3.8040    1.5690 hc        1 HWG      0.122333
     41 H301       -2.2050   -2.2620    5.2420 hc        1 HWG      0.179000
     42 H302       -1.3500   -1.8070    6.7960 hc        1 HWG      0.179000
     43 H303       -2.5730   -0.6850    6.0980 hc        1 HWG      0.179000
     44 H341        0.2050    3.5920   -1.8380 hc        1 HWG      0.121667
     45 H342        1.1700    4.8520   -0.9670 hc        1 HWG      0.121667
     46 H343       -0.0070    5.3450   -2.2600 hc        1 HWG      0.121667
     47 H41         4.5530    1.5750   -2.1670 hn        1 HWG      0.249000
     48 H461        5.3320   -0.5060   -3.0220 hc        1 HWG      0.123667
     49 H462        6.2290   -1.7520   -2.0690 hc        1 HWG      0.123667
     50 H463        4.4520   -1.9530   -2.3530 hc        1 HWG      0.123667
     51 H501        6.4420    1.0850   -1.4870 hc        1 HWG      0.123667
     52 H502        7.0560   -0.0750   -0.2510 hc        1 HWG      0.123667
     53 H503        5.9120    1.2310    0.2550 hc        1 HWG      0.123667
     54 H541        4.8890   -0.9550    1.2990 hc        1 HWG      0.123667
     55 H542        4.0430   -2.1440    0.2000 hc        1 HWG      0.123667
     56 H543        5.8500   -2.1090    0.2860 hc        1 HWG      0.123667
     57 H401        3.1630    2.4170    1.1880 ho        1 HWG      0.292000
     58 H412        2.9610   -0.4120   -1.3160 hn        1 HWG      0.262000
     59 C34         0.7420    4.5680   -1.9640 c3        1 HWG     -0.217000
@<TRIPOS>BOND
     1    1    2 1   
     2    1    6 1   
     3    1   17 1   
     4    2    3 1   
     5    2   29 1   
     6    3   19 1   
     7    3   30 1   
     8    4    5 1   
     9    4    6 1   
    10    5   18 1   
    11    5   31 1   
    12    7    8 1   
    13    7   12 1   
    14    7   32 1   
    15    7   33 1   
    16    8    9 1   
    17    9   10 1   
    18    9   13 1   
    19   10   11 1   
    20   10   16 1   
    21   11   12 1   
    22   11   59 1   
    23   12   20 1   
    24   13   34 1   
    25   14   15 1   
    26   14   35 1   
    27   14   36 1   
    28   15   16 1   
    29   15   37 1   
    30   17   38 1   
    31   17   39 1   
    32   17   40 1   
    33   18   41 1   
    34   18   42 1   
    35   18   43 1   
    36   19   21 1   
    37   19   23 1   
    38   20   22 1   
    39   20   24 1   
    40   21   22 1   
    41   21   25 1   
    42   21   58 1   
    43   22   47 1   
    44   23   57 1   
    45   25   26 1   
    46   25   27 1   
    47   25   28 1   
    48   26   48 1   
    49   26   49 1   
    50   26   50 1   
    51   27   51 1   
    52   27   52 1   
    53   27   53 1   
    54   28   54 1   
    55   28   55 1   
    56   28   56 1   
    57   44   59 1   
    58   45   59 1   
    59   46   59 1   
@<TRIPOS>SUBSTRUCTURE
     1 HWG         1 TEMP              0 ****  ****    0 ROOT
