@<TRIPOS>MOLECULE
HWG
   57    53     1     0     0
SMALL
bcc


@<TRIPOS>ATOM
      1 C1         -4.1800   -2.3100   -0.3380 c1        1 HWG     -0.049100
      2 C2         -2.8080   -2.0430   -0.3240 c1        1 HWG     -0.031500
      3 C3         -2.1310   -1.8170   -1.5180 cg        1 HWG     -0.061200
      4 C4         -2.8240   -1.8580   -2.7360 c1        1 HWG     -0.045500
      5 C5         -4.2040   -2.1260   -2.7500 c1        1 HWG     -0.049100
      6 C6         -4.8780   -2.3510   -1.5620 c1        1 HWG     -0.045500
      7 C7          1.3890    1.9020    2.2540 c1        1 HWG     -0.064000
      8 C8          1.9270    2.9430    3.0750 c1        1 HWG     -0.064000
      9 C9          2.5840    4.0170    2.4930 c1        1 HWG      0.045100
     10 C10         2.7280    4.0860    1.0290 c1        1 HWG      0.045100
     11 C11         2.1990    3.0620    0.2220 c1        1 HWG      0.036900
     12 C12         1.5300    1.9690    0.8170 cg        1 HWG     -0.102200
     13 O13         3.1480    5.1340    3.2900 os        1 HWG     -0.295900
     14 C14         3.6210    6.1670    2.6260 c3        1 HWG      0.089400
     15 C15         4.2710    5.8860    1.3470 c3        1 HWG      0.089400
     16 O16         3.5840    5.1610    0.4800 os        1 HWG     -0.295900
     17 C26        -4.8790   -2.6920    0.9370 c3        1 HWG     -0.087500
     18 C30        -4.9830   -2.1580   -4.1080 c3        1 HWG     -0.087500
     19 C34         2.2310    3.2000   -1.3050 c3        1 HWG     -0.103000
     20 C38        -0.6090   -1.5570   -1.5050 c         1 HWG      0.639300
     21 C39         0.9460    0.8130   -0.0940 c         1 HWG      0.594300
     22 N40         0.1240   -1.5480   -0.2290 n         1 HWG     -0.334400
     23 N41         0.2720   -0.3080    0.5100 n         1 HWG     -0.387500
     24 O42        -0.0380   -1.2580   -2.5320 o         1 HWG     -0.573100
     25 O43         0.9570    0.9330   -1.3040 o         1 HWG     -0.559100
     26 C45         0.8800   -2.7240    0.1750 c3        1 HWG      0.098400
     27 C46         0.1630   -4.0080   -0.3470 c3        1 HWG     -0.110767
     28 C50         2.2760   -2.6480   -0.4080 c3        1 HWG     -0.110767
     29 C54         0.9650   -2.7720    1.6690 c3        1 HWG     -0.110767
     30 H2         -2.3270   -2.0150    0.5200 ha        1 HWG      0.081500
     31 H4         -2.3520   -1.7000   -3.5690 ha        1 HWG      0.083000
     32 H6         -5.8260   -2.5360   -1.5720 ha        1 HWG      0.083000
     33 H7          0.9290    1.1500    2.6620 ha        1 HWG      0.089000
     34 H8          1.8300    2.8970    4.0560 ha        1 HWG      0.089000
     35 H141        2.8820    6.7820    2.4590 h1        1 HWG      0.072950
     36 H142        4.2760    6.6260    3.2050 h1        1 HWG      0.072950
     37 H151        5.1020    5.4020    1.5410 h1        1 HWG      0.072950
     38 H152        4.4650    6.7440    0.9230 h1        1 HWG      0.072950
     39 H261       -5.4090   -1.9330    1.2600 hc        1 HWG      0.044867
     40 H262       -5.4750   -3.4610    0.7680 hc        1 HWG      0.044867
     41 H263       -4.2150   -2.9370    1.6120 hc        1 HWG      0.044867
     42 H301       -4.8040   -1.3370   -4.6060 hc        1 HWG      0.044867
     43 H302       -5.9530   -2.2290   -3.9300 hc        1 HWG      0.044867
     44 H303       -4.6900   -2.9320   -4.6380 hc        1 HWG      0.044867
     45 H341        1.3270    3.0150   -1.6740 hc        1 HWG      0.065033
     46 H342        2.5000    4.1060   -1.5440 hc        1 HWG      0.065033
     47 H343        2.8790    2.5540   -1.6810 hc        1 HWG      0.065033
     48 H41        -0.1170   -0.2180    1.3240 hn        1 HWG      0.307500
     49 H461       -0.6950   -4.1190    0.1230 hc        1 HWG      0.049478
     50 H462        0.0010   -3.9230   -1.3060 hc        1 HWG      0.049478
     51 H463        0.7390   -4.8030   -0.1770 hc        1 HWG      0.049478
     52 H501        2.2190   -2.4420   -1.3690 hc        1 HWG      0.049478
     53 H502        2.7840   -1.9380    0.0500 hc        1 HWG      0.049478
     54 H503        2.7270   -3.5010   -0.2850 hc        1 HWG      0.049478
     55 H541        1.6230   -3.4400    1.9360 hc        1 HWG      0.049478
     56 H542        0.0840   -3.0130    2.0410 hc        1 HWG      0.049478
     57 H543        1.2340   -1.8950    2.0090 hc        1 HWG      0.049478
@<TRIPOS>BOND
     1    1    6 3   
     2    1   17 1   
     3    2    3 3   
     4    2   30 1   
     5    3   20 1   
     6    4    5 3   
     7    4   31 1   
     8    5   18 1   
     9    6   32 1   
    10    7    8 3   
    11    7   33 1   
    12    8   34 1   
    13    9   10 3   
    14    9   13 1   
    15   10   16 1   
    16   11   12 3   
    17   11   19 1   
    18   12   21 1   
    19   13   14 1   
    20   14   15 1   
    21   14   35 1   
    22   14   36 1   
    23   15   16 1   
    24   15   37 1   
    25   15   38 1   
    26   17   39 1   
    27   17   40 1   
    28   17   41 1   
    29   18   42 1   
    30   18   43 1   
    31   18   44 1   
    32   19   45 1   
    33   19   46 1   
    34   19   47 1   
    35   20   22 1   
    36   20   24 2   
    37   21   23 1   
    38   21   25 2   
    39   22   23 1   
    40   22   26 1   
    41   23   48 1   
    42   26   27 1   
    43   26   28 1   
    44   26   29 1   
    45   27   49 1   
    46   27   50 1   
    47   27   51 1   
    48   28   52 1   
    49   28   53 1   
    50   28   54 1   
    51   29   55 1   
    52   29   56 1   
    53   29   57 1   
@<TRIPOS>SUBSTRUCTURE
     1 HWG         1 TEMP              0 ****  ****    0 ROOT
