@<TRIPOS>MOLECULE
HX0
  101   100     1     0     0
SMALL
bcc


@<TRIPOS>ATOM
      1 CAH        -8.1180    0.0260   -5.6960 c3        1 HX0     -0.095100
      2 CAG        -6.6050    0.0260   -5.6960 c3        1 HX0     -0.079400
      3 CAF        -6.0980    0.0260   -4.2630 c3        1 HX0     -0.079400
      4 CAE        -4.5730    0.0330   -4.2620 c3        1 HX0     -0.079400
      5 CAD        -4.0630    0.0170   -2.8190 c3        1 HX0     -0.079400
      6 CAC        -2.5340    0.0370   -2.8180 c3        1 HX0     -0.080400
      7 CAB        -2.0190    0.0130   -1.3610 c3        1 HX0     -0.101400
      8 CAA        -0.4820    0.0340   -1.3620 c3        1 HX0      0.110800
      9 NAQ         0.0050    0.0070    0.0030 n4        1 HX0     -0.603800
     10 CAP         1.4570    0.0260   -0.0010 c3        1 HX0      0.110800
     11 CAO         1.9750   -0.0060    1.4470 c3        1 HX0     -0.101400
     12 CAN         3.5200    0.0170    1.4430 c3        1 HX0     -0.080400
     13 CAM         4.0350   -0.0190    2.8810 c3        1 HX0     -0.079400
     14 CAL         5.5670    0.0090    2.8760 c3        1 HX0     -0.079400
     15 CAK         6.0830   -0.0460    4.3100 c3        1 HX0     -0.079400
     16 CAJ         7.6020    0.0020    4.3030 c3        1 HX0     -0.079400
     17 CAI         8.1150   -0.0800    5.7250 c3        1 HX0     -0.095100
     18 CAZ        -0.4930    1.1650    0.7190 c3        1 HX0      0.110800
     19 CBA        -0.0050    2.4480    0.0250 c3        1 HX0     -0.101400
     20 CBB        -0.5300    3.6800    0.7940 c3        1 HX0     -0.080400
     21 CBC        -0.0630    4.9570    0.0940 c3        1 HX0     -0.079400
     22 CBD        -0.5760    6.1780    0.8620 c3        1 HX0     -0.079400
     23 CBE        -0.1250    7.4510    0.1530 c3        1 HX0     -0.079400
     24 CBF        -0.6270    8.6630    0.9190 c3        1 HX0     -0.079400
     25 CBG        -0.1930    9.9250    0.2050 c3        1 HX0     -0.095100
     26 CAR        -0.4610   -1.2020    0.6590 c3        1 HX0      0.110800
     27 CAS         0.0700   -2.4330   -0.0960 c3        1 HX0     -0.101400
     28 CAT        -0.4340   -3.7200    0.5960 c3        1 HX0     -0.080400
     29 CAU         0.0980   -4.9420   -0.1510 c3        1 HX0     -0.079400
     30 CAV        -0.4040   -6.2170    0.5340 c3        1 HX0     -0.079400
     31 CAW         0.1260   -7.4380   -0.2100 c3        1 HX0     -0.079400
     32 CAX        -0.3670   -8.7020    0.4760 c3        1 HX0     -0.079400
     33 CAY         0.1420   -9.9140   -0.2740 c3        1 HX0     -0.095100
     34 HAH1       -8.4430   -0.7700   -5.2330 hc        1 HX0      0.038033
     35 HAH2       -8.4430    0.0230   -6.6160 hc        1 HX0      0.038033
     36 HAH3       -8.4430    0.8240   -5.2380 hc        1 HX0      0.038033
     37 HAG1       -6.2800   -0.7710   -6.1560 hc        1 HX0      0.040700
     38 HAG2       -6.2800    0.8230   -6.1560 hc        1 HX0      0.040700
     39 HAF1       -6.4280    0.8200   -3.8010 hc        1 HX0      0.042700
     40 HAF2       -6.4200   -0.7740   -3.8040 hc        1 HX0      0.042700
     41 HAE1       -4.2440   -0.7570   -4.7330 hc        1 HX0      0.044700
     42 HAE2       -4.2520    0.8370   -4.7130 hc        1 HX0      0.044700
     43 HAD1       -4.3990    0.8030   -2.3470 hc        1 HX0      0.046700
     44 HAD2       -4.3790   -0.7910   -2.3710 hc        1 HX0      0.046700
     45 HAC1       -2.1980   -0.7460   -3.2940 hc        1 HX0      0.052700
     46 HAC2       -2.2180    0.8470   -3.2610 hc        1 HX0      0.052700
     47 HAB1       -2.3560    0.7950   -0.8840 hc        1 HX0      0.063200
     48 HAB2       -2.3330   -0.7990   -0.9190 hc        1 HX0      0.063200
     49 HAA        -0.1460   -0.7460   -1.8430 hx        1 HX0      0.094700
     50 HAP         1.7700    0.8400   -0.4400 hx        1 HX0      0.094700
     51 HAZ        -0.1620    1.1470    1.6370 hx        1 HX0      0.094700
     52 HAR        -1.4370   -1.2170    0.6600 hx        1 HX0      0.094700
     53 HAO1        1.6630   -0.8200    1.8860 hc        1 HX0      0.063200
     54 HAO2        1.6390    0.7730    1.9300 hc        1 HX0      0.063200
     55 HAN1        3.8550   -0.7610    0.9580 hc        1 HX0      0.052700
     56 HAN2        3.8320    0.8320    1.0060 hc        1 HX0      0.052700
     57 HAM1        3.6970    0.7570    3.3680 hc        1 HX0      0.046700
     58 HAM2        3.7260   -0.8360    3.3170 hc        1 HX0      0.046700
     59 HAL1        5.8750    0.8320    2.4510 hc        1 HX0      0.044700
     60 HAL2        5.9050   -0.7600    2.3790 hc        1 HX0      0.044700
     61 HAK1        5.7350    0.7160    4.8100 hc        1 HX0      0.042700
     62 HAK2        5.7850   -0.8750    4.7310 hc        1 HX0      0.042700
     63 HAJ1        7.8990    0.8380    3.8980 hc        1 HX0      0.040700
     64 HAJ2        7.9490   -0.7510    3.7880 hc        1 HX0      0.040700
     65 HAI1        9.0900   -0.0420    5.7220 hc        1 HX0      0.038033
     66 HAI2        7.7610    0.6680    6.2420 hc        1 HX0      0.038033
     67 HAI3        7.8240   -0.9210    6.1280 hc        1 HX0      0.038033
     68 HBA1        0.9710    2.4610    0.0150 hc        1 HX0      0.063200
     69 HBA2       -0.3400    2.4690   -0.8920 hc        1 HX0      0.063200
     70 HBB1       -1.5050    3.6590    0.8160 hc        1 HX0      0.052700
     71 HBB2       -0.1840    3.6650    1.7070 hc        1 HX0      0.052700
     72 HBC1       -0.4130    4.9750   -0.8170 hc        1 HX0      0.046700
     73 HBC2        0.9130    4.9760    0.0680 hc        1 HX0      0.046700
     74 HBD1       -1.5510    6.1530    0.8980 hc        1 HX0      0.044700
     75 HBD2       -0.2160    6.1660    1.7690 hc        1 HX0      0.044700
     76 HBE1        0.8500    7.4720    0.1120 hc        1 HX0      0.042700
     77 HBE2       -0.4890    7.4650   -0.7530 hc        1 HX0      0.042700
     78 HBF1       -1.6010    8.6360    0.9700 hc        1 HX0      0.040700
     79 HBF2       -0.2540    8.6550    1.8210 hc        1 HX0      0.040700
     80 HBG1       -0.5110   10.7040    0.7000 hc        1 HX0      0.038033
     81 HBG2        0.7810    9.9500    0.1500 hc        1 HX0      0.038033
     82 HBG3       -0.5710    9.9360   -0.6950 hc        1 HX0      0.038033
     83 HAS1        1.0460   -2.4220   -0.0910 hc        1 HX0      0.063200
     84 HAS2       -0.2510   -2.4120   -1.0180 hc        1 HX0      0.063200
     85 HAT1       -1.4100   -3.7330    0.5890 hc        1 HX0      0.052700
     86 HAT2       -0.1150   -3.7390    1.5190 hc        1 HX0      0.052700
     87 HAU1        1.0740   -4.9300   -0.1420 hc        1 HX0      0.046700
     88 HAU2       -0.2200   -4.9220   -1.0740 hc        1 HX0      0.046700
     89 HAV1       -0.0870   -6.2360    1.4580 hc        1 HX0      0.044700
     90 HAV2       -1.3800   -6.2290    0.5250 hc        1 HX0      0.044700
     91 HAW1       -0.1950   -7.4220   -1.1320 hc        1 HX0      0.042700
     92 HAW2        1.1020   -7.4240   -0.2040 hc        1 HX0      0.042700
     93 HAX1       -1.3430   -8.7090    0.4820 hc        1 HX0      0.040700
     94 HAX2       -0.0360   -8.7240    1.3930 hc        1 HX0      0.040700
     95 HAB        -0.1680    0.8470   -1.8020 hx        1 HX0      0.094700
     96 HAQ         1.7910   -0.7540   -0.4830 hx        1 HX0      0.094700
     97 HBA        -1.4690    1.1500    0.7250 hx        1 HX0      0.094700
     98 HAO        -0.1340   -1.2200    1.5790 hx        1 HX0      0.094700
     99 HAY1       -0.1700  -10.7250    0.1690 hc        1 HX0      0.038033
    100 HAY2        1.1180   -9.9040   -0.2850 hc        1 HX0      0.038033
    101 HAY3       -0.1940   -9.8940   -1.1910 hc        1 HX0      0.038033
@<TRIPOS>BOND
     1    1    2 1   
     2    1   34 1   
     3    1   35 1   
     4    1   36 1   
     5    2    3 1   
     6    2   37 1   
     7    2   38 1   
     8    3    4 1   
     9    3   39 1   
    10    3   40 1   
    11    4    5 1   
    12    4   41 1   
    13    4   42 1   
    14    5    6 1   
    15    5   43 1   
    16    5   44 1   
    17    6    7 1   
    18    6   45 1   
    19    6   46 1   
    20    7    8 1   
    21    7   47 1   
    22    7   48 1   
    23    8    9 1   
    24    8   49 1   
    25    8   95 1   
    26    9   10 1   
    27    9   18 1   
    28    9   26 1   
    29   10   11 1   
    30   10   50 1   
    31   10   96 1   
    32   11   12 1   
    33   11   53 1   
    34   11   54 1   
    35   12   13 1   
    36   12   55 1   
    37   12   56 1   
    38   13   14 1   
    39   13   57 1   
    40   13   58 1   
    41   14   15 1   
    42   14   59 1   
    43   14   60 1   
    44   15   16 1   
    45   15   61 1   
    46   15   62 1   
    47   16   17 1   
    48   16   63 1   
    49   16   64 1   
    50   17   65 1   
    51   17   66 1   
    52   17   67 1   
    53   18   19 1   
    54   18   51 1   
    55   18   97 1   
    56   19   20 1   
    57   19   68 1   
    58   19   69 1   
    59   20   21 1   
    60   20   70 1   
    61   20   71 1   
    62   21   22 1   
    63   21   72 1   
    64   21   73 1   
    65   22   23 1   
    66   22   74 1   
    67   22   75 1   
    68   23   24 1   
    69   23   76 1   
    70   23   77 1   
    71   24   25 1   
    72   24   78 1   
    73   24   79 1   
    74   25   80 1   
    75   25   81 1   
    76   25   82 1   
    77   26   27 1   
    78   26   52 1   
    79   26   98 1   
    80   27   28 1   
    81   27   83 1   
    82   27   84 1   
    83   28   29 1   
    84   28   85 1   
    85   28   86 1   
    86   29   30 1   
    87   29   87 1   
    88   29   88 1   
    89   30   31 1   
    90   30   89 1   
    91   30   90 1   
    92   31   32 1   
    93   31   91 1   
    94   31   92 1   
    95   32   33 1   
    96   32   93 1   
    97   32   94 1   
    98   33   99 1   
    99   33  100 1   
   100   33  101 1   
@<TRIPOS>SUBSTRUCTURE
     1 HX0         1 TEMP              0 ****  ****    0 ROOT
