@<TRIPOS>MOLECULE
HX0
  101   100     1     0     0
SMALL
bcc


@<TRIPOS>ATOM
      1 CAH         0.8030    0.2250   -1.1560 c3        1 HX0     -0.095100
      2 CAG         2.2850    0.1510   -0.8960 c3        1 HX0     -0.079400
      3 CAF         2.5890    0.1740    0.5870 c3        1 HX0     -0.079400
      4 CAE         4.0790    0.0990    0.8430 c3        1 HX0     -0.079400
      5 CAD         4.3790    0.1220    2.3270 c3        1 HX0     -0.079400
      6 CAC         5.8700    0.0470    2.5800 c3        1 HX0     -0.080400
      7 CAB         6.1630    0.0720    4.0690 c3        1 HX0     -0.101400
      8 CAA         7.6690   -0.0010    4.2780 c3        1 HX0      0.110800
      9 NAQ         8.1410   -0.0000    5.7100 n4        1 HX0     -0.603800
     10 CAP         9.6490   -0.0010    5.6770 c3        1 HX0      0.110800
     11 CAO        10.3490   -0.0730    7.0270 c3        1 HX0     -0.101400
     12 CAN        11.8500   -0.0490    6.8060 c3        1 HX0     -0.080400
     13 CAM        12.5860   -0.1240    8.1270 c3        1 HX0     -0.079400
     14 CAL        14.0850   -0.1010    7.9150 c3        1 HX0     -0.079400
     15 CAK        14.8240   -0.1760    9.2340 c3        1 HX0     -0.079400
     16 CAJ        16.3230   -0.1530    9.0250 c3        1 HX0     -0.079400
     17 CAI        17.0630   -0.2270   10.3350 c3        1 HX0     -0.095100
     18 CAZ         7.6230    1.2130    6.4430 c3        1 HX0      0.110800
     19 CBA         7.9680    2.5630    5.8290 c3        1 HX0     -0.101400
     20 CBB         7.3840    3.6620    6.6980 c3        1 HX0     -0.080400
     21 CBC         7.7010    5.0250    6.1200 c3        1 HX0     -0.079400
     22 CBD         7.1220    6.1280    6.9810 c3        1 HX0     -0.079400
     23 CBE         7.4360    7.4920    6.4050 c3        1 HX0     -0.079400
     24 CBF         6.8580    8.5960    7.2650 c3        1 HX0     -0.079400
     25 CBG         7.1690    9.9560    6.6960 c3        1 HX0     -0.095100
     26 CAR         7.6220   -1.2120    6.4440 c3        1 HX0      0.110800
     27 CAS         8.0840   -2.5630    5.9160 c3        1 HX0     -0.101400
     28 CAT         7.4600   -3.6610    6.7580 c3        1 HX0     -0.080400
     29 CAU         7.8980   -5.0250    6.2670 c3        1 HX0     -0.079400
     30 CAV         7.2800   -6.1260    7.1030 c3        1 HX0     -0.079400
     31 CAW         7.7160   -7.4910    6.6150 c3        1 HX0     -0.079400
     32 CAX         7.0990   -8.5940    7.4490 c3        1 HX0     -0.079400
     33 CAY         7.5300   -9.9550    6.9670 c3        1 HX0     -0.095100
     34 HAH1        0.3750    1.1670   -0.7360 hc        1 HX0      0.038033
     35 HAH2        0.2750   -0.6400   -0.6860 hc        1 HX0      0.038033
     36 HAH3        0.6020    0.2060   -2.2550 hc        1 HX0      0.038033
     37 HAG1        2.7010   -0.7890   -1.3480 hc        1 HX0      0.040700
     38 HAG2        2.8000    1.0130   -1.3970 hc        1 HX0      0.040700
     39 HAF1        2.0760   -0.6890    1.0890 hc        1 HX0      0.042700
     40 HAF2        2.1750    1.1140    1.0400 hc        1 HX0      0.042700
     41 HAE1        4.5900    0.9620    0.3410 hc        1 HX0      0.044700
     42 HAE2        4.4910   -0.8410    0.3900 hc        1 HX0      0.044700
     43 HAD1        3.9660    1.0630    2.7790 hc        1 HX0      0.046700
     44 HAD2        3.8660   -0.7410    2.8280 hc        1 HX0      0.046700
     45 HAC1        6.2810   -0.8940    2.1270 hc        1 HX0      0.052700
     46 HAC2        6.3800    0.9120    2.0780 hc        1 HX0      0.052700
     47 HAB1        5.7460    1.0150    4.5100 hc        1 HX0      0.063200
     48 HAB2        5.6480   -0.7960    4.5590 hc        1 HX0      0.063200
     49 HAA         8.0640   -0.9420    3.7960 hx        1 HX0      0.094700
     50 HAP         9.9680   -0.8840    5.0510 hx        1 HX0      0.094700
     51 HAZ         8.0330    1.1690    7.4930 hx        1 HX0      0.094700
     52 HAR         6.4960   -1.1670    6.4090 hx        1 HX0      0.094700
     53 HAO1       10.0590    0.7950    7.6760 hc        1 HX0      0.063200
     54 HAO2       10.0720   -1.0160    7.5680 hc        1 HX0      0.063200
     55 HAN1       12.1410    0.8920    6.2670 hc        1 HX0      0.052700
     56 HAN2       12.1530   -0.9130    6.1580 hc        1 HX0      0.052700
     57 HAM1       12.2860    0.7400    8.7770 hc        1 HX0      0.046700
     58 HAM2       12.2980   -1.0640    8.6680 hc        1 HX0      0.046700
     59 HAL1       14.3880   -0.9640    7.2650 hc        1 HX0      0.044700
     60 HAL2       14.3750    0.8390    7.3740 hc        1 HX0      0.044700
     61 HAK1       14.5350   -1.1150    9.7750 hc        1 HX0      0.042700
     62 HAK2       14.5230    0.6880    9.8850 hc        1 HX0      0.042700
     63 HAJ1       16.6110    0.7860    8.4820 hc        1 HX0      0.040700
     64 HAJ2       16.6230   -1.0160    8.3730 hc        1 HX0      0.040700
     65 HAI1       16.7970    0.6380   10.9890 hc        1 HX0      0.038033
     66 HAI2       18.1660   -0.2090   10.1580 hc        1 HX0      0.038033
     67 HAI3       16.8090   -1.1690   10.8800 hc        1 HX0      0.038033
     68 HBA1        9.0790    2.7000    5.7610 hc        1 HX0      0.063200
     69 HBA2        7.5440    2.6480    4.7940 hc        1 HX0      0.063200
     70 HBB1        6.2720    3.5360    6.7750 hc        1 HX0      0.052700
     71 HBB2        7.8030    3.5890    7.7370 hc        1 HX0      0.052700
     72 HBC1        8.8130    5.1540    6.0420 hc        1 HX0      0.046700
     73 HBC2        7.2830    5.1020    5.0810 hc        1 HX0      0.046700
     74 HBD1        6.0100    6.0000    7.0600 hc        1 HX0      0.044700
     75 HBD2        7.5390    6.0530    8.0200 hc        1 HX0      0.044700
     76 HBE1        7.0190    7.5680    5.3670 hc        1 HX0      0.042700
     77 HBE2        8.5480    7.6210    6.3260 hc        1 HX0      0.042700
     78 HBF1        7.2750    8.5180    8.3040 hc        1 HX0      0.040700
     79 HBF2        5.7470    8.4650    7.3440 hc        1 HX0      0.040700
     80 HBG1        6.7400   10.0630    5.6700 hc        1 HX0      0.038033
     81 HBG2        6.7340   10.7550    7.3440 hc        1 HX0      0.038033
     82 HBG3        8.2730   10.1160    6.6320 hc        1 HX0      0.038033
     83 HAS1        7.7770   -2.7010    4.8460 hc        1 HX0      0.063200
     84 HAS2        9.2020   -2.6490    5.9680 hc        1 HX0      0.063200
     85 HAT1        7.7600   -3.5340    7.8310 hc        1 HX0      0.052700
     86 HAT2        6.3410   -3.5870    6.7110 hc        1 HX0      0.052700
     87 HAU1        9.0170   -5.1020    6.3120 hc        1 HX0      0.046700
     88 HAU2        7.5990   -5.1550    5.1940 hc        1 HX0      0.046700
     89 HAV1        6.1610   -6.0500    7.0580 hc        1 HX0      0.044700
     90 HAV2        7.5780   -5.9970    8.1770 hc        1 HX0      0.044700
     91 HAW1        7.4180   -7.6210    5.5410 hc        1 HX0      0.042700
     92 HAW2        8.8350   -7.5680    6.6590 hc        1 HX0      0.042700
     93 HAX1        7.3970   -8.4620    8.5220 hc        1 HX0      0.040700
     94 HAX2        5.9810   -8.5150    7.4040 hc        1 HX0      0.040700
     95 HAB         8.1530    0.8820    3.7680 hx        1 HX0      0.094700
     96 HAQ         9.9720    0.9400    5.1440 hx        1 HX0      0.094700
     97 HBA         6.5010    1.1120    6.5020 hx        1 HX0      0.094700
     98 HAO         7.9420   -1.1100    7.5220 hx        1 HX0      0.094700
     99 HAY1        7.2200  -10.1150    5.9060 hc        1 HX0      0.038033
    100 HAY2        7.0640  -10.7520    7.5950 hc        1 HX0      0.038033
    101 HAY3        8.6400  -10.0620    7.0270 hc        1 HX0      0.038033
@<TRIPOS>BOND
     1    1    2 1   
     2    1   34 1   
     3    1   35 1   
     4    1   36 1   
     5    2    3 1   
     6    2   37 1   
     7    2   38 1   
     8    3    4 1   
     9    3   39 1   
    10    3   40 1   
    11    4    5 1   
    12    4   41 1   
    13    4   42 1   
    14    5    6 1   
    15    5   43 1   
    16    5   44 1   
    17    6    7 1   
    18    6   45 1   
    19    6   46 1   
    20    7    8 1   
    21    7   47 1   
    22    7   48 1   
    23    8    9 1   
    24    8   49 1   
    25    8   95 1   
    26    9   10 1   
    27    9   18 1   
    28    9   26 1   
    29   10   11 1   
    30   10   50 1   
    31   10   96 1   
    32   11   12 1   
    33   11   53 1   
    34   11   54 1   
    35   12   13 1   
    36   12   55 1   
    37   12   56 1   
    38   13   14 1   
    39   13   57 1   
    40   13   58 1   
    41   14   15 1   
    42   14   59 1   
    43   14   60 1   
    44   15   16 1   
    45   15   61 1   
    46   15   62 1   
    47   16   17 1   
    48   16   63 1   
    49   16   64 1   
    50   17   65 1   
    51   17   66 1   
    52   17   67 1   
    53   18   19 1   
    54   18   51 1   
    55   18   97 1   
    56   19   20 1   
    57   19   68 1   
    58   19   69 1   
    59   20   21 1   
    60   20   70 1   
    61   20   71 1   
    62   21   22 1   
    63   21   72 1   
    64   21   73 1   
    65   22   23 1   
    66   22   74 1   
    67   22   75 1   
    68   23   24 1   
    69   23   76 1   
    70   23   77 1   
    71   24   25 1   
    72   24   78 1   
    73   24   79 1   
    74   25   80 1   
    75   25   81 1   
    76   25   82 1   
    77   26   27 1   
    78   26   52 1   
    79   26   98 1   
    80   27   28 1   
    81   27   83 1   
    82   27   84 1   
    83   28   29 1   
    84   28   85 1   
    85   28   86 1   
    86   29   30 1   
    87   29   87 1   
    88   29   88 1   
    89   30   31 1   
    90   30   89 1   
    91   30   90 1   
    92   31   32 1   
    93   31   91 1   
    94   31   92 1   
    95   32   33 1   
    96   32   93 1   
    97   32   94 1   
    98   33   99 1   
    99   33  100 1   
   100   33  101 1   
@<TRIPOS>SUBSTRUCTURE
     1 HX0         1 TEMP              0 ****  ****    0 ROOT
