@<TRIPOS>MOLECULE
HX0
  101   100     1     0     0
SMALL
bcc


@<TRIPOS>ATOM
      1 CAH         0.7860   -0.2190   -1.1380 c3        1 HX0     -0.095100
      2 CAG         2.2690   -0.1470   -0.8810 c3        1 HX0     -0.079400
      3 CAF         2.5760   -0.1690    0.6010 c3        1 HX0     -0.079400
      4 CAE         4.0670   -0.0970    0.8530 c3        1 HX0     -0.079400
      5 CAD         4.3700   -0.1190    2.3370 c3        1 HX0     -0.079400
      6 CAC         5.8630   -0.0470    2.5850 c3        1 HX0     -0.080400
      7 CAB         6.1590   -0.0700    4.0740 c3        1 HX0     -0.101400
      8 CAA         7.6660   -0.0010    4.2790 c3        1 HX0      0.110800
      9 NAQ         8.1410   -0.0010    5.7100 n4        1 HX0     -0.603800
     10 CAP         9.6490   -0.0020    5.6730 c3        1 HX0      0.110800
     11 CAO        10.3520    0.0700    7.0220 c3        1 HX0     -0.101400
     12 CAN        11.8530    0.0440    6.7970 c3        1 HX0     -0.080400
     13 CAM        12.5920    0.1200    8.1170 c3        1 HX0     -0.079400
     14 CAL        14.0910    0.0940    7.9010 c3        1 HX0     -0.079400
     15 CAK        14.8320    0.1710    9.2180 c3        1 HX0     -0.079400
     16 CAJ        16.3310    0.1450    9.0060 c3        1 HX0     -0.079400
     17 CAI        17.0740    0.2210   10.3140 c3        1 HX0     -0.095100
     18 CAZ         7.6260    1.2120    6.4440 c3        1 HX0      0.110800
     19 CBA         8.0870    2.5620    5.9130 c3        1 HX0     -0.101400
     20 CBB         7.4670    3.6620    6.7560 c3        1 HX0     -0.080400
     21 CBC         7.9040    5.0250    6.2620 c3        1 HX0     -0.079400
     22 CBD         7.2900    6.1270    7.0990 c3        1 HX0     -0.079400
     23 CBE         7.7250    7.4910    6.6070 c3        1 HX0     -0.079400
     24 CBF         7.1120    8.5960    7.4420 c3        1 HX0     -0.079400
     25 CBG         7.5420    9.9560    6.9560 c3        1 HX0     -0.095100
     26 CAR         7.6240   -1.2120    6.4450 c3        1 HX0      0.110800
     27 CAS         7.9650   -2.5630    5.8320 c3        1 HX0     -0.101400
     28 CAT         7.3830   -3.6610    6.7040 c3        1 HX0     -0.080400
     29 CAU         7.6960   -5.0250    6.1250 c3        1 HX0     -0.079400
     30 CAV         7.1190   -6.1260    6.9900 c3        1 HX0     -0.079400
     31 CAW         7.4310   -7.4910    6.4140 c3        1 HX0     -0.079400
     32 CAX         6.8550   -8.5940    7.2770 c3        1 HX0     -0.079400
     33 CAY         7.1630   -9.9550    6.7080 c3        1 HX0     -0.095100
     34 HAH1        0.2610    0.6470   -0.6680 hc        1 HX0      0.038033
     35 HAH2        0.3570   -1.1600   -0.7150 hc        1 HX0      0.038033
     36 HAH3        0.5820   -0.2010   -2.2360 hc        1 HX0      0.038033
     37 HAG1        2.7810   -1.0110   -1.3820 hc        1 HX0      0.040700
     38 HAG2        2.6850    0.7910   -1.3350 hc        1 HX0      0.040700
     39 HAF1        2.1610   -1.1070    1.0560 hc        1 HX0      0.042700
     40 HAF2        2.0660    0.6950    1.1030 hc        1 HX0      0.042700
     41 HAE1        4.4800    0.8420    0.3970 hc        1 HX0      0.044700
     42 HAE2        4.5750   -0.9620    0.3510 hc        1 HX0      0.044700
     43 HAD1        3.8610    0.7470    2.8370 hc        1 HX0      0.046700
     44 HAD2        3.9560   -1.0570    2.7910 hc        1 HX0      0.046700
     45 HAC1        6.3690   -0.9130    2.0830 hc        1 HX0      0.052700
     46 HAC2        6.2740    0.8920    2.1300 hc        1 HX0      0.052700
     47 HAB1        5.6480    0.8000    4.5630 hc        1 HX0      0.063200
     48 HAB2        5.7410   -1.0120    4.5180 hc        1 HX0      0.063200
     49 HAA         8.1470   -0.8850    3.7680 hx        1 HX0      0.094700
     50 HAP         9.9700   -0.9430    5.1400 hx        1 HX0      0.094700
     51 HAZ         7.9490    1.1120    7.5210 hx        1 HX0      0.094700
     52 HAR         6.5010   -1.1100    6.5060 hx        1 HX0      0.094700
     53 HAO1       10.0780    1.0150    7.5620 hc        1 HX0      0.063200
     54 HAO2       10.0630   -0.7960    7.6720 hc        1 HX0      0.063200
     55 HAN1       12.1560    0.9070    6.1470 hc        1 HX0      0.052700
     56 HAN2       12.1410   -0.8980    6.2600 hc        1 HX0      0.052700
     57 HAM1       12.3070    1.0610    8.6570 hc        1 HX0      0.046700
     58 HAM2       12.2910   -0.7420    8.7690 hc        1 HX0      0.046700
     59 HAL1       14.3780   -0.8480    7.3620 hc        1 HX0      0.044700
     60 HAL2       14.3930    0.9550    7.2480 hc        1 HX0      0.044700
     61 HAK1       14.5310   -0.6900    9.8720 hc        1 HX0      0.042700
     62 HAK2       14.5460    1.1120    9.7580 hc        1 HX0      0.042700
     63 HAJ1       16.6310    1.0050    8.3510 hc        1 HX0      0.040700
     64 HAJ2       16.6160   -0.7970    8.4650 hc        1 HX0      0.040700
     65 HAI1       16.8230    1.1650   10.8570 hc        1 HX0      0.038033
     66 HAI2       18.1760    0.2010   10.1350 hc        1 HX0      0.038033
     67 HAI3       16.8080   -0.6420   10.9710 hc        1 HX0      0.038033
     68 HBA1        9.2050    2.6470    5.9620 hc        1 HX0      0.063200
     69 HBA2        7.7760    2.7000    4.8440 hc        1 HX0      0.063200
     70 HBB1        6.3480    3.5880    6.7140 hc        1 HX0      0.052700
     71 HBB2        7.7710    3.5360    7.8290 hc        1 HX0      0.052700
     72 HBC1        9.0230    5.1010    6.3030 hc        1 HX0      0.046700
     73 HBC2        7.6010    5.1540    5.1900 hc        1 HX0      0.046700
     74 HBD1        6.1710    6.0520    7.0580 hc        1 HX0      0.044700
     75 HBD2        7.5930    6.0000    8.1710 hc        1 HX0      0.044700
     76 HBE1        7.4230    7.6200    5.5340 hc        1 HX0      0.042700
     77 HBE2        8.8440    7.5680    6.6470 hc        1 HX0      0.042700
     78 HBF1        7.4140    8.4650    8.5150 hc        1 HX0      0.040700
     79 HBF2        5.9930    8.5180    7.4020 hc        1 HX0      0.040700
     80 HBG1        7.2280   10.1150    5.8960 hc        1 HX0      0.038033
     81 HBG2        7.0790   10.7550    7.5850 hc        1 HX0      0.038033
     82 HBG3        8.6520   10.0630    7.0130 hc        1 HX0      0.038033
     83 HAS1        7.5370   -2.6490    4.7980 hc        1 HX0      0.063200
     84 HAS2        9.0750   -2.7020    5.7600 hc        1 HX0      0.063200
     85 HAT1        7.8050   -3.5870    7.7410 hc        1 HX0      0.052700
     86 HAT2        6.2710   -3.5340    6.7840 hc        1 HX0      0.052700
     87 HAU1        8.8080   -5.1550    6.0440 hc        1 HX0      0.046700
     88 HAU2        7.2750   -5.1020    5.0880 hc        1 HX0      0.046700
     89 HAV1        6.0070   -5.9980    7.0720 hc        1 HX0      0.044700
     90 HAV2        7.5390   -6.0510    8.0270 hc        1 HX0      0.044700
     91 HAW1        7.0100   -7.5680    5.3770 hc        1 HX0      0.042700
     92 HAW2        8.5420   -7.6210    6.3320 hc        1 HX0      0.042700
     93 HAX1        7.2750   -8.5150    8.3150 hc        1 HX0      0.040700
     94 HAX2        5.7440   -8.4630    7.3600 hc        1 HX0      0.040700
     95 HAB         8.0620    0.9390    3.7950 hx        1 HX0      0.094700
     96 HAQ         9.9670    0.8800    5.0460 hx        1 HX0      0.094700
     97 HBA         6.4990    1.1680    6.4130 hx        1 HX0      0.094700
     98 HAO         8.0360   -1.1680    7.4940 hx        1 HX0      0.094700
     99 HAY1        6.7300  -10.0630    5.6840 hc        1 HX0      0.038033
    100 HAY2        6.7300  -10.7530    7.3590 hc        1 HX0      0.038033
    101 HAY3        8.2660  -10.1160    6.6410 hc        1 HX0      0.038033
@<TRIPOS>BOND
     1    1    2 1   
     2    1   34 1   
     3    1   35 1   
     4    1   36 1   
     5    2    3 1   
     6    2   37 1   
     7    2   38 1   
     8    3    4 1   
     9    3   39 1   
    10    3   40 1   
    11    4    5 1   
    12    4   41 1   
    13    4   42 1   
    14    5    6 1   
    15    5   43 1   
    16    5   44 1   
    17    6    7 1   
    18    6   45 1   
    19    6   46 1   
    20    7    8 1   
    21    7   47 1   
    22    7   48 1   
    23    8    9 1   
    24    8   49 1   
    25    8   95 1   
    26    9   10 1   
    27    9   18 1   
    28    9   26 1   
    29   10   11 1   
    30   10   50 1   
    31   10   96 1   
    32   11   12 1   
    33   11   53 1   
    34   11   54 1   
    35   12   13 1   
    36   12   55 1   
    37   12   56 1   
    38   13   14 1   
    39   13   57 1   
    40   13   58 1   
    41   14   15 1   
    42   14   59 1   
    43   14   60 1   
    44   15   16 1   
    45   15   61 1   
    46   15   62 1   
    47   16   17 1   
    48   16   63 1   
    49   16   64 1   
    50   17   65 1   
    51   17   66 1   
    52   17   67 1   
    53   18   19 1   
    54   18   51 1   
    55   18   97 1   
    56   19   20 1   
    57   19   68 1   
    58   19   69 1   
    59   20   21 1   
    60   20   70 1   
    61   20   71 1   
    62   21   22 1   
    63   21   72 1   
    64   21   73 1   
    65   22   23 1   
    66   22   74 1   
    67   22   75 1   
    68   23   24 1   
    69   23   76 1   
    70   23   77 1   
    71   24   25 1   
    72   24   78 1   
    73   24   79 1   
    74   25   80 1   
    75   25   81 1   
    76   25   82 1   
    77   26   27 1   
    78   26   52 1   
    79   26   98 1   
    80   27   28 1   
    81   27   83 1   
    82   27   84 1   
    83   28   29 1   
    84   28   85 1   
    85   28   86 1   
    86   29   30 1   
    87   29   87 1   
    88   29   88 1   
    89   30   31 1   
    90   30   89 1   
    91   30   90 1   
    92   31   32 1   
    93   31   91 1   
    94   31   92 1   
    95   32   33 1   
    96   32   93 1   
    97   32   94 1   
    98   33   99 1   
    99   33  100 1   
   100   33  101 1   
@<TRIPOS>SUBSTRUCTURE
     1 HX0         1 TEMP              0 ****  ****    0 ROOT
