@<TRIPOS>MOLECULE
HX0
  101   100     1     0     0
SMALL
bcc


@<TRIPOS>ATOM
      1 CAH         0.7980    0.2330   -1.1520 c3        1 HX0     -0.095100
      2 CAG         2.2800    0.1560   -0.8930 c3        1 HX0     -0.079400
      3 CAF         2.5840    0.1790    0.5900 c3        1 HX0     -0.079400
      4 CAE         4.0740    0.1010    0.8450 c3        1 HX0     -0.079400
      5 CAD         4.3760    0.1250    2.3290 c3        1 HX0     -0.079400
      6 CAC         5.8670    0.0470    2.5800 c3        1 HX0     -0.080400
      7 CAB         6.1610    0.0720    4.0690 c3        1 HX0     -0.101400
      8 CAA         7.6680   -0.0020    4.2770 c3        1 HX0      0.110800
      9 NAQ         8.1400   -0.0020    5.7100 n4        1 HX0     -0.603800
     10 CAP         9.6480   -0.0030    5.6750 c3        1 HX0      0.110800
     11 CAO        10.3490   -0.0740    7.0250 c3        1 HX0     -0.101400
     12 CAN        11.8500   -0.0510    6.8030 c3        1 HX0     -0.080400
     13 CAM        12.5860   -0.1230    8.1240 c3        1 HX0     -0.079400
     14 CAL        14.0850   -0.1010    7.9110 c3        1 HX0     -0.079400
     15 CAK        14.8250   -0.1720    9.2310 c3        1 HX0     -0.079400
     16 CAJ        16.3240   -0.1510    9.0210 c3        1 HX0     -0.079400
     17 CAI        17.0640   -0.2200   10.3310 c3        1 HX0     -0.095100
     18 CAZ         7.6230    1.2100    6.4430 c3        1 HX0      0.110800
     19 CBA         7.9690    2.5610    5.8310 c3        1 HX0     -0.101400
     20 CBB         7.3860    3.6600    6.7000 c3        1 HX0     -0.080400
     21 CBC         7.7050    5.0230    6.1230 c3        1 HX0     -0.079400
     22 CBD         7.1260    6.1250    6.9860 c3        1 HX0     -0.079400
     23 CBE         7.4430    7.4900    6.4110 c3        1 HX0     -0.079400
     24 CBF         6.8640    8.5940    7.2710 c3        1 HX0     -0.079400
     25 CBG         7.1770    9.9540    6.7030 c3        1 HX0     -0.095100
     26 CAR         7.6220   -1.2140    6.4430 c3        1 HX0      0.110800
     27 CAS         8.0840   -2.5650    5.9140 c3        1 HX0     -0.101400
     28 CAT         7.4590   -3.6630    6.7550 c3        1 HX0     -0.080400
     29 CAU         7.8980   -5.0270    6.2650 c3        1 HX0     -0.079400
     30 CAV         7.2790   -6.1280    7.1000 c3        1 HX0     -0.079400
     31 CAW         7.7150   -7.4930    6.6120 c3        1 HX0     -0.079400
     32 CAX         7.0980   -8.5960    7.4450 c3        1 HX0     -0.079400
     33 CAY         7.5300   -9.9570    6.9630 c3        1 HX0     -0.095100
     34 HAH1        0.2690   -0.6310   -0.6820 hc        1 HX0      0.038033
     35 HAH2        0.5960    0.2140   -2.2500 hc        1 HX0      0.038033
     36 HAH3        0.3710    1.1760   -0.7320 hc        1 HX0      0.038033
     37 HAG1        2.6930   -0.7850   -1.3450 hc        1 HX0      0.040700
     38 HAG2        2.7960    1.0170   -1.3940 hc        1 HX0      0.040700
     39 HAF1        2.1730    1.1200    1.0430 hc        1 HX0      0.042700
     40 HAF2        2.0700   -0.6820    1.0920 hc        1 HX0      0.042700
     41 HAE1        4.5880    0.9630    0.3420 hc        1 HX0      0.044700
     42 HAE2        4.4850   -0.8400    0.3920 hc        1 HX0      0.044700
     43 HAD1        3.9650    1.0660    2.7800 hc        1 HX0      0.046700
     44 HAD2        3.8620   -0.7370    2.8300 hc        1 HX0      0.046700
     45 HAC1        6.2760   -0.8940    2.1280 hc        1 HX0      0.052700
     46 HAC2        6.3780    0.9100    2.0770 hc        1 HX0      0.052700
     47 HAB1        5.6460   -0.7940    4.5600 hc        1 HX0      0.063200
     48 HAB2        5.7460    1.0170    4.5110 hc        1 HX0      0.063200
     49 HAA         8.0610   -0.9430    3.7950 hx        1 HX0      0.094700
     50 HAP         9.9660   -0.8870    5.0500 hx        1 HX0      0.094700
     51 HAZ         8.0330    1.1650    7.4930 hx        1 HX0      0.094700
     52 HAR         6.4950   -1.1690    6.4080 hx        1 HX0      0.094700
     53 HAO1       10.0710   -1.0160    7.5670 hc        1 HX0      0.063200
     54 HAO2       10.0600    0.7960    7.6720 hc        1 HX0      0.063200
     55 HAN1       12.1520   -0.9180    6.1570 hc        1 HX0      0.052700
     56 HAN2       12.1410    0.8880    6.2620 hc        1 HX0      0.052700
     57 HAM1       12.2860    0.7430    8.7720 hc        1 HX0      0.046700
     58 HAM2       12.2980   -1.0610    8.6680 hc        1 HX0      0.046700
     59 HAL1       14.3760    0.8370    7.3670 hc        1 HX0      0.044700
     60 HAL2       14.3870   -0.9670    7.2650 hc        1 HX0      0.044700
     61 HAK1       14.5240    0.6940    9.8780 hc        1 HX0      0.042700
     62 HAK2       14.5350   -1.1090    9.7760 hc        1 HX0      0.042700
     63 HAJ1       16.6230   -1.0160    8.3720 hc        1 HX0      0.040700
     64 HAJ2       16.6120    0.7860    8.4740 hc        1 HX0      0.040700
     65 HAI1       16.7990    0.6480   10.9820 hc        1 HX0      0.038033
     66 HAI2       18.1670   -0.2030   10.1540 hc        1 HX0      0.038033
     67 HAI3       16.8100   -1.1590   10.8800 hc        1 HX0      0.038033
     68 HBA1        9.0800    2.6970    5.7630 hc        1 HX0      0.063200
     69 HBA2        7.5460    2.6470    4.7950 hc        1 HX0      0.063200
     70 HBB1        7.8030    3.5850    7.7390 hc        1 HX0      0.052700
     71 HBB2        6.2730    3.5350    6.7760 hc        1 HX0      0.052700
     72 HBC1        8.8170    5.1510    6.0470 hc        1 HX0      0.046700
     73 HBC2        7.2880    5.1010    5.0840 hc        1 HX0      0.046700
     74 HBD1        6.0140    5.9990    7.0630 hc        1 HX0      0.044700
     75 HBD2        7.5420    6.0490    8.0250 hc        1 HX0      0.044700
     76 HBE1        7.0270    7.5670    5.3720 hc        1 HX0      0.042700
     77 HBE2        8.5550    7.6180    6.3340 hc        1 HX0      0.042700
     78 HBF1        7.2790    8.5150    8.3100 hc        1 HX0      0.040700
     79 HBF2        5.7520    8.4640    7.3480 hc        1 HX0      0.040700
     80 HBG1        6.7420   10.7530    7.3520 hc        1 HX0      0.038033
     81 HBG2        8.2810   10.1130    6.6420 hc        1 HX0      0.038033
     82 HBG3        6.7500   10.0620    5.6770 hc        1 HX0      0.038033
     83 HAS1        7.7780   -2.7030    4.8440 hc        1 HX0      0.063200
     84 HAS2        9.2010   -2.6510    5.9680 hc        1 HX0      0.063200
     85 HAT1        6.3400   -3.5890    6.7070 hc        1 HX0      0.052700
     86 HAT2        7.7580   -3.5360    7.8290 hc        1 HX0      0.052700
     87 HAU1        9.0160   -5.1040    6.3110 hc        1 HX0      0.046700
     88 HAU2        7.5990   -5.1570    5.1910 hc        1 HX0      0.046700
     89 HAV1        6.1600   -6.0530    7.0540 hc        1 HX0      0.044700
     90 HAV2        7.5760   -6.0000    8.1740 hc        1 HX0      0.044700
     91 HAW1        7.4180   -7.6230    5.5380 hc        1 HX0      0.042700
     92 HAW2        8.8340   -7.5700    6.6570 hc        1 HX0      0.042700
     93 HAX1        7.3950   -8.4650    8.5190 hc        1 HX0      0.040700
     94 HAX2        5.9790   -8.5180    7.4000 hc        1 HX0      0.040700
     95 HAB         8.1520    0.8810    3.7670 hx        1 HX0      0.094700
     96 HAQ         9.9710    0.9370    5.1410 hx        1 HX0      0.094700
     97 HBA         6.5010    1.1110    6.5010 hx        1 HX0      0.094700
     98 HAO         7.9420   -1.1130    7.5210 hx        1 HX0      0.094700
     99 HAY1        7.2200  -10.1170    5.9020 hc        1 HX0      0.038033
    100 HAY2        7.0640  -10.7550    7.5900 hc        1 HX0      0.038033
    101 HAY3        8.6400  -10.0640    7.0240 hc        1 HX0      0.038033
@<TRIPOS>BOND
     1    1    2 1   
     2    1   34 1   
     3    1   35 1   
     4    1   36 1   
     5    2    3 1   
     6    2   37 1   
     7    2   38 1   
     8    3    4 1   
     9    3   39 1   
    10    3   40 1   
    11    4    5 1   
    12    4   41 1   
    13    4   42 1   
    14    5    6 1   
    15    5   43 1   
    16    5   44 1   
    17    6    7 1   
    18    6   45 1   
    19    6   46 1   
    20    7    8 1   
    21    7   47 1   
    22    7   48 1   
    23    8    9 1   
    24    8   49 1   
    25    8   95 1   
    26    9   10 1   
    27    9   18 1   
    28    9   26 1   
    29   10   11 1   
    30   10   50 1   
    31   10   96 1   
    32   11   12 1   
    33   11   53 1   
    34   11   54 1   
    35   12   13 1   
    36   12   55 1   
    37   12   56 1   
    38   13   14 1   
    39   13   57 1   
    40   13   58 1   
    41   14   15 1   
    42   14   59 1   
    43   14   60 1   
    44   15   16 1   
    45   15   61 1   
    46   15   62 1   
    47   16   17 1   
    48   16   63 1   
    49   16   64 1   
    50   17   65 1   
    51   17   66 1   
    52   17   67 1   
    53   18   19 1   
    54   18   51 1   
    55   18   97 1   
    56   19   20 1   
    57   19   68 1   
    58   19   69 1   
    59   20   21 1   
    60   20   70 1   
    61   20   71 1   
    62   21   22 1   
    63   21   72 1   
    64   21   73 1   
    65   22   23 1   
    66   22   74 1   
    67   22   75 1   
    68   23   24 1   
    69   23   76 1   
    70   23   77 1   
    71   24   25 1   
    72   24   78 1   
    73   24   79 1   
    74   25   80 1   
    75   25   81 1   
    76   25   82 1   
    77   26   27 1   
    78   26   52 1   
    79   26   98 1   
    80   27   28 1   
    81   27   83 1   
    82   27   84 1   
    83   28   29 1   
    84   28   85 1   
    85   28   86 1   
    86   29   30 1   
    87   29   87 1   
    88   29   88 1   
    89   30   31 1   
    90   30   89 1   
    91   30   90 1   
    92   31   32 1   
    93   31   91 1   
    94   31   92 1   
    95   32   33 1   
    96   32   93 1   
    97   32   94 1   
    98   33   99 1   
    99   33  100 1   
   100   33  101 1   
@<TRIPOS>SUBSTRUCTURE
     1 HX0         1 TEMP              0 ****  ****    0 ROOT
