@<TRIPOS>MOLECULE
HX0
  101   100     1     0     0
SMALL
bcc


@<TRIPOS>ATOM
      1 CAH        -0.6340    9.9380    1.3740 c3        1 HX0     -0.095100
      2 CAG        -0.5470    8.5780    2.0180 c3        1 HX0     -0.079400
      3 CAF        -0.4770    7.4780    0.9800 c3        1 HX0     -0.079400
      4 CAE        -0.3900    6.1140    1.6320 c3        1 HX0     -0.079400
      5 CAD        -0.3200    5.0160    0.5920 c3        1 HX0     -0.079400
      6 CAC        -0.2330    3.6540    1.2480 c3        1 HX0     -0.080400
      7 CAB        -0.1630    2.5590    0.1990 c3        1 HX0     -0.100400
      8 CAA        -0.0770    1.2090    0.8980 c3        1 HX0      0.110800
      9 NAQ         0.0000    0.0000   -0.0000 n4        1 HX0     -0.603800
     10 CAP         0.0770   -1.2090    0.8980 c3        1 HX0      0.110800
     11 CAO         0.1630   -2.5590    0.1990 c3        1 HX0     -0.100400
     12 CAN         0.2330   -3.6540    1.2480 c3        1 HX0     -0.080400
     13 CAM         0.3200   -5.0160    0.5920 c3        1 HX0     -0.079400
     14 CAL         0.3900   -6.1140    1.6320 c3        1 HX0     -0.079400
     15 CAK         0.4770   -7.4780    0.9800 c3        1 HX0     -0.079400
     16 CAJ         0.5470   -8.5780    2.0180 c3        1 HX0     -0.079400
     17 CAI         0.6340   -9.9380    1.3740 c3        1 HX0     -0.095100
     18 CAZ        -1.2090   -0.0770   -0.8980 c3        1 HX0      0.110800
     19 CBA        -2.5590   -0.1630   -0.1990 c3        1 HX0     -0.100400
     20 CBB        -3.6540   -0.2330   -1.2480 c3        1 HX0     -0.080400
     21 CBC        -5.0160   -0.3200   -0.5920 c3        1 HX0     -0.079400
     22 CBD        -6.1140   -0.3900   -1.6320 c3        1 HX0     -0.079400
     23 CBE        -7.4780   -0.4770   -0.9800 c3        1 HX0     -0.079400
     24 CBF        -8.5780   -0.5470   -2.0180 c3        1 HX0     -0.079400
     25 CBG        -9.9380   -0.6340   -1.3740 c3        1 HX0     -0.095100
     26 CAR         1.2090    0.0770   -0.8980 c3        1 HX0      0.110800
     27 CAS         2.5590    0.1630   -0.1990 c3        1 HX0     -0.100400
     28 CAT         3.6540    0.2330   -1.2480 c3        1 HX0     -0.080400
     29 CAU         5.0160    0.3200   -0.5920 c3        1 HX0     -0.079400
     30 CAV         6.1140    0.3900   -1.6320 c3        1 HX0     -0.079400
     31 CAW         7.4780    0.4770   -0.9800 c3        1 HX0     -0.079400
     32 CAX         8.5780    0.5470   -2.0180 c3        1 HX0     -0.079400
     33 CAY         9.9380    0.6340   -1.3740 c3        1 HX0     -0.095100
     34 HAH1        0.2610   10.1300    0.7340 hc        1 HX0      0.038033
     35 HAH2       -1.5460   10.0140    0.7340 hc        1 HX0      0.038033
     36 HAH3       -0.6850   10.7330    2.1560 hc        1 HX0      0.038033
     37 HAG1        0.3600    8.5300    2.6760 hc        1 HX0      0.040700
     38 HAG2       -1.4420    8.4150    2.6760 hc        1 HX0      0.040700
     39 HAF1       -1.3850    7.5240    0.3220 hc        1 HX0      0.042700
     40 HAF2        0.4170    7.6390    0.3220 hc        1 HX0      0.042700
     41 HAE1        0.5180    6.0700    2.2900 hc        1 HX0      0.044700
     42 HAE2       -1.2850    5.9550    2.2900 hc        1 HX0      0.044700
     43 HAD1       -1.2280    5.0630   -0.0650 hc        1 HX0      0.046700
     44 HAD2        0.5750    5.1780   -0.0650 hc        1 HX0      0.046700
     45 HAC1        0.6760    3.6100    1.9040 hc        1 HX0      0.052700
     46 HAC2       -1.1290    3.4950    1.9040 hc        1 HX0      0.052700
     47 HAB1       -1.0760    2.6130   -0.4510 hc        1 HX0      0.063700
     48 HAB2        0.7350    2.7290   -0.4510 hc        1 HX0      0.063700
     49 HAA         0.8390    1.1940    1.5580 hx        1 HX0      0.094700
     50 HAP         0.9840   -1.0780    1.5580 hx        1 HX0      0.094700
     51 HAZ        -1.1940    0.8390   -1.5580 hx        1 HX0      0.094700
     52 HAR         1.1940   -0.8390   -1.5580 hx        1 HX0      0.094700
     53 HAO1       -0.7350   -2.7290   -0.4510 hc        1 HX0      0.063700
     54 HAO2        1.0760   -2.6130   -0.4510 hc        1 HX0      0.063700
     55 HAN1        1.1290   -3.4950    1.9040 hc        1 HX0      0.052700
     56 HAN2       -0.6760   -3.6100    1.9040 hc        1 HX0      0.052700
     57 HAM1       -0.5750   -5.1780   -0.0650 hc        1 HX0      0.046700
     58 HAM2        1.2280   -5.0630   -0.0650 hc        1 HX0      0.046700
     59 HAL1        1.2850   -5.9550    2.2900 hc        1 HX0      0.044700
     60 HAL2       -0.5180   -6.0700    2.2900 hc        1 HX0      0.044700
     61 HAK1       -0.4170   -7.6390    0.3220 hc        1 HX0      0.042700
     62 HAK2        1.3850   -7.5240    0.3220 hc        1 HX0      0.042700
     63 HAJ1        1.4420   -8.4150    2.6760 hc        1 HX0      0.040700
     64 HAJ2       -0.3600   -8.5300    2.6760 hc        1 HX0      0.040700
     65 HAI1       -0.2610  -10.1300    0.7330 hc        1 HX0      0.038033
     66 HAI2        1.5460  -10.0140    0.7330 hc        1 HX0      0.038033
     67 HAI3        0.6850  -10.7330    2.1560 hc        1 HX0      0.038033
     68 HBA1       -2.6130   -1.0760    0.4510 hc        1 HX0      0.063700
     69 HBA2       -2.7290    0.7350    0.4510 hc        1 HX0      0.063700
     70 HBB1       -3.6100    0.6760   -1.9040 hc        1 HX0      0.052700
     71 HBB2       -3.4950   -1.1290   -1.9040 hc        1 HX0      0.052700
     72 HBC1       -5.0630   -1.2280    0.0650 hc        1 HX0      0.046700
     73 HBC2       -5.1780    0.5750    0.0650 hc        1 HX0      0.046700
     74 HBD1       -6.0700    0.5180   -2.2900 hc        1 HX0      0.044700
     75 HBD2       -5.9550   -1.2850   -2.2900 hc        1 HX0      0.044700
     76 HBE1       -7.5240   -1.3850   -0.3220 hc        1 HX0      0.042700
     77 HBE2       -7.6390    0.4170   -0.3220 hc        1 HX0      0.042700
     78 HBF1       -8.5300    0.3600   -2.6760 hc        1 HX0      0.040700
     79 HBF2       -8.4150   -1.4420   -2.6760 hc        1 HX0      0.040700
     80 HBG1      -10.7330   -0.6850   -2.1560 hc        1 HX0      0.038033
     81 HBG2      -10.0140   -1.5460   -0.7340 hc        1 HX0      0.038033
     82 HBG3      -10.1300    0.2610   -0.7340 hc        1 HX0      0.038033
     83 HAS1        2.6130    1.0760    0.4510 hc        1 HX0      0.063700
     84 HAS2        2.7290   -0.7350    0.4510 hc        1 HX0      0.063700
     85 HAT1        3.6100   -0.6760   -1.9040 hc        1 HX0      0.052700
     86 HAT2        3.4950    1.1290   -1.9040 hc        1 HX0      0.052700
     87 HAU1        5.0630    1.2280    0.0650 hc        1 HX0      0.046700
     88 HAU2        5.1780   -0.5750    0.0650 hc        1 HX0      0.046700
     89 HAV1        6.0700   -0.5180   -2.2900 hc        1 HX0      0.044700
     90 HAV2        5.9550    1.2850   -2.2900 hc        1 HX0      0.044700
     91 HAW1        7.5240    1.3850   -0.3220 hc        1 HX0      0.042700
     92 HAW2        7.6390   -0.4170   -0.3220 hc        1 HX0      0.042700
     93 HAX1        8.5300   -0.3600   -2.6760 hc        1 HX0      0.040700
     94 HAX2        8.4150    1.4420   -2.6760 hc        1 HX0      0.040700
     95 HAB        -0.9840    1.0780    1.5580 hx        1 HX0      0.094700
     96 HAQ        -0.8390   -1.1940    1.5580 hx        1 HX0      0.094700
     97 HBA        -1.0780   -0.9840   -1.5580 hx        1 HX0      0.094700
     98 HAO         1.0780    0.9840   -1.5580 hx        1 HX0      0.094700
     99 HAY1       10.0140    1.5460   -0.7330 hc        1 HX0      0.038033
    100 HAY2       10.1300   -0.2610   -0.7340 hc        1 HX0      0.038033
    101 HAY3       10.7330    0.6850   -2.1560 hc        1 HX0      0.038033
@<TRIPOS>BOND
     1    1    2 1   
     2    1   34 1   
     3    1   35 1   
     4    1   36 1   
     5    2    3 1   
     6    2   37 1   
     7    2   38 1   
     8    3    4 1   
     9    3   39 1   
    10    3   40 1   
    11    4    5 1   
    12    4   41 1   
    13    4   42 1   
    14    5    6 1   
    15    5   43 1   
    16    5   44 1   
    17    6    7 1   
    18    6   45 1   
    19    6   46 1   
    20    7    8 1   
    21    7   47 1   
    22    7   48 1   
    23    8    9 1   
    24    8   49 1   
    25    8   95 1   
    26    9   10 1   
    27    9   18 1   
    28    9   26 1   
    29   10   11 1   
    30   10   50 1   
    31   10   96 1   
    32   11   12 1   
    33   11   53 1   
    34   11   54 1   
    35   12   13 1   
    36   12   55 1   
    37   12   56 1   
    38   13   14 1   
    39   13   57 1   
    40   13   58 1   
    41   14   15 1   
    42   14   59 1   
    43   14   60 1   
    44   15   16 1   
    45   15   61 1   
    46   15   62 1   
    47   16   17 1   
    48   16   63 1   
    49   16   64 1   
    50   17   65 1   
    51   17   66 1   
    52   17   67 1   
    53   18   19 1   
    54   18   51 1   
    55   18   97 1   
    56   19   20 1   
    57   19   68 1   
    58   19   69 1   
    59   20   21 1   
    60   20   70 1   
    61   20   71 1   
    62   21   22 1   
    63   21   72 1   
    64   21   73 1   
    65   22   23 1   
    66   22   74 1   
    67   22   75 1   
    68   23   24 1   
    69   23   76 1   
    70   23   77 1   
    71   24   25 1   
    72   24   78 1   
    73   24   79 1   
    74   25   80 1   
    75   25   81 1   
    76   25   82 1   
    77   26   27 1   
    78   26   52 1   
    79   26   98 1   
    80   27   28 1   
    81   27   83 1   
    82   27   84 1   
    83   28   29 1   
    84   28   85 1   
    85   28   86 1   
    86   29   30 1   
    87   29   87 1   
    88   29   88 1   
    89   30   31 1   
    90   30   89 1   
    91   30   90 1   
    92   31   32 1   
    93   31   91 1   
    94   31   92 1   
    95   32   33 1   
    96   32   93 1   
    97   32   94 1   
    98   33   99 1   
    99   33  100 1   
   100   33  101 1   
@<TRIPOS>SUBSTRUCTURE
     1 HX0         1 TEMP              0 ****  ****    0 ROOT
