@<TRIPOS>MOLECULE
HX2
   22    21     1     0     0
SMALL
bcc


@<TRIPOS>ATOM
      1 C1          3.0720   -0.7200    0.4320 c3        1 HX2     -0.129100
      2 O1          2.0100    0.9210   -0.9940 oh        1 HX2     -0.599800
      3 C2          1.9140    0.2440    0.2510 c3        1 HX2      0.135100
      4 O2         -2.0100   -0.9230   -0.9920 oh        1 HX2     -0.599800
      5 C3          0.5800   -0.4840    0.3840 c3        1 HX2     -0.111400
      6 C4         -0.5800    0.4850    0.3830 c3        1 HX2     -0.111400
      7 C5         -1.9140   -0.2440    0.2510 c3        1 HX2      0.135100
      8 C6         -3.0720    0.7210    0.4310 c3        1 HX2     -0.129100
      9 H1          4.0380   -0.1900    0.2550 hc        1 HX2      0.043033
     10 H1A         3.0680   -1.1330    1.4680 hc        1 HX2      0.043033
     11 H1B         2.9940   -1.5670   -0.2920 hc        1 HX2      0.043033
     12 HO1         1.9630    0.2530   -1.6880 ho        1 HX2      0.396000
     13 H2          1.9770    1.0770    1.0080 h1        1 HX2      0.073700
     14 H3          0.4580   -1.2060   -0.4670 hc        1 HX2      0.052700
     15 H3A         0.5820   -1.0790    1.3330 hc        1 HX2      0.052700
     16 H4         -0.5820    1.0810    1.3310 hc        1 HX2      0.052700
     17 H4A        -0.4580    1.2050   -0.4690 hc        1 HX2      0.052700
     18 H5         -1.9770   -1.0750    1.0110 h1        1 HX2      0.073700
     19 H6         -4.0380    0.1910    0.2550 hc        1 HX2      0.043033
     20 H6A        -3.0680    1.1360    1.4660 hc        1 HX2      0.043033
     21 H6B        -2.9940    1.5660   -0.2950 hc        1 HX2      0.043033
     22 HO2        -1.9640   -0.2560   -1.6870 ho        1 HX2      0.396000
@<TRIPOS>BOND
     1    1    3 1   
     2    1    9 1   
     3    1   10 1   
     4    1   11 1   
     5    2    3 1   
     6    2   12 1   
     7    3    5 1   
     8    3   13 1   
     9    4    7 1   
    10    4   22 1   
    11    5    6 1   
    12    5   14 1   
    13    5   15 1   
    14    6    7 1   
    15    6   16 1   
    16    6   17 1   
    17    7    8 1   
    18    7   18 1   
    19    8   19 1   
    20    8   20 1   
    21    8   21 1   
@<TRIPOS>SUBSTRUCTURE
     1 HX2         1 TEMP              0 ****  ****    0 ROOT
