@<TRIPOS>MOLECULE
HX2
   22    21     1     0     0
SMALL
bcc


@<TRIPOS>ATOM
      1 C1          0.0310   -0.0570   -0.0710 c3        1 HX2     -0.131100
      2 O1          2.0390    1.1690   -0.6620 oh        1 HX2     -0.597800
      3 C2          1.5480   -0.0080   -0.0280 c3        1 HX2      0.139100
      4 O2          3.7680    1.1450    3.4760 oh        1 HX2     -0.597800
      5 C3          2.0520    0.0170    1.4110 c3        1 HX2     -0.072400
      6 C4          3.5580   -0.1040    1.4720 c3        1 HX2     -0.072400
      7 C5          4.0590   -0.1300    2.9130 c3        1 HX2      0.139100
      8 C6          5.5470   -0.4230    2.9660 c3        1 HX2     -0.131100
      9 H1         -0.3990    0.8430    0.4300 hc        1 HX2      0.042367
     10 H1A        -0.3380   -0.9710    0.4500 hc        1 HX2      0.042367
     11 H1B        -0.3270   -0.0780   -1.1290 hc        1 HX2      0.042367
     12 HO1         1.6290    1.2080   -1.5330 ho        1 HX2      0.396000
     13 H2          1.9700   -0.9060   -0.5640 h1        1 HX2      0.026700
     14 H3          1.5720   -0.8280    1.9690 hc        1 HX2      0.056700
     15 H3A         1.7430    0.9780    1.9000 hc        1 HX2      0.056700
     16 H4          3.8920   -1.0470    0.9660 hc        1 HX2      0.056700
     17 H4A         4.0180    0.7640    0.9310 hc        1 HX2      0.056700
     18 H5          3.4980   -0.9160    3.4970 h1        1 HX2      0.026700
     19 H6          5.7600   -1.4130    2.4990 hc        1 HX2      0.042367
     20 H6A         6.1150    0.3650    2.4160 hc        1 HX2      0.042367
     21 H6B         5.9020   -0.4420    4.0240 hc        1 HX2      0.042367
     22 HO2         4.1830    1.1660    4.3460 ho        1 HX2      0.396000
@<TRIPOS>BOND
     1    1    3 1   
     2    1    9 1   
     3    1   10 1   
     4    1   11 1   
     5    2    3 1   
     6    2   12 1   
     7    3    5 1   
     8    3   13 1   
     9    4    7 1   
    10    4   22 1   
    11    5    6 1   
    12    5   14 1   
    13    5   15 1   
    14    6    7 1   
    15    6   16 1   
    16    6   17 1   
    17    7    8 1   
    18    7   18 1   
    19    8   19 1   
    20    8   20 1   
    21    8   21 1   
@<TRIPOS>SUBSTRUCTURE
     1 HX2         1 TEMP              0 ****  ****    0 ROOT
