@<TRIPOS>MOLECULE
HX2
   22    21     1     0     0
SMALL
bcc


@<TRIPOS>ATOM
      1 C1         -2.7160    0.2880   -1.4450 c3        1 HX2     -0.131100
      2 O1         -0.7350    1.4370   -2.1090 oh        1 HX2     -0.597800
      3 C2         -1.2040    0.2880   -1.4450 c3        1 HX2      0.139100
      4 O2          1.6450    1.0700    1.7890 oh        1 HX2     -0.597800
      5 C3         -0.7000    0.2880   -0.0200 c3        1 HX2     -0.072400
      6 C4          0.7230   -0.2250    0.0120 c3        1 HX2     -0.072400
      7 C5          1.2260   -0.2270    1.4370 c3        1 HX2      0.139100
      8 C6          2.3910   -1.1830    1.5600 c3        1 HX2     -0.131100
      9 H1         -3.0410    0.4030   -2.3580 hc        1 HX2      0.042367
     10 H1A        -3.0410    1.0210   -0.8890 hc        1 HX2      0.042367
     11 H1B        -3.0410   -0.5600   -1.0890 hc        1 HX2      0.042367
     12 HO1        -0.6100    1.2530   -2.9680 ho        1 HX2      0.396000
     13 H2         -0.8790   -0.5090   -1.9050 h1        1 HX2      0.026700
     14 HO2         1.5020    1.2040    2.6550 ho        1 HX2      0.396000
     15 H3         -0.7260    1.1970    0.3340 hc        1 HX2      0.056450
     16 H3A        -1.2670   -0.2900    0.5260 hc        1 HX2      0.056450
     17 H4          1.2900    0.3540   -0.5330 hc        1 HX2      0.056450
     18 H4A         0.7490   -1.1340   -0.3440 hc        1 HX2      0.056450
     19 H5          0.5090   -0.5100    2.0360 h1        1 HX2      0.026700
     20 H6          2.0760   -2.0980    1.4280 hc        1 HX2      0.042367
     21 H6A         3.0600   -0.9690    0.8820 hc        1 HX2      0.042367
     22 H6B         2.7880   -1.1000    2.4470 hc        1 HX2      0.042367
@<TRIPOS>BOND
     1    1    3 1   
     2    1    9 1   
     3    1   10 1   
     4    1   11 1   
     5    2    3 1   
     6    2   12 1   
     7    3    5 1   
     8    3   13 1   
     9    4    7 1   
    10    4   14 1   
    11    5    6 1   
    12    5   15 1   
    13    5   16 1   
    14    6    7 1   
    15    6   17 1   
    16    6   18 1   
    17    7    8 1   
    18    7   19 1   
    19    8   20 1   
    20    8   21 1   
    21    8   22 1   
@<TRIPOS>SUBSTRUCTURE
     1 HX2         1 TEMP              0 ****  ****    0 ROOT
