@<TRIPOS>MOLECULE
HX2
   22    21     1     0     0
SMALL
bcc


@<TRIPOS>ATOM
      1 C1          0.0390   -0.0530   -0.0870 c3        1 HX2     -0.131100
      2 O1          2.0540    1.1680   -0.6670 oh        1 HX2     -0.597800
      3 C2          1.5560   -0.0070   -0.0350 c3        1 HX2      0.139100
      4 O2          3.7570    1.1450    3.4810 oh        1 HX2     -0.597800
      5 C3          2.0530    0.0180    1.4070 c3        1 HX2     -0.072400
      6 C4          3.5570   -0.1060    1.4760 c3        1 HX2     -0.072400
      7 C5          4.0500   -0.1310    2.9200 c3        1 HX2      0.139100
      8 C6          5.5380   -0.4260    2.9820 c3        1 HX2     -0.131100
      9 H1         -0.3910    0.8490    0.4110 hc        1 HX2      0.042367
     10 H1A        -0.3350   -0.9650    0.4330 hc        1 HX2      0.042367
     11 H1B        -0.3120   -0.0740   -1.1470 hc        1 HX2      0.042367
     12 HO1         1.6490    1.2060   -1.5410 ho        1 HX2      0.396000
     13 H2          1.9790   -0.9080   -0.5680 h1        1 HX2      0.026700
     14 H3          1.5670   -0.8250    1.9620 hc        1 HX2      0.056700
     15 H3A         1.7420    0.9810    1.8930 hc        1 HX2      0.056700
     16 H4          3.8930   -1.0490    0.9730 hc        1 HX2      0.056700
     17 H4A         4.0220    0.7610    0.9370 hc        1 HX2      0.056700
     18 H5          3.4850   -0.9160    3.5020 h1        1 HX2      0.026700
     19 H6          5.7520   -1.4170    2.5170 hc        1 HX2      0.042367
     20 H6A         6.1100    0.3610    2.4350 hc        1 HX2      0.042367
     21 H6B         5.8860   -0.4450    4.0430 hc        1 HX2      0.042367
     22 HO2         4.1680    1.1660    4.3530 ho        1 HX2      0.396000
@<TRIPOS>BOND
     1    1    3 1   
     2    1    9 1   
     3    1   10 1   
     4    1   11 1   
     5    2    3 1   
     6    2   12 1   
     7    3    5 1   
     8    3   13 1   
     9    4    7 1   
    10    4   22 1   
    11    5    6 1   
    12    5   14 1   
    13    5   15 1   
    14    6    7 1   
    15    6   16 1   
    16    6   17 1   
    17    7    8 1   
    18    7   18 1   
    19    8   19 1   
    20    8   20 1   
    21    8   21 1   
@<TRIPOS>SUBSTRUCTURE
     1 HX2         1 TEMP              0 ****  ****    0 ROOT
