@<TRIPOS>MOLECULE
HXA
   55    54     1     0     0
SMALL
bcc


@<TRIPOS>ATOM
      1 C1         -0.6400    2.6500   -9.7020 c         1 HXA      0.908600
      2 O1         -0.1050    3.7970   -9.7520 o         1 HXA     -0.855800
      3 O2         -1.6480    2.3230  -10.3930 o         1 HXA     -0.855800
      4 C2         -0.0340    1.5870   -8.7730 c3        1 HXA     -0.188400
      5 C3          0.6270    2.2230   -7.5750 c3        1 HXA     -0.051200
      6 C4          1.3630    1.2610   -6.7240 c2        1 HXA     -0.132200
      7 C5          2.1230    1.6210   -5.6810 c2        1 HXA     -0.226200
      8 C6          2.3060    3.0370   -5.2830 c3        1 HXA     -0.018000
      9 C7          3.1590    3.2290   -4.0880 c2        1 HXA     -0.152200
     10 C8          3.5020    4.4340   -3.6150 c2        1 HXA     -0.195200
     11 C9          3.0650    5.7020   -4.2460 c3        1 HXA     -0.021000
     12 C10         3.5230    6.9170   -3.5330 c2        1 HXA     -0.167200
     13 C11         3.1950    8.1600   -3.9050 c2        1 HXA     -0.177200
     14 C12         2.3300    8.4660   -5.0700 c3        1 HXA     -0.021000
     15 C13         2.1560    9.9170   -5.3160 c2        1 HXA     -0.180200
     16 C14         1.4410   10.4210   -6.3280 c2        1 HXA     -0.164200
     17 C15         0.7400    9.5970   -7.3420 c3        1 HXA     -0.019000
     18 C16        -0.1670   10.3860   -8.2100 c2        1 HXA     -0.198200
     19 C17        -0.6990    9.9390   -9.3530 c2        1 HXA     -0.147200
     20 C18        -0.4680    8.5920   -9.9270 c3        1 HXA     -0.018000
     21 C19        -0.8960    8.4940  -11.3440 c2        1 HXA     -0.227200
     22 C20        -1.4030    7.3920  -11.9080 c2        1 HXA     -0.125200
     23 C21        -1.6420    6.1080  -11.2120 c3        1 HXA     -0.075200
     24 C22        -2.2710    5.0610  -12.0950 c3        1 HXA     -0.104100
     25 H21        -0.8370    0.8800   -8.4510 hc        1 HXA      0.025200
     26 H22         0.7180    1.0050   -9.3650 hc        1 HXA      0.025200
     27 H31         1.3250    3.0300   -7.9390 hc        1 HXA      0.060200
     28 H32        -0.1530    2.7430   -6.9530 hc        1 HXA      0.060200
     29 H4          1.2580    0.1970   -6.9930 ha        1 HXA      0.111000
     30 H5          2.6490    0.8680   -5.0770 ha        1 HXA      0.103000
     31 H61         1.2950    3.5020   -5.0930 hc        1 HXA      0.061700
     32 H62         2.7460    3.6100   -6.1510 hc        1 HXA      0.061700
     33 H7          3.5120    2.3140   -3.5840 ha        1 HXA      0.115000
     34 H8          4.1380    4.5230   -2.7210 ha        1 HXA      0.111000
     35 H91         3.4400    5.7350   -5.3110 hc        1 HXA      0.062700
     36 H92         1.9390    5.7130   -4.3160 hc        1 HXA      0.062700
     37 H10         4.1690    6.7550   -2.6550 ha        1 HXA      0.115000
     38 H11         3.5700    9.0250   -3.3340 ha        1 HXA      0.114000
     39 H121        2.7610    7.9810   -5.9930 hc        1 HXA      0.063700
     40 H122        1.3190    7.9900   -4.9150 hc        1 HXA      0.063700
     41 H13         2.6570   10.5950   -4.6060 ha        1 HXA      0.113000
     42 H14         1.3560   11.5130   -6.4500 ha        1 HXA      0.114000
     43 H151        0.1440    8.7880   -6.8280 hc        1 HXA      0.063200
     44 H152        1.5070    9.0630   -7.9740 hc        1 HXA      0.063200
     45 H16        -0.4100   11.4000   -7.8510 ha        1 HXA      0.108000
     46 H17        -1.3760   10.5910   -9.9300 ha        1 HXA      0.114000
     47 H181        0.6270    8.3290   -9.8630 hc        1 HXA      0.065200
     48 H182       -1.0110    7.8280   -9.3010 hc        1 HXA      0.065200
     49 H19        -0.7480    9.4070  -11.9420 ha        1 HXA      0.098000
     50 H20        -1.6660    7.4070  -12.9800 ha        1 HXA      0.102000
     51 H211       -2.3010    6.2830  -10.3170 hc        1 HXA      0.082200
     52 H212       -0.6730    5.6890  -10.8070 hc        1 HXA      0.082200
     53 H221       -2.2200    4.0680  -11.5650 hc        1 HXA      0.042033
     54 H222       -1.7180    4.9710  -13.0610 hc        1 HXA      0.042033
     55 H223       -3.3350    5.3090  -12.3230 hc        1 HXA      0.042033
@<TRIPOS>BOND
     1    1    2 1   
     2    1    3 1   
     3    1    4 1   
     4    4    5 1   
     5    4   25 1   
     6    4   26 1   
     7    5    6 1   
     8    5   27 1   
     9    5   28 1   
    10    6    7 2   
    11    6   29 1   
    12    7    8 1   
    13    7   30 1   
    14    8    9 1   
    15    8   31 1   
    16    8   32 1   
    17    9   10 2   
    18    9   33 1   
    19   10   11 1   
    20   10   34 1   
    21   11   12 1   
    22   11   35 1   
    23   11   36 1   
    24   12   13 2   
    25   12   37 1   
    26   13   14 1   
    27   13   38 1   
    28   14   15 1   
    29   14   39 1   
    30   14   40 1   
    31   15   16 2   
    32   15   41 1   
    33   16   17 1   
    34   16   42 1   
    35   17   18 1   
    36   17   43 1   
    37   17   44 1   
    38   18   19 2   
    39   18   45 1   
    40   19   20 1   
    41   19   46 1   
    42   20   21 1   
    43   20   47 1   
    44   20   48 1   
    45   21   22 2   
    46   21   49 1   
    47   22   23 1   
    48   22   50 1   
    49   23   24 1   
    50   23   51 1   
    51   23   52 1   
    52   24   53 1   
    53   24   54 1   
    54   24   55 1   
@<TRIPOS>SUBSTRUCTURE
     1 HXA         1 TEMP              0 ****  ****    0 ROOT
