@<TRIPOS>MOLECULE
HXA
   55    54     1     0     0
SMALL
bcc


@<TRIPOS>ATOM
      1 C1          2.9150    2.9690   -0.0420 c         1 HXA      0.908600
      2 O1          2.4710    2.1880    0.8510 o         1 HXA     -0.855800
      3 O2          3.1210    4.2020    0.1540 o         1 HXA     -0.855800
      4 C2          3.2380    2.4020   -1.4320 c3        1 HXA     -0.188400
      5 C3          2.3550    1.2220   -1.7580 c3        1 HXA     -0.051200
      6 C4          2.7230    0.5360   -3.0180 c2        1 HXA     -0.132200
      7 C5          2.1600   -0.6050   -3.4350 c2        1 HXA     -0.226200
      8 C6          1.1080   -1.3020   -2.6570 c3        1 HXA     -0.018000
      9 C7          0.5850   -2.5280   -3.3040 c2        1 HXA     -0.152200
     10 C8         -0.3210   -3.3310   -2.7300 c2        1 HXA     -0.195200
     11 C9         -0.8890   -3.0760   -1.3850 c3        1 HXA     -0.021000
     12 C10        -1.9010   -4.0720   -0.9610 c2        1 HXA     -0.167200
     13 C11        -2.5720   -3.9970    0.1950 c2        1 HXA     -0.177200
     14 C12        -2.3860   -2.9070    1.1820 c3        1 HXA     -0.021000
     15 C13        -3.1990   -3.0710    2.4090 c2        1 HXA     -0.180200
     16 C14        -3.1690   -2.2220    3.4430 c2        1 HXA     -0.164200
     17 C15        -2.3120   -1.0140    3.5020 c3        1 HXA     -0.019000
     18 C16        -2.6380   -0.1220    4.6410 c2        1 HXA     -0.198200
     19 C17        -1.8540    0.8730    5.0710 c2        1 HXA     -0.147200
     20 C18        -0.5450    1.2400    4.4790 c3        1 HXA     -0.018000
     21 C19         0.2460    2.1390    5.3530 c2        1 HXA     -0.227200
     22 C20         1.0710    3.0940    4.9100 c2        1 HXA     -0.125200
     23 C21         1.3090    3.4260    3.4880 c3        1 HXA     -0.075200
     24 C22         2.2540    4.5850    3.2970 c3        1 HXA     -0.104100
     25 H21         4.3130    2.0910   -1.4320 hc        1 HXA      0.025200
     26 H22         3.1150    3.2090   -2.1960 hc        1 HXA      0.025200
     27 H31         1.2860    1.5650   -1.8250 hc        1 HXA      0.060200
     28 H32         2.3970    0.4970   -0.8960 hc        1 HXA      0.060200
     29 H4          3.5090    1.0210   -3.6210 ha        1 HXA      0.111000
     30 H5          2.4670   -1.0750   -4.3810 ha        1 HXA      0.103000
     31 H61         0.2530   -0.5900   -2.4690 hc        1 HXA      0.061200
     32 H62         1.5170   -1.5650   -1.6370 hc        1 HXA      0.061200
     33 H7          0.9780   -2.7610   -4.3060 ha        1 HXA      0.115000
     34 H8         -0.6800   -4.2300   -3.2540 ha        1 HXA      0.111000
     35 H91        -1.3480   -2.0450   -1.3650 hc        1 HXA      0.062700
     36 H92        -0.0510   -3.0540   -0.6270 hc        1 HXA      0.062700
     37 H10        -2.0860   -4.9080   -1.6550 ha        1 HXA      0.115000
     38 H11        -3.3120   -4.7710    0.4550 ha        1 HXA      0.114000
     39 H121       -2.6390   -1.9200    0.6960 hc        1 HXA      0.063700
     40 H122       -1.2950   -2.8400    1.4640 hc        1 HXA      0.063700
     41 H13        -3.8580   -3.9540    2.4420 ha        1 HXA      0.113000
     42 H14        -3.8020   -2.4090    4.3260 ha        1 HXA      0.115000
     43 H151       -2.4090   -0.4320    2.5410 hc        1 HXA      0.063200
     44 H152       -1.2320   -1.3350    3.5630 hc        1 HXA      0.063200
     45 H16        -3.6050   -0.3100    5.1350 ha        1 HXA      0.108000
     46 H17        -2.1830    1.4970    5.9190 ha        1 HXA      0.114000
     47 H181       -0.7190    1.7250    3.4750 hc        1 HXA      0.065700
     48 H182        0.0590    0.3090    4.2760 hc        1 HXA      0.065700
     49 H19         0.1340    1.9580    6.4340 ha        1 HXA      0.098000
     50 H20         1.6420    3.6940    5.6400 ha        1 HXA      0.102000
     51 H211        0.3300    3.6600    2.9880 hc        1 HXA      0.082200
     52 H212        1.7340    2.5340    2.9370 hc        1 HXA      0.082200
     53 H221        2.5470    4.6330    2.2110 hc        1 HXA      0.042033
     54 H222        1.7780    5.5480    3.6000 hc        1 HXA      0.042033
     55 H223        3.1800    4.4470    3.9050 hc        1 HXA      0.042033
@<TRIPOS>BOND
     1    1    2 1   
     2    1    3 1   
     3    1    4 1   
     4    4    5 1   
     5    4   25 1   
     6    4   26 1   
     7    5    6 1   
     8    5   27 1   
     9    5   28 1   
    10    6    7 2   
    11    6   29 1   
    12    7    8 1   
    13    7   30 1   
    14    8    9 1   
    15    8   31 1   
    16    8   32 1   
    17    9   10 2   
    18    9   33 1   
    19   10   11 1   
    20   10   34 1   
    21   11   12 1   
    22   11   35 1   
    23   11   36 1   
    24   12   13 2   
    25   12   37 1   
    26   13   14 1   
    27   13   38 1   
    28   14   15 1   
    29   14   39 1   
    30   14   40 1   
    31   15   16 2   
    32   15   41 1   
    33   16   17 1   
    34   16   42 1   
    35   17   18 1   
    36   17   43 1   
    37   17   44 1   
    38   18   19 2   
    39   18   45 1   
    40   19   20 1   
    41   19   46 1   
    42   20   21 1   
    43   20   47 1   
    44   20   48 1   
    45   21   22 2   
    46   21   49 1   
    47   22   23 1   
    48   22   50 1   
    49   23   24 1   
    50   23   51 1   
    51   23   52 1   
    52   24   53 1   
    53   24   54 1   
    54   24   55 1   
@<TRIPOS>SUBSTRUCTURE
     1 HXA         1 TEMP              0 ****  ****    0 ROOT
