@<TRIPOS>MOLECULE
HXA
   55    54     1     0     0
SMALL
bcc


@<TRIPOS>ATOM
      1 C1         -0.5710    2.5860   -9.6470 c         1 HXA      0.908600
      2 O1         -0.0420    3.7350   -9.7140 o         1 HXA     -0.855800
      3 O2         -1.5610    2.2350  -10.3530 o         1 HXA     -0.855800
      4 C2          0.0180    1.5520   -8.6760 c3        1 HXA     -0.188400
      5 C3          0.6450    2.2230   -7.4780 c3        1 HXA     -0.051200
      6 C4          1.3660    1.2880   -6.5850 c2        1 HXA     -0.132200
      7 C5          2.1000    1.6800   -5.5360 c2        1 HXA     -0.226200
      8 C6          2.2710    3.1070   -5.1750 c3        1 HXA     -0.018000
      9 C7          3.0870    3.3350   -3.9600 c2        1 HXA     -0.152200
     10 C8          3.4090    4.5540   -3.5090 c2        1 HXA     -0.195200
     11 C9          2.9830    5.8030   -4.1840 c3        1 HXA     -0.021000
     12 C10         3.4200    7.0390   -3.4940 c2        1 HXA     -0.167200
     13 C11         3.0960    8.2700   -3.9090 c2        1 HXA     -0.177200
     14 C12         2.2600    8.5400   -5.1020 c3        1 HXA     -0.021000
     15 C13         2.0870    9.9830   -5.3930 c2        1 HXA     -0.180200
     16 C14         1.3940   10.4550   -6.4360 c2        1 HXA     -0.164200
     17 C15         0.7180    9.6010   -7.4420 c3        1 HXA     -0.019000
     18 C16        -0.1710   10.3620   -8.3510 c2        1 HXA     -0.198200
     19 C17        -0.6750    9.8830   -9.4930 c2        1 HXA     -0.147200
     20 C18        -0.4250    8.5220  -10.0260 c3        1 HXA     -0.018000
     21 C19        -0.8200    8.3830  -11.4480 c2        1 HXA     -0.227200
     22 C20        -1.3080    7.2640  -11.9940 c2        1 HXA     -0.125200
     23 C21        -1.5560    5.9970  -11.2710 c3        1 HXA     -0.075200
     24 C22        -2.1590    4.9230  -12.1390 c3        1 HXA     -0.104100
     25 H21        -0.7880    0.8460   -8.3560 hc        1 HXA      0.025200
     26 H22         0.7880    0.9610   -9.2340 hc        1 HXA      0.025200
     27 H31         1.3450    3.0260   -7.8450 hc        1 HXA      0.060200
     28 H32        -0.1550    2.7520   -6.8890 hc        1 HXA      0.060200
     29 H4          1.2690    0.2160   -6.8260 ha        1 HXA      0.111000
     30 H5          2.6160    0.9460   -4.9000 ha        1 HXA      0.103000
     31 H61         1.2540    3.5770   -5.0290 hc        1 HXA      0.061200
     32 H62         2.7370    3.6550   -6.0450 hc        1 HXA      0.061200
     33 H7          3.4300    2.4360   -3.4230 ha        1 HXA      0.115000
     34 H8          4.0180    4.6700   -2.5990 ha        1 HXA      0.111000
     35 H91         3.3830    5.8080   -5.2400 hc        1 HXA      0.062700
     36 H92         1.8590    5.8080   -4.2820 hc        1 HXA      0.062700
     37 H10         4.0440    6.9040   -2.5970 ha        1 HXA      0.115000
     38 H11         3.4540    9.1520   -3.3530 ha        1 HXA      0.114000
     39 H121        2.7140    8.0300   -6.0010 hc        1 HXA      0.063700
     40 H122        1.2460    8.0650   -4.9590 hc        1 HXA      0.063700
     41 H13         2.5700   10.6820   -4.6910 ha        1 HXA      0.113000
     42 H14         1.3090   11.5440   -6.5900 ha        1 HXA      0.115000
     43 H151        0.1140    8.8050   -6.9180 hc        1 HXA      0.063200
     44 H152        1.5020    9.0530   -8.0410 hc        1 HXA      0.063200
     45 H16        -0.4260   11.3840   -8.0260 ha        1 HXA      0.108000
     46 H17        -1.3410   10.5160  -10.1030 ha        1 HXA      0.114000
     47 H181        0.6690    8.2650   -9.9280 hc        1 HXA      0.065700
     48 H182       -0.9800    7.7720   -9.3920 hc        1 HXA      0.065700
     49 H19        -0.6630    9.2810  -12.0680 ha        1 HXA      0.098000
     50 H20        -1.5460    7.2490  -13.0720 ha        1 HXA      0.102000
     51 H211       -2.2370    6.1920  -10.3960 hc        1 HXA      0.082200
     52 H212       -0.5940    5.5950  -10.8320 hc        1 HXA      0.082200
     53 H221       -2.1150    3.9450  -11.5820 hc        1 HXA      0.042033
     54 H222       -1.5830    4.8110  -13.0900 hc        1 HXA      0.042033
     55 H223       -3.2180    5.1600  -12.3990 hc        1 HXA      0.042033
@<TRIPOS>BOND
     1    1    2 1   
     2    1    3 1   
     3    1    4 1   
     4    4    5 1   
     5    4   25 1   
     6    4   26 1   
     7    5    6 1   
     8    5   27 1   
     9    5   28 1   
    10    6    7 2   
    11    6   29 1   
    12    7    8 1   
    13    7   30 1   
    14    8    9 1   
    15    8   31 1   
    16    8   32 1   
    17    9   10 2   
    18    9   33 1   
    19   10   11 1   
    20   10   34 1   
    21   11   12 1   
    22   11   35 1   
    23   11   36 1   
    24   12   13 2   
    25   12   37 1   
    26   13   14 1   
    27   13   38 1   
    28   14   15 1   
    29   14   39 1   
    30   14   40 1   
    31   15   16 2   
    32   15   41 1   
    33   16   17 1   
    34   16   42 1   
    35   17   18 1   
    36   17   43 1   
    37   17   44 1   
    38   18   19 2   
    39   18   45 1   
    40   19   20 1   
    41   19   46 1   
    42   20   21 1   
    43   20   47 1   
    44   20   48 1   
    45   21   22 2   
    46   21   49 1   
    47   22   23 1   
    48   22   50 1   
    49   23   24 1   
    50   23   51 1   
    51   23   52 1   
    52   24   53 1   
    53   24   54 1   
    54   24   55 1   
@<TRIPOS>SUBSTRUCTURE
     1 HXA         1 TEMP              0 ****  ****    0 ROOT
