@<TRIPOS>MOLECULE
HXA
   55    47     1     0     0
SMALL
bcc


@<TRIPOS>ATOM
      1 C1         -7.4210    2.2380   -8.2590 c1        1 HXA      0.328000
      2 O1         -8.5880    1.7930   -8.4170 o         1 HXA     -0.583000
      3 O2         -7.2460    3.4020   -7.8120 os        1 HXA     -0.589000
      4 C2         -6.2290    1.3760   -8.6120 c3        1 HXA     -0.223000
      5 C3         -5.7500    0.6470   -7.3760 c3        1 HXA     -0.134000
      6 C4         -4.7130   -0.3830   -7.7680 c2        1 HXA     -0.122000
      7 C5         -4.0230   -1.0410   -6.8150 c1        1 HXA     -0.229000
      8 C6         -4.2850   -0.7490   -5.3540 c2        1 HXA     -0.101800
      9 C7         -3.3010   -1.5190   -4.5020 c2        1 HXA     -0.148600
     10 C8         -2.9250   -1.0350   -3.3020 c1        1 HXA     -0.178600
     11 C9         -1.9410   -1.8050   -2.4490 c2        1 HXA     -0.101800
     12 C10        -1.5030   -0.9460   -1.2840 c2        1 HXA     -0.148600
     13 C11        -0.3420   -1.2080   -0.6520 c1        1 HXA     -0.178600
     14 C12         0.0960   -0.3490    0.5130 c2        1 HXA     -0.101800
     15 C13         1.5050   -0.7260    0.9170 c2        1 HXA     -0.148600
     16 C14         2.1240   -0.0550    1.9070 c1        1 HXA     -0.178600
     17 C15         3.5330   -0.4320    2.3110 c2        1 HXA     -0.101800
     18 C16         4.0240    0.5210    3.3790 c2        1 HXA     -0.148600
     19 C17         4.7660    0.0580    4.4040 c1        1 HXA     -0.178600
     20 C18         5.2570    1.0110    5.4720 c2        1 HXA     -0.101800
     21 C19         5.4560    0.2560    6.7680 c2        1 HXA     -0.148600
     22 C20         5.4770    0.9220    7.9400 c1        1 HXA     -0.178600
     23 C21         5.6760    0.1670    9.2360 c2        1 HXA     -0.131000
     24 C22         5.0790    0.9600   10.3780 c3        1 HXA     -0.208000
     25 H21        -5.5090    1.9410   -8.9570 hc        1 HXA      0.061000
     26 H22        -6.4880    0.7250   -9.2950 hc        1 HXA      0.061000
     27 H31        -5.3530    1.2880   -6.7530 hc        1 HXA      0.100000
     28 H32        -6.5070    0.2010   -6.9470 hc        1 HXA      0.100000
     29 H4         -4.5440   -0.5710   -8.7110 ha        1 HXA      0.110000
     30 H5         -3.3540   -1.7050   -7.0680 ha        1 HXA      0.102000
     31 H61        -4.1800    0.2090   -5.1890 ha        1 HXA      0.091200
     32 H62        -5.1970   -1.0210   -5.1260 ha        1 HXA      0.091200
     33 H7         -2.9410   -2.3700   -4.8190 ha        1 HXA      0.119600
     34 H8         -3.2940   -0.1900   -2.9800 ha        1 HXA      0.121200
     35 H91        -2.3670   -2.6190   -2.1130 ha        1 HXA      0.091200
     36 H92        -1.1610   -2.0450   -2.9890 ha        1 HXA      0.091200
     37 H10        -2.0650   -0.2060   -0.9850 ha        1 HXA      0.119600
     38 H11         0.2140   -1.9560   -0.9430 ha        1 HXA      0.121200
     39 H121       -0.5090   -0.4920    1.2690 ha        1 HXA      0.091200
     40 H122        0.0730    0.5930    0.2510 ha        1 HXA      0.091200
     41 H13         1.9670   -1.4520    0.4550 ha        1 HXA      0.119600
     42 H14         1.6670    0.6790    2.3600 ha        1 HXA      0.121200
     43 H151        3.5380   -1.3450    2.6610 ha        1 HXA      0.091200
     44 H152        4.1210   -0.3780    1.5310 ha        1 HXA      0.091200
     45 H16         3.8080    1.4710    3.3220 ha        1 HXA      0.119600
     46 H17         4.9920   -0.8900    4.4550 ha        1 HXA      0.121200
     47 H181        4.5960    1.7190    5.6060 ha        1 HXA      0.091200
     48 H182        6.1060    1.4060    5.1910 ha        1 HXA      0.091200
     49 H19         5.5750   -0.7130    6.7550 ha        1 HXA      0.119600
     50 H20         5.3690    1.8920    7.9520 ha        1 HXA      0.121200
     51 H211        6.6320    0.0370    9.3940 ha        1 HXA      0.082000
     52 H212        5.2340   -0.7040    9.1770 ha        1 HXA      0.082000
     53 H221        5.5760    1.7960   10.4900 hc        1 HXA      0.074000
     54 H222        5.1330    0.4340   11.2030 hc        1 HXA      0.074000
     55 H223        4.1400    1.1610   10.1800 hc        1 HXA      0.074000
@<TRIPOS>BOND
     1    1    2 1   
     2    1    4 1   
     3    4    5 1   
     4    4   25 1   
     5    4   26 1   
     6    5    6 1   
     7    5   27 1   
     8    5   28 1   
     9    6    7 1   
    10    6   29 1   
    11    7   30 1   
    12    8    9 1   
    13    8   31 1   
    14    8   32 1   
    15    9   10 1   
    16    9   33 1   
    17   10   34 1   
    18   11   12 1   
    19   11   35 1   
    20   11   36 1   
    21   12   13 1   
    22   12   37 1   
    23   13   38 1   
    24   14   15 1   
    25   14   39 1   
    26   14   40 1   
    27   15   16 1   
    28   15   41 1   
    29   16   42 1   
    30   17   18 1   
    31   17   43 1   
    32   17   44 1   
    33   18   19 1   
    34   18   45 1   
    35   19   46 1   
    36   20   21 1   
    37   20   47 1   
    38   20   48 1   
    39   21   22 1   
    40   21   49 1   
    41   22   50 1   
    42   23   24 1   
    43   23   51 1   
    44   23   52 1   
    45   24   53 1   
    46   24   54 1   
    47   24   55 1   
@<TRIPOS>SUBSTRUCTURE
     1 HXA         1 TEMP              0 ****  ****    0 ROOT
