@<TRIPOS>MOLECULE
HXB
   45    46     1     0     0
SMALL
bcc


@<TRIPOS>ATOM
      1 C1          1.5300    0.0000    0.0000 c3        1 HXB     -0.004100
      2 N1         -1.6400    3.2020   -0.0230 n         1 HXB      0.108000
      3 O1          0.4510   -2.1170   -4.5100 os        1 HXB     -0.487800
      4 P1         -0.2670   -2.4500   -3.1080 p5        1 HXB      0.949800
      5 C2         -2.8260    2.8430   -0.5480 c         1 HXB      0.575500
      6 O2         -3.1000    1.6630   -0.6580 o         1 HXB     -0.714500
      7 P2          0.2230   -2.6060   -6.0270 p5        1 HXB      1.000800
      8 N3         -3.7120    3.7720   -0.9530 ns        1 HXB     -0.151500
      9 O3          1.5580   -2.3340   -6.8850 os        1 HXB     -0.484800
     10 P3          2.0910   -2.8450   -8.3150 p5        1 HXB      0.831900
     11 C4         -3.4240    5.0830   -0.8370 c         1 HXB      0.592700
     12 O4         -4.2250    5.9240   -1.2030 o         1 HXB     -0.821500
     13 C5         -2.1790    5.4750   -0.2860 cc        1 HXB     -0.373400
     14 O5          1.7620   -4.2780   -8.4820 o         1 HXB     -0.650500
     15 C6         -1.3080    4.5230    0.1120 cd        1 HXB     -0.356400
     16 O6          1.3860   -1.9930   -9.4860 o         1 HXB     -0.650500
     17 O7          3.6860   -2.6480   -8.3950 o         1 HXB     -0.650500
     18 O8         -1.0060   -1.7920   -6.6740 o         1 HXB     -0.675000
     19 O9         -0.0850   -4.0530   -6.0380 o         1 HXB     -0.675000
     20 C1'        -0.6980    2.1700    0.4150 c3        1 HXB      0.220500
     21 O10        -1.7310   -2.5370   -3.3120 o         1 HXB     -0.703500
     22 O11         0.2810   -3.8540   -2.5430 o         1 HXB     -0.703500
     23 C2'        -1.3030    1.3330    1.5710 c3        1 HXB     -0.120400
     24 C3'        -0.5250    0.0000    1.4490 c3        1 HXB      0.156100
     25 O3'         0.5620   -0.0320    2.3760 oh        1 HXB     -0.588800
     26 C4'         0.0000    0.0000    0.0000 c3        1 HXB      0.131800
     27 O4'        -0.4860    1.1990   -0.6330 os        1 HXB     -0.328600
     28 C5'        -0.5200   -1.2330   -0.7420 c3        1 HXB      0.309400
     29 O5'         0.0580   -1.2820   -2.0480 os        1 HXB     -0.489200
     30 C5M        -1.8310    6.9350   -0.1470 c3        1 HXB      0.145100
     31 H1          1.8910   -0.9650    0.3360 hc        1 HXB      0.006033
     32 H1A         1.8910    0.7730    0.6680 hc        1 HXB      0.006033
     33 H1B         1.8910    0.1920   -1.0030 hc        1 HXB      0.006033
     34 HN3        -4.5900    3.4870   -1.3410 hn        1 HXB      0.173500
     35 H6         -0.3520    4.8040    0.5360 h4        1 HXB      0.110000
     36 H1'         0.2440    2.6100    0.7190 h2        1 HXB      0.013700
     37 H2'        -2.3630    1.1740    1.4170 hc        1 HXB      0.028700
     38 H2'A       -1.1100    1.8040    2.5270 hc        1 HXB      0.028700
     39 H3'        -1.1910   -0.8400    1.6080 h1        1 HXB      0.012700
     40 HO3'        0.3080   -0.5200    3.1420 ho        1 HXB      0.355000
     41 H5'        -0.2480   -2.1270   -0.1930 h1        1 HXB     -0.018800
     42 H5'A       -1.5990   -1.1760   -0.8260 h1        1 HXB     -0.018800
     43 H5M        -0.8900    7.0330    0.3810 hc        1 HXB     -0.031300
     44 H5MA       -1.7410    7.3800   -1.1310 hc        1 HXB     -0.031300
     45 H5MB       -2.6110    7.4410    0.4080 hc        1 HXB     -0.031300
@<TRIPOS>BOND
     1    1   26 1   
     2    1   31 1   
     3    1   32 1   
     4    1   33 1   
     5    2    5 1   
     6    2   15 1   
     7    2   20 1   
     8    3    4 1   
     9    3    7 1   
    10    4   21 1   
    11    4   22 1   
    12    4   29 1   
    13    5    6 2   
    14    5    8 1   
    15    7    9 1   
    16    7   18 1   
    17    7   19 1   
    18    8   11 1   
    19    8   34 1   
    20    9   10 1   
    21   10   14 1   
    22   10   16 1   
    23   10   17 1   
    24   11   12 2   
    25   11   13 1   
    26   13   15 2   
    27   13   30 1   
    28   15   35 1   
    29   20   23 1   
    30   20   27 1   
    31   20   36 1   
    32   23   24 1   
    33   23   37 1   
    34   23   38 1   
    35   24   25 1   
    36   24   26 1   
    37   24   39 1   
    38   25   40 1   
    39   26   27 1   
    40   26   28 1   
    41   28   29 1   
    42   28   41 1   
    43   28   42 1   
    44   30   43 1   
    45   30   44 1   
    46   30   45 1   
@<TRIPOS>SUBSTRUCTURE
     1 HXB         1 TEMP              0 ****  ****    0 ROOT
