@<TRIPOS>MOLECULE
HXD
   38    37     1     0     0
SMALL
bcc


@<TRIPOS>ATOM
      1 C11         6.9860   -0.5270   -0.2620 c3        1 HXD     -0.080400
      2 C10         5.7840    0.3450    0.0340 c3        1 HXD     -0.079400
      3 C12         8.2780    0.2150   -0.0380 c3        1 HXD     -0.091100
      4 C9          4.4890   -0.4040   -0.1920 c3        1 HXD     -0.079400
      5 C8          3.2880    0.4680    0.1040 c3        1 HXD     -0.078400
      6 C7          1.9930   -0.2820   -0.1220 c3        1 HXD     -0.078400
      7 C6          0.7910    0.5900    0.1730 c3        1 HXD     -0.077400
      8 C5         -0.5040   -0.1620   -0.0480 c3        1 HXD     -0.077400
      9 C4         -1.7070    0.7090    0.2360 c3        1 HXD     -0.079400
     10 C3         -3.0130   -0.0700    0.0750 c3        1 HXD      0.172100
     11 O8         -3.0340   -1.0610    1.0940 oh        1 HXD     -0.658800
     12 C2         -4.2140    0.8590    0.1630 c3        1 HXD     -0.233400
     13 C1         -5.5230    0.1390   -0.1970 c         1 HXD      0.908600
     14 O1         -6.3700    0.7590   -0.8980 o         1 HXD     -0.849300
     15 O          -5.6990   -1.0400    0.2410 o         1 HXD     -0.849300
     16 H111        6.9360   -0.8830   -1.3250 hc        1 HXD      0.037700
     17 H112        6.9560   -1.4380    0.3930 hc        1 HXD      0.037700
     18 H101        5.8320    0.7020    1.0970 hc        1 HXD      0.037700
     19 H102        5.8110    1.2560   -0.6210 hc        1 HXD      0.037700
     20 H121        8.3370    1.1130   -0.7000 hc        1 HXD      0.029367
     21 H122        8.3570    0.5580    1.0220 hc        1 HXD      0.029367
     22 H123        9.1500   -0.4450   -0.2620 hc        1 HXD      0.029367
     23 H91         4.4410   -0.7610   -1.2550 hc        1 HXD      0.038200
     24 H92         4.4620   -1.3150    0.4630 hc        1 HXD      0.038200
     25 H81         3.3350    0.8250    1.1670 hc        1 HXD      0.036200
     26 H82         3.3140    1.3790   -0.5510 hc        1 HXD      0.036200
     27 H71         1.9450   -0.6390   -1.1840 hc        1 HXD      0.038200
     28 H72         1.9650   -1.1920    0.5340 hc        1 HXD      0.038200
     29 H61         0.8390    0.9500    1.2350 hc        1 HXD      0.032200
     30 H62         0.8150    1.4990   -0.4840 hc        1 HXD      0.032200
     31 H51        -0.5480   -0.5320   -1.1050 hc        1 HXD      0.045200
     32 H52        -0.5430   -1.0630    0.6210 hc        1 HXD      0.045200
     33 H41        -1.6470    1.1060    1.2820 hc        1 HXD      0.033700
     34 H42        -1.7210    1.5820   -0.4650 hc        1 HXD      0.033700
     35 H3         -3.0180   -0.5910   -0.9250 h1        1 HXD      0.024700
     36 HO8        -3.9410   -1.4170    1.1090 ho        1 HXD      0.455000
     37 H21        -4.3100    1.2480    1.2060 hc        1 HXD      0.033700
     38 H22        -4.0720    1.7260   -0.5280 hc        1 HXD      0.033700
@<TRIPOS>BOND
     1    1    2 1   
     2    1    3 1   
     3    1   16 1   
     4    1   17 1   
     5    2    4 1   
     6    2   18 1   
     7    2   19 1   
     8    3   20 1   
     9    3   21 1   
    10    3   22 1   
    11    4    5 1   
    12    4   23 1   
    13    4   24 1   
    14    5    6 1   
    15    5   25 1   
    16    5   26 1   
    17    6    7 1   
    18    6   27 1   
    19    6   28 1   
    20    7    8 1   
    21    7   29 1   
    22    7   30 1   
    23    8    9 1   
    24    8   31 1   
    25    8   32 1   
    26    9   10 1   
    27    9   33 1   
    28    9   34 1   
    29   10   11 1   
    30   10   12 1   
    31   10   35 1   
    32   11   36 1   
    33   12   13 1   
    34   12   37 1   
    35   12   38 1   
    36   13   14 1   
    37   13   15 1   
@<TRIPOS>SUBSTRUCTURE
     1 HXD         1 TEMP              0 ****  ****    0 ROOT
