@<TRIPOS>MOLECULE
HXD
   38    37     1     0     0
SMALL
bcc


@<TRIPOS>ATOM
      1 C11        -4.7330   -0.6120    2.7720 c3        1 HXD     -0.080400
      2 C10        -3.2550   -0.2900    2.7790 c3        1 HXD     -0.079400
      3 C12        -5.2400   -0.6870    4.1950 c3        1 HXD     -0.091100
      4 C9         -2.7160   -0.3580    1.3670 c3        1 HXD     -0.079400
      5 C8         -1.2700    0.0850    1.3570 c3        1 HXD     -0.078400
      6 C7         -0.6920   -0.1130   -0.0270 c3        1 HXD     -0.078400
      7 C6          0.7100    0.4550   -0.0740 c3        1 HXD     -0.077400
      8 C5          1.3720    0.0560   -1.3740 c3        1 HXD     -0.077400
      9 C4          2.7330    0.7100   -1.4680 c3        1 HXD     -0.079400
     10 C3          3.4210    0.2620   -2.7380 c3        1 HXD      0.172100
     11 O8          2.8780    0.9560   -3.8360 oh        1 HXD     -0.658800
     12 C2          4.9010    0.5540   -2.6400 c3        1 HXD     -0.233400
     13 C1          5.6070   -0.0020   -3.8560 c         1 HXD      0.908600
     14 O1          5.9020    0.7580   -4.8160 o         1 HXD     -0.849300
     15 O           5.9030   -1.2250   -3.9090 o         1 HXD     -0.849300
     16 H111       -4.8770   -1.4720    2.3280 hc        1 HXD      0.037700
     17 H112       -5.2170    0.0890    2.2900 hc        1 HXD      0.037700
     18 H101       -2.7830   -0.9380    3.3400 hc        1 HXD      0.037700
     19 H102       -3.1190    0.6100    3.1370 hc        1 HXD      0.037700
     20 H121       -6.2110   -0.8190    4.1890 hc        1 HXD      0.029367
     21 H122       -4.8110   -1.4390    4.6550 hc        1 HXD      0.029367
     22 H123       -5.0260    0.1470    4.6630 hc        1 HXD      0.029367
     23 H91        -2.7780   -1.2770    1.0380 hc        1 HXD      0.038200
     24 H92        -3.2420    0.2310    0.7890 hc        1 HXD      0.038200
     25 H81        -1.2170    1.0310    1.6000 hc        1 HXD      0.036200
     26 H82        -0.7620   -0.4460    2.0010 hc        1 HXD      0.036200
     27 H71        -1.2520    0.3480   -0.6840 hc        1 HXD      0.038200
     28 H72        -0.6630   -1.0680   -0.2350 hc        1 HXD      0.038200
     29 H61         1.2290    0.1050    0.6770 hc        1 HXD      0.032200
     30 H62         0.6680    1.4310   -0.0160 hc        1 HXD      0.032200
     31 H51         0.8180    0.3470   -2.1260 hc        1 HXD      0.045200
     32 H52         1.4750   -0.9160   -1.4030 hc        1 HXD      0.045200
     33 H41         3.2740    0.4510   -0.6960 hc        1 HXD      0.033700
     34 H42         2.6280    1.6830   -1.4800 hc        1 HXD      0.033700
     35 H3          3.2860   -0.6980   -2.8600 h1        1 HXD      0.024700
     36 HO8         2.7550    0.3920   -4.5120 ho        1 HXD      0.455000
     37 H21         5.0400    1.5220   -2.5960 hc        1 HXD      0.033700
     38 H22         5.2630    0.1360   -1.8330 hc        1 HXD      0.033700
@<TRIPOS>BOND
     1    1    2 1   
     2    1    3 1   
     3    1   16 1   
     4    1   17 1   
     5    2    4 1   
     6    2   18 1   
     7    2   19 1   
     8    3   20 1   
     9    3   21 1   
    10    3   22 1   
    11    4    5 1   
    12    4   23 1   
    13    4   24 1   
    14    5    6 1   
    15    5   25 1   
    16    5   26 1   
    17    6    7 1   
    18    6   27 1   
    19    6   28 1   
    20    7    8 1   
    21    7   29 1   
    22    7   30 1   
    23    8    9 1   
    24    8   31 1   
    25    8   32 1   
    26    9   10 1   
    27    9   33 1   
    28    9   34 1   
    29   10   11 1   
    30   10   12 1   
    31   10   35 1   
    32   11   36 1   
    33   12   13 1   
    34   12   37 1   
    35   12   38 1   
    36   13   14 1   
    37   13   15 1   
@<TRIPOS>SUBSTRUCTURE
     1 HXD         1 TEMP              0 ****  ****    0 ROOT
