@<TRIPOS>MOLECULE
HXD
   38    37     1     0     0
SMALL
bcc


@<TRIPOS>ATOM
      1 C11         0.0010   -0.0660    0.0560 c3        1 HXD     -0.080400
      2 C10         1.5120    0.0190    0.0170 c3        1 HXD     -0.079400
      3 C12        -0.5220    0.0090    1.4670 c3        1 HXD     -0.091100
      4 C9          2.0330   -0.0580   -1.4020 c3        1 HXD     -0.079400
      5 C8          3.5440    0.0280   -1.4410 c3        1 HXD     -0.078400
      6 C7          4.0650   -0.0490   -2.8600 c3        1 HXD     -0.078400
      7 C6          5.5750    0.0370   -2.9000 c3        1 HXD     -0.077400
      8 C5          6.0950   -0.0360   -4.3190 c3        1 HXD     -0.077400
      9 C4          7.6050    0.0400   -4.3620 c3        1 HXD     -0.079400
     10 C3          8.1250    0.0290   -5.8000 c3        1 HXD      0.172100
     11 O8          7.6830    1.2350   -6.4100 oh        1 HXD     -0.658800
     12 C2          9.6400   -0.0980   -5.8280 c3        1 HXD     -0.233400
     13 C1         10.1710   -0.3140   -7.2540 c         1 HXD      0.908600
     14 O1         11.1100   -1.1420   -7.4200 o         1 HXD     -0.849300
     15 O           9.6530    0.3600   -8.1960 o         1 HXD     -0.849300
     16 H111       -0.3310   -1.0270   -0.4180 hc        1 HXD      0.037700
     17 H112       -0.4350    0.7700   -0.5520 hc        1 HXD      0.037700
     18 H101        1.9510   -0.8170    0.6240 hc        1 HXD      0.037700
     19 H102        1.8470    0.9800    0.4890 hc        1 HXD      0.037700
     20 H121       -0.2210    0.9710    1.9490 hc        1 HXD      0.029367
     21 H122       -0.1170   -0.8310    2.0830 hc        1 HXD      0.029367
     22 H123       -1.6370   -0.0550    1.4730 hc        1 HXD      0.029367
     23 H91         1.5940    0.7780   -2.0090 hc        1 HXD      0.038200
     24 H92         1.6990   -1.0190   -1.8740 hc        1 HXD      0.038200
     25 H81         3.8780    0.9900   -0.9700 hc        1 HXD      0.036200
     26 H82         3.9830   -0.8070   -0.8330 hc        1 HXD      0.036200
     27 H71         3.6260    0.7860   -3.4680 hc        1 HXD      0.038200
     28 H72         3.7310   -1.0110   -3.3310 hc        1 HXD      0.038200
     29 H61         6.0150   -0.7990   -2.2940 hc        1 HXD      0.032200
     30 H62         5.9090    0.9980   -2.4270 hc        1 HXD      0.032200
     31 H51         5.7520   -0.9920   -4.7970 hc        1 HXD      0.045200
     32 H52         5.6720    0.8080   -4.9270 hc        1 HXD      0.045200
     33 H41         8.0470   -0.8310   -3.8140 hc        1 HXD      0.033700
     34 H42         7.9500    0.9780   -3.8570 hc        1 HXD      0.033700
     35 H3          7.6690   -0.8380   -6.3580 h1        1 HXD      0.024700
     36 HO8         8.1750    1.3120   -7.2470 ho        1 HXD      0.455000
     37 H21        10.1020    0.8390   -5.4270 hc        1 HXD      0.033700
     38 H22         9.9600   -0.9540   -5.1850 hc        1 HXD      0.033700
@<TRIPOS>BOND
     1    1    2 1   
     2    1    3 1   
     3    1   16 1   
     4    1   17 1   
     5    2    4 1   
     6    2   18 1   
     7    2   19 1   
     8    3   20 1   
     9    3   21 1   
    10    3   22 1   
    11    4    5 1   
    12    4   23 1   
    13    4   24 1   
    14    5    6 1   
    15    5   25 1   
    16    5   26 1   
    17    6    7 1   
    18    6   27 1   
    19    6   28 1   
    20    7    8 1   
    21    7   29 1   
    22    7   30 1   
    23    8    9 1   
    24    8   31 1   
    25    8   32 1   
    26    9   10 1   
    27    9   33 1   
    28    9   34 1   
    29   10   11 1   
    30   10   12 1   
    31   10   35 1   
    32   11   36 1   
    33   12   13 1   
    34   12   37 1   
    35   12   38 1   
    36   13   14 1   
    37   13   15 1   
@<TRIPOS>SUBSTRUCTURE
     1 HXD         1 TEMP              0 ****  ****    0 ROOT
