@<TRIPOS>MOLECULE
HXD
   38    37     1     0     0
SMALL
bcc


@<TRIPOS>ATOM
      1 C11         0.0000   -0.0530    0.0550 c3        1 HXD     -0.080400
      2 C10         1.5120    0.0150    0.0170 c3        1 HXD     -0.079400
      3 C12        -0.5220    0.0080    1.4670 c3        1 HXD     -0.091100
      4 C9          2.0320   -0.0470   -1.4030 c3        1 HXD     -0.079400
      5 C8          3.5440    0.0210   -1.4400 c3        1 HXD     -0.078400
      6 C7          4.0640   -0.0410   -2.8610 c3        1 HXD     -0.078400
      7 C6          5.5760    0.0260   -2.8990 c3        1 HXD     -0.077400
      8 C5          6.0940   -0.0300   -4.3200 c3        1 HXD     -0.077400
      9 C4          7.6050    0.0260   -4.3620 c3        1 HXD     -0.079400
     10 C3          8.1260    0.0330   -5.7990 c3        1 HXD      0.172100
     11 O8          7.7000    1.2550   -6.3880 oh        1 HXD     -0.658800
     12 C2          9.6390   -0.1140   -5.8300 c3        1 HXD     -0.233400
     13 C1         10.1670   -0.3130   -7.2590 c         1 HXD      0.908600
     14 O1         11.0940   -1.1510   -7.4400 o         1 HXD     -0.849300
     15 O           9.6590    0.3850   -8.1890 o         1 HXD     -0.849300
     16 H111       -0.3430   -1.0040   -0.4330 hc        1 HXD      0.037700
     17 H112       -0.4270    0.7950   -0.5420 hc        1 HXD      0.037700
     18 H101        1.9410   -0.8340    0.6120 hc        1 HXD      0.037700
     19 H102        1.8570    0.9660    0.5020 hc        1 HXD      0.037700
     20 H121       -0.2110    0.9610    1.9610 hc        1 HXD      0.029367
     21 H122       -1.6380   -0.0430    1.4720 hc        1 HXD      0.029367
     22 H123       -0.1270   -0.8440    2.0710 hc        1 HXD      0.029367
     23 H91         1.6870   -0.9980   -1.8890 hc        1 HXD      0.038200
     24 H92         1.6030    0.8010   -1.9990 hc        1 HXD      0.038200
     25 H81         3.8890    0.9720   -0.9550 hc        1 HXD      0.036200
     26 H82         3.9730   -0.8280   -0.8460 hc        1 HXD      0.036200
     27 H71         3.6360    0.8080   -3.4560 hc        1 HXD      0.038200
     28 H72         3.7180   -0.9910   -3.3460 hc        1 HXD      0.038200
     29 H61         6.0050   -0.8240   -2.3070 hc        1 HXD      0.032200
     30 H62         5.9220    0.9760   -2.4110 hc        1 HXD      0.032200
     31 H51         5.7390   -0.9730   -4.8130 hc        1 HXD      0.045200
     32 H52         5.6830    0.8290   -4.9140 hc        1 HXD      0.045200
     33 H41         7.9630    0.9510   -3.8410 hc        1 HXD      0.033700
     34 H42         8.0360   -0.8600   -3.8280 hc        1 HXD      0.033700
     35 H3          7.6570   -0.8180   -6.3720 h1        1 HXD      0.024700
     36 HO8         8.1940    1.3410   -7.2240 ho        1 HXD      0.455000
     37 H21        10.1140    0.8080   -5.4130 hc        1 HXD      0.033700
     38 H22         9.9460   -0.9860   -5.2010 hc        1 HXD      0.033700
@<TRIPOS>BOND
     1    1    2 1   
     2    1    3 1   
     3    1   16 1   
     4    1   17 1   
     5    2    4 1   
     6    2   18 1   
     7    2   19 1   
     8    3   20 1   
     9    3   21 1   
    10    3   22 1   
    11    4    5 1   
    12    4   23 1   
    13    4   24 1   
    14    5    6 1   
    15    5   25 1   
    16    5   26 1   
    17    6    7 1   
    18    6   27 1   
    19    6   28 1   
    20    7    8 1   
    21    7   29 1   
    22    7   30 1   
    23    8    9 1   
    24    8   31 1   
    25    8   32 1   
    26    9   10 1   
    27    9   33 1   
    28    9   34 1   
    29   10   11 1   
    30   10   12 1   
    31   10   35 1   
    32   11   36 1   
    33   12   13 1   
    34   12   37 1   
    35   12   38 1   
    36   13   14 1   
    37   13   15 1   
@<TRIPOS>SUBSTRUCTURE
     1 HXD         1 TEMP              0 ****  ****    0 ROOT
