@<TRIPOS>MOLECULE
HXG
   70    69     1     0     0
SMALL
bcc


@<TRIPOS>ATOM
      1 CAA         0.9580    2.0540    2.1610 c3        1 HXG     -0.093100
      2 CAJ         2.0780    1.0620    1.9870 c3        1 HXG     -0.080400
      3 CAL         3.3020    1.4620    2.7830 c3        1 HXG     -0.078400
      4 CAN         4.4240    0.4630    2.5970 c3        1 HXG     -0.079400
      5 CAQ         5.6380    0.8600    3.4110 c3        1 HXG     -0.127400
      6 CAZ         6.7970   -0.0420    3.1220 c         1 HXG      0.632100
      7 OAF         7.1350   -0.5540    2.0540 o         1 HXG     -0.540000
      8 OAV         7.5610   -0.2830    4.2310 os        1 HXG     -0.445900
      9 CAT         8.7340   -1.0930    4.0430 c3        1 HXG      0.127400
     10 CBB         9.2930   -1.3580    5.4410 c3        1 HXG      0.109100
     11 OAY         8.4830   -2.4120    6.0040 os        1 HXG     -0.424900
     12 CBA         7.9030   -2.2390    7.2180 c         1 HXG      0.662100
     13 OAG         8.0920   -1.1990    7.8620 o         1 HXG     -0.604000
     14 CAR         7.0890   -3.4320    7.6290 c3        1 HXG     -0.133400
     15 CAO         5.7810   -3.0060    8.2590 c3        1 HXG     -0.076400
     16 CAM         5.0250   -4.2050    8.7910 c3        1 HXG     -0.080400
     17 CAK         3.7060   -3.7900    9.4080 c3        1 HXG     -0.079400
     18 CAB         2.9500   -4.9780    9.9440 c3        1 HXG     -0.094100
     19 CAU        10.7390   -1.8830    5.3370 c3        1 HXG      0.169400
     20 OAX        11.4420   -1.6550    6.5190 os        1 HXG     -0.580200
     21 PBD        12.5720   -0.4530    6.5000 p5        1 HXG      1.434800
     22 OAI        13.1800   -0.3610    5.1730 o         1 HXG     -0.810500
     23 OAH        13.1940   -0.4790    7.8450 o         1 HXG     -0.810500
     24 OAW        11.4080    0.7310    6.6580 os        1 HXG     -0.571200
     25 CAP        11.4410    1.5500    7.7660 c3        1 HXG      0.199400
     26 CAS        10.3520    1.1560    8.7890 c3        1 HXG      0.074800
     27 NBC        10.7570    0.2880    9.9550 n4        1 HXG     -0.576800
     28 CAD        12.0830    0.6870   10.5070 c3        1 HXG      0.075100
     29 CAE         9.7170    0.4480   11.0160 c3        1 HXG      0.075100
     30 CAC        10.8050   -1.1540    9.5690 c3        1 HXG      0.075100
     31 H1          1.2720    3.0690    1.8160 hc        1 HXG      0.033367
     32 H2          0.6580    2.1270    3.2350 hc        1 HXG      0.033367
     33 H3          0.0660    1.7400    1.5670 hc        1 HXG      0.033367
     34 H4          1.7350    0.0440    2.3140 hc        1 HXG      0.041700
     35 H5          2.3480    0.9850    0.9000 hc        1 HXG      0.041700
     36 H6          3.6450    2.4790    2.4570 hc        1 HXG      0.039700
     37 H7          3.0360    1.5340    3.8700 hc        1 HXG      0.039700
     38 H8          4.7070    0.3990    1.5120 hc        1 HXG      0.057700
     39 H9          4.0790   -0.5570    2.9100 hc        1 HXG      0.057700
     40 H10         5.4040    0.8360    4.5070 hc        1 HXG      0.076700
     41 H11         5.9570    1.9060    3.1510 hc        1 HXG      0.076700
     42 H12         9.4680   -0.5170    3.4230 h1        1 HXG      0.073200
     43 H13         8.4510   -2.0450    3.5240 h1        1 HXG      0.073200
     44 H14         9.2330   -0.4320    6.0760 h1        1 HXG      0.108700
     45 H15         7.7050   -4.0210    8.3600 hc        1 HXG      0.079200
     46 H16         6.9010   -4.0850    6.7360 hc        1 HXG      0.079200
     47 H17         5.9840   -2.2800    9.0910 hc        1 HXG      0.052700
     48 H18         5.1540   -2.4700    7.4980 hc        1 HXG      0.052700
     49 H19         4.8380   -4.9320    7.9570 hc        1 HXG      0.042700
     50 H20         5.6480   -4.7340    9.5590 hc        1 HXG      0.042700
     51 H21         3.0830   -3.2630    8.6370 hc        1 HXG      0.039700
     52 H22         3.8950   -3.0570   10.2360 hc        1 HXG      0.039700
     53 H23         2.7320   -5.7080    9.1270 hc        1 HXG      0.034700
     54 H24         3.5450   -5.5020   10.7310 hc        1 HXG      0.034700
     55 H25         1.9820   -4.6510   10.3930 hc        1 HXG      0.034700
     56 H26        11.2630   -1.3780    4.4760 h1        1 HXG      0.064700
     57 H27        10.7060   -2.9950    5.1650 h1        1 HXG      0.064700
     58 H29        11.1610    2.5910    7.4240 h1        1 HXG      0.054200
     59 H30        12.4690    1.5740    8.2200 h1        1 HXG      0.054200
     60 H31         9.9390    2.1070    9.2290 hx        1 HXG      0.097700
     61 H32         9.5310    0.6070    8.2350 hx        1 HXG      0.097700
     62 H33        12.2180    0.2140   11.5140 hx        1 HXG      0.099922
     63 H34        12.1230    1.8020   10.6010 hx        1 HXG      0.099922
     64 H35        12.9030    0.3210    9.8150 hx        1 HXG      0.099922
     65 H36         9.7280    1.5010   11.3990 hx        1 HXG      0.099922
     66 H37         8.7110    0.2110   10.5790 hx        1 HXG      0.099922
     67 H38         9.9340   -0.2570   11.8600 hx        1 HXG      0.099922
     68 H39        11.0950   -1.7590   10.4660 hx        1 HXG      0.099922
     69 H40        11.5780   -1.2920    8.7510 hx        1 HXG      0.099922
     70 H41         9.7990   -1.4700    9.1860 hx        1 HXG      0.099922
@<TRIPOS>BOND
     1    1    2 1   
     2    1   31 1   
     3    1   32 1   
     4    1   33 1   
     5    2    3 1   
     6    2   34 1   
     7    2   35 1   
     8    3    4 1   
     9    3   36 1   
    10    3   37 1   
    11    4    5 1   
    12    4   38 1   
    13    4   39 1   
    14    5    6 1   
    15    5   40 1   
    16    5   41 1   
    17    6    7 2   
    18    6    8 1   
    19    8    9 1   
    20    9   10 1   
    21    9   42 1   
    22    9   43 1   
    23   10   11 1   
    24   10   19 1   
    25   10   44 1   
    26   11   12 1   
    27   12   13 2   
    28   12   14 1   
    29   14   15 1   
    30   14   45 1   
    31   14   46 1   
    32   15   16 1   
    33   15   47 1   
    34   15   48 1   
    35   16   17 1   
    36   16   49 1   
    37   16   50 1   
    38   17   18 1   
    39   17   51 1   
    40   17   52 1   
    41   18   53 1   
    42   18   54 1   
    43   18   55 1   
    44   19   20 1   
    45   19   56 1   
    46   19   57 1   
    47   20   21 1   
    48   21   22 1   
    49   21   23 1   
    50   21   24 1   
    51   24   25 1   
    52   25   26 1   
    53   25   58 1   
    54   25   59 1   
    55   26   27 1   
    56   26   60 1   
    57   26   61 1   
    58   27   28 1   
    59   27   29 1   
    60   27   30 1   
    61   28   62 1   
    62   28   63 1   
    63   28   64 1   
    64   29   65 1   
    65   29   66 1   
    66   29   67 1   
    67   30   68 1   
    68   30   69 1   
    69   30   70 1   
@<TRIPOS>SUBSTRUCTURE
     1 HXG         1 TEMP              0 ****  ****    0 ROOT
