@<TRIPOS>MOLECULE
HXG
   70    69     1     0     0
SMALL
bcc


@<TRIPOS>ATOM
      1 CAA         0.9340    2.0600    2.2250 c3        1 HXG     -0.093100
      2 CAJ         2.0500    1.0640    2.0440 c3        1 HXG     -0.080400
      3 CAL         3.2850    1.4680    2.8200 c3        1 HXG     -0.078400
      4 CAN         4.4020    0.4650    2.6280 c3        1 HXG     -0.079400
      5 CAQ         5.6280    0.8660    3.4220 c3        1 HXG     -0.127400
      6 CAZ         6.7810   -0.0430    3.1270 c         1 HXG      0.632100
      7 OAF         7.1070   -0.5600    2.0570 o         1 HXG     -0.540000
      8 OAV         7.5530   -0.2840    4.2300 os        1 HXG     -0.445900
      9 CAT         8.7200   -1.1000    4.0360 c3        1 HXG      0.127400
     10 CBB         9.2870   -1.3670    5.4290 c3        1 HXG      0.109100
     11 OAY         8.4730   -2.4150    5.9990 os        1 HXG     -0.424900
     12 CBA         7.9020   -2.2370    7.2160 c         1 HXG      0.662100
     13 OAG         8.1020   -1.1970    7.8580 o         1 HXG     -0.604000
     14 CAR         7.0820   -3.4230    7.6340 c3        1 HXG     -0.133400
     15 CAO         5.7740   -2.9860    8.2580 c3        1 HXG     -0.076400
     16 CAM         5.0120   -4.1780    8.7970 c3        1 HXG     -0.080400
     17 CAK         3.6930   -3.7530    9.4070 c3        1 HXG     -0.079400
     18 CAB         2.9310   -4.9340    9.9500 c3        1 HXG     -0.094100
     19 CAU        10.7290   -1.9020    5.3160 c3        1 HXG      0.169400
     20 OAX        11.4410   -1.6760    6.4940 os        1 HXG     -0.580200
     21 PBD        12.5780   -0.4820    6.4660 p5        1 HXG      1.434800
     22 OAI        13.1780   -0.3960    5.1350 o         1 HXG     -0.810500
     23 OAH        13.2090   -0.5110    7.8060 o         1 HXG     -0.810500
     24 OAW        11.4230    0.7090    6.6300 os        1 HXG     -0.571200
     25 CAP        11.4680    1.5300    7.7380 c3        1 HXG      0.199400
     26 CAS        10.3840    1.1430    8.7680 c3        1 HXG      0.074800
     27 NBC        10.7910    0.2740    9.9320 n4        1 HXG     -0.576800
     28 CAD        12.1230    0.6650   10.4750 c3        1 HXG      0.075100
     29 CAE         9.7590    0.4420   10.9990 c3        1 HXG      0.075100
     30 CAC        10.8270   -1.1690    9.5470 c3        1 HXG      0.075100
     31 H1          1.2460    3.0710    1.8670 hc        1 HXG      0.033367
     32 H2          0.0340    1.7430    1.6460 hc        1 HXG      0.033367
     33 H3          0.6490    2.1430    3.3020 hc        1 HXG      0.033367
     34 H4          1.7100    0.0500    2.3840 hc        1 HXG      0.041700
     35 H5          2.3050    0.9770    0.9550 hc        1 HXG      0.041700
     36 H6          3.6260    2.4820    2.4810 hc        1 HXG      0.039700
     37 H7          3.0340    1.5500    3.9100 hc        1 HXG      0.039700
     38 H8          4.6710    0.3910    1.5400 hc        1 HXG      0.057700
     39 H9          4.0590   -0.5520    2.9540 hc        1 HXG      0.057700
     40 H10         5.4080    0.8520    4.5220 hc        1 HXG      0.076700
     41 H11         5.9460    1.9080    3.1490 hc        1 HXG      0.076700
     42 H12         9.4540   -0.5290    3.4100 h1        1 HXG      0.073200
     43 H13         8.4290   -2.0510    3.5180 h1        1 HXG      0.073200
     44 H14         9.2370   -0.4400    6.0640 h1        1 HXG      0.108700
     45 H15         7.6930   -4.0090    8.3710 hc        1 HXG      0.079200
     46 H16         6.8930   -4.0820    6.7460 hc        1 HXG      0.079200
     47 H17         5.9790   -2.2560    9.0850 hc        1 HXG      0.052700
     48 H18         5.1520   -2.4540    7.4920 hc        1 HXG      0.052700
     49 H19         5.6310   -4.7050    9.5700 hc        1 HXG      0.042700
     50 H20         4.8230   -4.9110    7.9680 hc        1 HXG      0.042700
     51 H21         3.8830   -3.0150   10.2310 hc        1 HXG      0.039700
     52 H22         3.0740   -3.2290    8.6320 hc        1 HXG      0.039700
     53 H23         3.5210   -5.4550   10.7430 hc        1 HXG      0.034700
     54 H24         1.9620   -4.5990   10.3950 hc        1 HXG      0.034700
     55 H25         2.7110   -5.6680    9.1380 hc        1 HXG      0.034700
     56 H26        10.6870   -3.0140    5.1470 h1        1 HXG      0.064700
     57 H27        11.2500   -1.4010    4.4510 h1        1 HXG      0.064700
     58 H29        12.4990    1.5470    8.1840 h1        1 HXG      0.054200
     59 H30        11.1940    2.5720    7.3960 h1        1 HXG      0.054200
     60 H31         9.9800    2.0980    9.2090 hx        1 HXG      0.097700
     61 H32         9.5560    0.5990    8.2200 hx        1 HXG      0.097700
     62 H33        12.1710    1.7790   10.5670 hx        1 HXG      0.099922
     63 H34        12.2610    0.1920   11.4810 hx        1 HXG      0.099922
     64 H35        12.9360    0.2930    9.7770 hx        1 HXG      0.099922
     65 H36         9.9760   -0.2640   11.8430 hx        1 HXG      0.099922
     66 H37         9.7790    1.4950   11.3810 hx        1 HXG      0.099922
     67 H38         8.7480    0.2100   10.5690 hx        1 HXG      0.099922
     68 H39        11.1180   -1.7750   10.4420 hx        1 HXG      0.099922
     69 H40        11.5940   -1.3130    8.7240 hx        1 HXG      0.099922
     70 H41         9.8170   -1.4790    9.1710 hx        1 HXG      0.099922
@<TRIPOS>BOND
     1    1    2 1   
     2    1   31 1   
     3    1   32 1   
     4    1   33 1   
     5    2    3 1   
     6    2   34 1   
     7    2   35 1   
     8    3    4 1   
     9    3   36 1   
    10    3   37 1   
    11    4    5 1   
    12    4   38 1   
    13    4   39 1   
    14    5    6 1   
    15    5   40 1   
    16    5   41 1   
    17    6    7 2   
    18    6    8 1   
    19    8    9 1   
    20    9   10 1   
    21    9   42 1   
    22    9   43 1   
    23   10   11 1   
    24   10   19 1   
    25   10   44 1   
    26   11   12 1   
    27   12   13 2   
    28   12   14 1   
    29   14   15 1   
    30   14   45 1   
    31   14   46 1   
    32   15   16 1   
    33   15   47 1   
    34   15   48 1   
    35   16   17 1   
    36   16   49 1   
    37   16   50 1   
    38   17   18 1   
    39   17   51 1   
    40   17   52 1   
    41   18   53 1   
    42   18   54 1   
    43   18   55 1   
    44   19   20 1   
    45   19   56 1   
    46   19   57 1   
    47   20   21 1   
    48   21   22 1   
    49   21   23 1   
    50   21   24 1   
    51   24   25 1   
    52   25   26 1   
    53   25   58 1   
    54   25   59 1   
    55   26   27 1   
    56   26   60 1   
    57   26   61 1   
    58   27   28 1   
    59   27   29 1   
    60   27   30 1   
    61   28   62 1   
    62   28   63 1   
    63   28   64 1   
    64   29   65 1   
    65   29   66 1   
    66   29   67 1   
    67   30   68 1   
    68   30   69 1   
    69   30   70 1   
@<TRIPOS>SUBSTRUCTURE
     1 HXG         1 TEMP              0 ****  ****    0 ROOT
