@<TRIPOS>MOLECULE
HXH
   45    43     1     0     0
SMALL
bcc


@<TRIPOS>ATOM
      1 C1          1.8360    0.3460    2.5830 c3        1 HXH     -0.032000
      2 N1          1.3100    0.4620    1.2040 n3        1 HXH     -0.307000
      3 C2          3.5060    0.3330    2.5790 c3        1 HXH      0.008000
      4 O2          3.9510   -0.8610    1.8660 oh        1 HXH     -0.339000
      5 C3          4.0650    0.3300    3.7440 c3        1 HXH      0.045000
      6 O3          5.5330    0.3510    3.5450 oh        1 HXH     -0.323000
      7 C4          3.6630    1.5810    4.7240 c3        1 HXH      0.058000
      8 O4          4.2460    1.4290    5.9580 oh        1 HXH     -0.310000
      9 C5          2.1750    1.7640    4.8300 c2        1 HXH     -0.184000
     10 C6          1.2890    1.3980    3.4320 c2        1 HXH     -0.185000
     11 C10         0.1280   -0.3810    1.0560 c3        1 HXH     -0.033000
     12 C11        -0.5430   -0.0730   -0.2780 c2        1 HXH     -0.116000
     13 C12        -0.0930   -0.7110   -1.4680 c2        1 HXH     -0.085000
     14 C13        -0.7650   -0.4900   -2.6780 c1        1 HXH     -0.180000
     15 C14        -1.8660    0.3490   -2.7160 c1        1 HXH      0.069000
     16 C15        -2.3160    0.9870   -1.5260 c1        1 HXH     -0.146000
     17 C16        -1.6450    0.7670   -0.3160 c1        1 HXH     -0.101000
     18 O20        -2.4360    0.6850   -3.9350 os        1 HXH     -0.160000
     19 C21        -3.3430   -0.3950   -4.3690 c2        1 HXH      0.055000
     20 C22        -4.6230   -0.4670   -3.8600 c2        1 HXH     -0.169000
     21 C23        -5.4970   -1.3940   -4.3440 c1        1 HXH     -0.108000
     22 C24        -5.0940   -2.2820   -5.3670 c1        1 HXH     -0.128500
     23 C25        -3.8180   -2.2120   -5.8750 c1        1 HXH     -0.128500
     24 C26        -2.9400   -1.2820   -5.3900 c1        1 HXH     -0.139000
     25 H1          1.4760   -0.5480    2.8520 h1        1 HXH      0.122000
     26 HN1         1.0830    1.3350    1.0340 hn        1 HXH      0.163000
     27 H2          3.8200    1.1270    2.0830 h1        1 HXH      0.091000
     28 HO2         4.1620   -0.6390    1.0000 ho        1 HXH      0.224000
     29 H3          3.8080   -0.5680    4.2330 h1        1 HXH      0.109000
     30 HO3         5.8950   -0.2920    4.0080 ho        1 HXH      0.220000
     31 H4          4.0860    2.4100    4.4190 h1        1 HXH      0.102000
     32 HO4         4.3040    2.2670    6.3830 ho        1 HXH      0.199000
     33 H5          1.7940    2.3760    5.5130 ha        1 HXH      0.128000
     34 H6          0.3790    1.6280    3.3740 ha        1 HXH      0.128000
     35 H10        -0.5160   -0.1920    1.8090 h1        1 HXH      0.081500
     36 H10A        0.3860   -1.3080    1.0830 h1        1 HXH      0.081500
     37 H12         0.7520   -1.3530   -1.4410 ha        1 HXH      0.147000
     38 H13        -0.4520   -0.9350   -3.5060 ha        1 HXH      0.151000
     39 H15        -3.1160    1.5960   -1.5530 ha        1 HXH      0.152000
     40 H16        -1.9690    1.2280    0.5440 ha        1 HXH      0.135000
     41 H22        -4.8980    0.1340   -3.1610 ha        1 HXH      0.148000
     42 H23        -6.4000   -1.4420   -3.9850 ha        1 HXH      0.136000
     43 H24        -5.7530   -2.9790   -5.7290 ha        1 HXH      0.135500
     44 H25        -3.5280   -2.8490   -6.6090 ha        1 HXH      0.135500
     45 H26        -2.0340   -1.2320   -5.7490 ha        1 HXH      0.151000
@<TRIPOS>BOND
     1    1    2 1   
     2    1    3 1   
     3    1   10 1   
     4    1   25 1   
     5    2   11 1   
     6    2   26 1   
     7    3    4 1   
     8    3    5 1   
     9    3   27 1   
    10    4   28 1   
    11    5    6 1   
    12    5    7 1   
    13    5   29 1   
    14    6   30 1   
    15    7    8 1   
    16    7    9 1   
    17    7   31 1   
    18    8   32 1   
    19    9   10 1   
    20    9   33 1   
    21   10   34 1   
    22   11   12 1   
    23   11   35 1   
    24   11   36 1   
    25   12   13 1   
    26   12   17 1   
    27   13   14 1   
    28   13   37 1   
    29   14   38 1   
    30   15   16 1   
    31   15   18 1   
    32   16   39 1   
    33   17   40 1   
    34   18   19 1   
    35   19   20 1   
    36   19   24 1   
    37   20   21 1   
    38   20   41 1   
    39   21   42 1   
    40   22   23 1   
    41   22   43 1   
    42   23   44 1   
    43   24   45 1   
@<TRIPOS>SUBSTRUCTURE
     1 HXH         1 TEMP              0 ****  ****    0 ROOT
