@<TRIPOS>MOLECULE
HXH
   46    48     1     0     0
SMALL
bcc


@<TRIPOS>ATOM
      1 C1          0.0900    0.1030    0.0550 c3        1 HXH      0.162700
      2 N1         -0.3560    0.2520   -1.3750 n4        1 HXH     -0.765000
      3 C2          1.6390    0.1200    0.1270 c3        1 HXH      0.131100
      4 O2          2.0830   -0.9870   -0.6340 oh        1 HXH     -0.626800
      5 C3          2.0580    0.0200    1.6010 c3        1 HXH      0.124100
      6 O3          3.4690   -0.0700    1.5890 oh        1 HXH     -0.601800
      7 C4          1.5920    1.2870    2.3450 c3        1 HXH      0.123300
      8 O4          1.7590    0.9920    3.7210 oh        1 HXH     -0.582800
      9 C5          0.1740    1.6280    2.0140 c2        1 HXH     -0.107200
     10 C6         -0.4890    1.1440    0.9590 c2        1 HXH     -0.239200
     11 C10        -1.7470   -0.2650   -1.6120 c3        1 HXH      0.187100
     12 C11        -2.1580   -0.0320   -3.0200 ca        1 HXH     -0.243300
     13 C12        -1.9390   -1.0200   -3.9880 ca        1 HXH     -0.062500
     14 C13        -2.3520   -0.8240   -5.3010 ca        1 HXH     -0.175500
     15 C14        -2.9930    0.3770   -5.6470 ca        1 HXH      0.186100
     16 C15        -3.2220    1.3780   -4.6780 ca        1 HXH     -0.175500
     17 C16        -2.8030    1.1630   -3.3740 ca        1 HXH     -0.062500
     18 O20        -3.4330    0.6890   -6.9120 os        1 HXH     -0.230200
     19 C21        -3.2910   -0.3020   -7.8950 ca        1 HXH      0.050100
     20 C22        -4.2120   -1.3530   -7.9650 ca        1 HXH     -0.126500
     21 C23        -4.1380   -2.2350   -9.0430 ca        1 HXH     -0.116500
     22 C24        -3.1610   -2.0650  -10.0260 ca        1 HXH     -0.114000
     23 C25        -2.2510   -1.0100   -9.9420 ca        1 HXH     -0.116500
     24 C26        -2.3050   -0.1170   -8.8710 ca        1 HXH     -0.126500
     25 H1         -0.2660   -0.9210    0.3940 hx        1 HXH      0.123700
     26 HN1         0.3010   -0.2760   -1.9690 hn        1 HXH      0.457300
     27 H2          2.0570    1.0670   -0.3190 h1        1 HXH      0.072700
     28 HO2         2.9980   -1.1780   -0.3700 ho        1 HXH      0.467000
     29 H3          1.6160   -0.8960    2.0850 h1        1 HXH      0.083700
     30 HO3         3.7540   -0.1450    2.5120 ho        1 HXH      0.449000
     31 H4          2.2530    2.1560    2.0540 h1        1 HXH      0.079700
     32 HO4         1.6110    1.8090    4.2160 ho        1 HXH      0.427000
     33 H5         -0.3160    2.3290    2.7130 ha        1 HXH      0.162000
     34 H6         -1.5310    1.4470    0.7620 ha        1 HXH      0.151000
     35 H10        -1.7470   -1.3660   -1.3660 hx        1 HXH      0.102700
     36 H10A       -2.4360    0.2670   -0.8950 hx        1 HXH      0.102700
     37 H12        -1.4480   -1.9670   -3.7130 ha        1 HXH      0.139000
     38 H13        -2.1880   -1.6020   -6.0630 ha        1 HXH      0.173000
     39 H15        -3.7340    2.3070   -4.9710 ha        1 HXH      0.173000
     40 H16        -2.9960    1.9330   -2.6110 ha        1 HXH      0.139000
     41 H22        -4.9860   -1.4660   -7.1920 ha        1 HXH      0.151000
     42 H23        -4.8590   -3.0630   -9.1200 ha        1 HXH      0.148500
     43 H24        -3.1130   -2.7630  -10.8760 ha        1 HXH      0.149000
     44 H25        -1.4900   -0.8750  -10.7250 ha        1 HXH      0.148500
     45 H26        -1.6050    0.7280   -8.8000 ha        1 HXH      0.151000
     46 H121       -0.3120    1.2380   -1.6490 hn        1 HXH      0.457300
@<TRIPOS>BOND
     1    1    2 1   
     2    1    3 1   
     3    1   10 1   
     4    1   25 1   
     5    2   11 1   
     6    2   26 1   
     7    2   46 1   
     8    3    4 1   
     9    3    5 1   
    10    3   27 1   
    11    4   28 1   
    12    5    6 1   
    13    5    7 1   
    14    5   29 1   
    15    6   30 1   
    16    7    8 1   
    17    7    9 1   
    18    7   31 1   
    19    8   32 1   
    20    9   10 2   
    21    9   33 1   
    22   10   34 1   
    23   11   12 1   
    24   11   35 1   
    25   11   36 1   
    26   12   13 ar  
    27   12   17 ar  
    28   13   14 ar  
    29   13   37 1   
    30   14   15 ar  
    31   14   38 1   
    32   15   16 ar  
    33   15   18 1   
    34   16   17 ar  
    35   16   39 1   
    36   17   40 1   
    37   18   19 1   
    38   19   20 ar  
    39   19   24 ar  
    40   20   21 ar  
    41   20   41 1   
    42   21   22 ar  
    43   21   42 1   
    44   22   23 ar  
    45   22   43 1   
    46   23   24 ar  
    47   23   44 1   
    48   24   45 1   
@<TRIPOS>SUBSTRUCTURE
     1 HXH         1 TEMP              0 ****  ****    0 ROOT
