@<TRIPOS>MOLECULE
HXH
   46    48     1     0     0
SMALL
bcc


@<TRIPOS>ATOM
      1 C1          0.0930    0.1020    0.0540 c3        1 HXH      0.162700
      2 N1         -0.3530    0.2510   -1.3750 n4        1 HXH     -0.765000
      3 C2          1.6420    0.1150    0.1260 c3        1 HXH      0.131100
      4 O2          2.0840   -0.9930   -0.6340 oh        1 HXH     -0.626800
      5 C3          2.0610    0.0160    1.6000 c3        1 HXH      0.124100
      6 O3          3.4720   -0.0780    1.5870 oh        1 HXH     -0.601800
      7 C4          1.5990    1.2840    2.3430 c3        1 HXH      0.123300
      8 O4          1.7650    0.9900    3.7190 oh        1 HXH     -0.582800
      9 C5          0.1810    1.6280    2.0120 c2        1 HXH     -0.107200
     10 C6         -0.4830    1.1450    0.9580 c2        1 HXH     -0.239200
     11 C10        -1.7450   -0.2630   -1.6120 c3        1 HXH      0.187100
     12 C11        -2.1550   -0.0300   -3.0200 ca        1 HXH     -0.243300
     13 C12        -1.9410   -1.0200   -3.9870 ca        1 HXH     -0.062500
     14 C13        -2.3540   -0.8240   -5.3000 ca        1 HXH     -0.175500
     15 C14        -2.9900    0.3790   -5.6470 ca        1 HXH      0.186100
     16 C15        -3.2160    1.3820   -4.6790 ca        1 HXH     -0.175500
     17 C16        -2.7970    1.1670   -3.3750 ca        1 HXH     -0.062500
     18 O20        -3.4310    0.6910   -6.9120 os        1 HXH     -0.230200
     19 C21        -3.2920   -0.3010   -7.8940 ca        1 HXH      0.050100
     20 C22        -4.2240   -1.3430   -7.9700 ca        1 HXH     -0.126000
     21 C23        -4.1520   -2.2260   -9.0460 ca        1 HXH     -0.116500
     22 C24        -3.1670   -2.0670  -10.0230 ca        1 HXH     -0.114000
     23 C25        -2.2470   -1.0220   -9.9330 ca        1 HXH     -0.116500
     24 C26        -2.2980   -0.1280   -8.8640 ca        1 HXH     -0.126000
     25 H1         -0.2650   -0.9210    0.3940 hx        1 HXH      0.123700
     26 HN1         0.3030   -0.2790   -1.9690 hn        1 HXH      0.457300
     27 H2          2.0630    1.0610   -0.3210 h1        1 HXH      0.072700
     28 HO2         2.9980   -1.1860   -0.3700 ho        1 HXH      0.467000
     29 H3          1.6180   -0.8990    2.0840 h1        1 HXH      0.083700
     30 HO3         3.7570   -0.1520    2.5100 ho        1 HXH      0.449000
     31 H4          2.2620    2.1510    2.0510 h1        1 HXH      0.079700
     32 HO4         1.6200    1.8080    4.2130 ho        1 HXH      0.427000
     33 H5         -0.3060    2.3310    2.7110 ha        1 HXH      0.162000
     34 H6         -1.5240    1.4500    0.7600 ha        1 HXH      0.151000
     35 H10        -2.4330    0.2720   -0.8950 hx        1 HXH      0.102700
     36 H10A       -1.7470   -1.3640   -1.3650 hx        1 HXH      0.102700
     37 H12        -1.4530   -1.9690   -3.7110 ha        1 HXH      0.139000
     38 H13        -2.1940   -1.6030   -6.0610 ha        1 HXH      0.173000
     39 H15        -3.7240    2.3130   -4.9730 ha        1 HXH      0.173000
     40 H16        -2.9860    1.9390   -2.6130 ha        1 HXH      0.139000
     41 H22        -5.0040   -1.4470   -7.2020 ha        1 HXH      0.151000
     42 H23        -4.8810   -3.0470   -9.1270 ha        1 HXH      0.148500
     43 H24        -3.1210   -2.7660  -10.8720 ha        1 HXH      0.149000
     44 H25        -1.4780   -0.8960  -10.7120 ha        1 HXH      0.148500
     45 H26        -1.5900    0.7100   -8.7890 ha        1 HXH      0.151000
     46 H121       -0.3060    1.2370   -1.6510 hn        1 HXH      0.457300
@<TRIPOS>BOND
     1    1    2 1   
     2    1    3 1   
     3    1   10 1   
     4    1   25 1   
     5    2   11 1   
     6    2   26 1   
     7    2   46 1   
     8    3    4 1   
     9    3    5 1   
    10    3   27 1   
    11    4   28 1   
    12    5    6 1   
    13    5    7 1   
    14    5   29 1   
    15    6   30 1   
    16    7    8 1   
    17    7    9 1   
    18    7   31 1   
    19    8   32 1   
    20    9   10 2   
    21    9   33 1   
    22   10   34 1   
    23   11   12 1   
    24   11   35 1   
    25   11   36 1   
    26   12   13 ar  
    27   12   17 ar  
    28   13   14 ar  
    29   13   37 1   
    30   14   15 ar  
    31   14   38 1   
    32   15   16 ar  
    33   15   18 1   
    34   16   17 ar  
    35   16   39 1   
    36   17   40 1   
    37   18   19 1   
    38   19   20 ar  
    39   19   24 ar  
    40   20   21 ar  
    41   20   41 1   
    42   21   22 ar  
    43   21   42 1   
    44   22   23 ar  
    45   22   43 1   
    46   23   24 ar  
    47   23   44 1   
    48   24   45 1   
@<TRIPOS>SUBSTRUCTURE
     1 HXH         1 TEMP              0 ****  ****    0 ROOT
