@<TRIPOS>MOLECULE
HXH
   45    47     1     0     0
SMALL
bcc


@<TRIPOS>ATOM
      1 C1          3.2340   -0.2740   -0.5710 c3        1 HXH      0.209700
      2 N1          1.7820   -0.1540   -0.5220 n3        1 HXH     -0.810200
      3 C2          3.8880    1.1170   -0.3520 c3        1 HXH      0.162100
      4 O2          3.7200    1.8330   -1.5640 oh        1 HXH     -0.586800
      5 C3          5.3920    0.9780   -0.0540 c3        1 HXH      0.111100
      6 O3          5.8850    2.3000    0.1000 oh        1 HXH     -0.610800
      7 C4          5.6040    0.1680    1.2330 c3        1 HXH      0.137300
      8 O4          7.0100   -0.0100    1.3530 oh        1 HXH     -0.603800
      9 C5          4.8640   -1.1250    1.1560 c2        1 HXH     -0.196200
     10 C6          3.7990   -1.3020    0.3740 c2        1 HXH     -0.186200
     11 C10         1.0780   -1.2120   -1.2220 c3        1 HXH      0.214100
     12 C11        -0.3990   -1.2040   -0.9620 ca        1 HXH     -0.119300
     13 C12        -1.1480   -0.0450   -1.1900 ca        1 HXH     -0.093000
     14 C13        -2.5250   -0.0410   -0.9830 ca        1 HXH     -0.164000
     15 C14        -3.1510   -1.2130   -0.5420 ca        1 HXH      0.110100
     16 C15        -2.4130   -2.3840   -0.3060 ca        1 HXH     -0.164000
     17 C16        -1.0380   -2.3680   -0.5210 ca        1 HXH     -0.093000
     18 O20        -4.5290   -1.3380   -0.3980 os        1 HXH     -0.250200
     19 C21        -5.2250   -0.2030    0.0080 ca        1 HXH      0.103100
     20 C22        -6.5120   -0.0550   -0.5340 ca        1 HXH     -0.155500
     21 C23        -7.3090    0.9970   -0.0900 ca        1 HXH     -0.108500
     22 C24        -6.8320    1.8930    0.8680 ca        1 HXH     -0.148000
     23 C25        -5.5500    1.7370    1.3950 ca        1 HXH     -0.108500
     24 C26        -4.7360    0.6880    0.9710 ca        1 HXH     -0.155500
     25 H1          3.5150   -0.5970   -1.6220 h1        1 HXH      0.087700
     26 HN1         1.4640   -0.0690    0.4240 hn        1 HXH      0.364800
     27 H2          3.3960    1.6730    0.4930 h1        1 HXH      0.052700
     28 HO2         4.1440    2.6930   -1.4340 ho        1 HXH      0.417000
     29 H3          5.9180    0.4770   -0.9130 h1        1 HXH      0.067700
     30 HO3         6.8230    2.2180    0.3150 ho        1 HXH      0.425000
     31 H4          5.2360    0.7620    2.1200 h1        1 HXH      0.057700
     32 HO4         7.1600   -0.5870    2.1110 ho        1 HXH      0.409000
     33 H5          5.2520   -1.9350    1.7940 ha        1 HXH      0.129000
     34 H6          3.2720   -2.2720    0.3690 ha        1 HXH      0.129000
     35 H10         1.2480   -1.0460   -2.3270 h1        1 HXH      0.039200
     36 H10A        1.4890   -2.2360   -0.9740 h1        1 HXH      0.039200
     37 H12        -0.6430    0.8700   -1.5400 ha        1 HXH      0.144000
     38 H13        -3.1180    0.8680   -1.1630 ha        1 HXH      0.150000
     39 H15        -2.9270   -3.2940    0.0340 ha        1 HXH      0.150000
     40 H16        -0.4550   -3.2840   -0.3420 ha        1 HXH      0.144000
     41 H22        -6.8740   -0.7700   -1.2850 ha        1 HXH      0.149000
     42 H23        -8.3220    1.1220   -0.5030 ha        1 HXH      0.135500
     43 H24        -7.4680    2.7220    1.2090 ha        1 HXH      0.134000
     44 H25        -5.1760    2.4430    2.1510 ha        1 HXH      0.135500
     45 H26        -3.7240    0.5560    1.3800 ha        1 HXH      0.149000
@<TRIPOS>BOND
     1    1    2 1   
     2    1    3 1   
     3    1   10 1   
     4    1   25 1   
     5    2   11 1   
     6    2   26 1   
     7    3    4 1   
     8    3    5 1   
     9    3   27 1   
    10    4   28 1   
    11    5    6 1   
    12    5    7 1   
    13    5   29 1   
    14    6   30 1   
    15    7    8 1   
    16    7    9 1   
    17    7   31 1   
    18    8   32 1   
    19    9   10 2   
    20    9   33 1   
    21   10   34 1   
    22   11   12 1   
    23   11   35 1   
    24   11   36 1   
    25   12   13 ar  
    26   12   17 ar  
    27   13   14 ar  
    28   13   37 1   
    29   14   15 ar  
    30   14   38 1   
    31   15   16 ar  
    32   15   18 1   
    33   16   17 ar  
    34   16   39 1   
    35   17   40 1   
    36   18   19 1   
    37   19   20 ar  
    38   19   24 ar  
    39   20   21 ar  
    40   20   41 1   
    41   21   22 ar  
    42   21   42 1   
    43   22   23 ar  
    44   22   43 1   
    45   23   24 ar  
    46   23   44 1   
    47   24   45 1   
@<TRIPOS>SUBSTRUCTURE
     1 HXH         1 TEMP              0 ****  ****    0 ROOT
