@<TRIPOS>MOLECULE
HXH
   46    48     1     0     0
SMALL
bcc


@<TRIPOS>ATOM
      1 C1          0.0940    0.1020    0.0540 c3        1 HXH      0.162700
      2 N1         -0.3520    0.2500   -1.3750 ny        1 HXH     -0.765000
      3 C2          1.6430    0.1170    0.1260 c3        1 HXH      0.131100
      4 O2          2.0860   -0.9910   -0.6330 oh        1 HXH     -0.626800
      5 C3          2.0610    0.0180    1.6010 c3        1 HXH      0.124100
      6 O3          3.4720   -0.0740    1.5890 oh        1 HXH     -0.601800
      7 C4          1.5970    1.2850    2.3440 c3        1 HXH      0.123300
      8 O4          1.7620    0.9920    3.7200 oh        1 HXH     -0.582800
      9 C5          0.1790    1.6280    2.0120 c2        1 HXH     -0.107200
     10 C6         -0.4850    1.1440    0.9580 c2        1 HXH     -0.239200
     11 C10        -1.7440   -0.2650   -1.6120 c3        1 HXH      0.187100
     12 C11        -2.1540   -0.0320   -3.0210 ca        1 HXH     -0.243300
     13 C12        -1.9410   -1.0220   -3.9880 ca        1 HXH     -0.062500
     14 C13        -2.3540   -0.8250   -5.3000 ca        1 HXH     -0.175500
     15 C14        -2.9890    0.3780   -5.6480 ca        1 HXH      0.186100
     16 C15        -3.2120    1.3810   -4.6790 ca        1 HXH     -0.175500
     17 C16        -2.7940    1.1660   -3.3760 ca        1 HXH     -0.062500
     18 O20        -3.4280    0.6910   -6.9120 os        1 HXH     -0.230200
     19 C21        -3.2910   -0.3010   -7.8940 ca        1 HXH      0.050100
     20 C22        -4.2240   -1.3420   -7.9690 ca        1 HXH     -0.126000
     21 C23        -4.1540   -2.2250   -9.0460 ca        1 HXH     -0.116500
     22 C24        -3.1700   -2.0670  -10.0230 ca        1 HXH     -0.114000
     23 C25        -2.2480   -1.0230   -9.9350 ca        1 HXH     -0.116500
     24 C26        -2.2980   -0.1290   -8.8650 ca        1 HXH     -0.126000
     25 H1         -0.2630   -0.9220    0.3940 hx        1 HXH      0.123700
     26 HN1         0.3050   -0.2790   -1.9690 hn        1 HXH      0.457300
     27 H2          2.0620    1.0630   -0.3200 h1        1 HXH      0.072700
     28 HO2         3.0000   -1.1820   -0.3690 ho        1 HXH      0.467000
     29 H3          1.6190   -0.8970    2.0850 h1        1 HXH      0.083700
     30 HO3         3.7570   -0.1480    2.5120 ho        1 HXH      0.449000
     31 H4          2.2590    2.1540    2.0520 h1        1 HXH      0.079700
     32 HO4         1.6160    1.8090    4.2140 ho        1 HXH      0.427000
     33 H5         -0.3100    2.3300    2.7120 ha        1 HXH      0.162000
     34 H6         -1.5260    1.4480    0.7600 ha        1 HXH      0.151000
     35 H10        -2.4320    0.2680   -0.8960 hx        1 HXH      0.102700
     36 H10A       -1.7440   -1.3660   -1.3660 hx        1 HXH      0.102700
     37 H12        -1.4540   -1.9710   -3.7120 ha        1 HXH      0.139000
     38 H13        -2.1940   -1.6050   -6.0620 ha        1 HXH      0.173000
     39 H15        -3.7200    2.3130   -4.9730 ha        1 HXH      0.173000
     40 H16        -2.9820    1.9380   -2.6130 ha        1 HXH      0.139000
     41 H22        -5.0030   -1.4460   -7.2010 ha        1 HXH      0.151000
     42 H23        -4.8840   -3.0450   -9.1260 ha        1 HXH      0.148500
     43 H24        -3.1250   -2.7670  -10.8720 ha        1 HXH      0.149000
     44 H25        -1.4810   -0.8980  -10.7140 ha        1 HXH      0.148500
     45 H26        -1.5890    0.7080   -8.7910 ha        1 HXH      0.151000
     46 H121       -0.3060    1.2360   -1.6510 hn        1 HXH      0.457300
@<TRIPOS>BOND
     1    1    2 1   
     2    1    3 1   
     3    1   10 1   
     4    1   25 1   
     5    2   11 1   
     6    2   26 1   
     7    2   46 1   
     8    3    4 1   
     9    3    5 1   
    10    3   27 1   
    11    4   28 1   
    12    5    6 1   
    13    5    7 1   
    14    5   29 1   
    15    6   30 1   
    16    7    8 1   
    17    7    9 1   
    18    7   31 1   
    19    8   32 1   
    20    9   10 2   
    21    9   33 1   
    22   10   34 1   
    23   11   12 1   
    24   11   35 1   
    25   11   36 1   
    26   12   13 ar  
    27   12   17 ar  
    28   13   14 ar  
    29   13   37 1   
    30   14   15 ar  
    31   14   38 1   
    32   15   16 ar  
    33   15   18 1   
    34   16   17 ar  
    35   16   39 1   
    36   17   40 1   
    37   18   19 1   
    38   19   20 ar  
    39   19   24 ar  
    40   20   21 ar  
    41   20   41 1   
    42   21   22 ar  
    43   21   42 1   
    44   22   23 ar  
    45   22   43 1   
    46   23   24 ar  
    47   23   44 1   
    48   24   45 1   
@<TRIPOS>SUBSTRUCTURE
     1 HXH         1 TEMP              0 ****  ****    0 ROOT
