@<TRIPOS>MOLECULE
HXJ
   74    73     1     0     0
SMALL
bcc


@<TRIPOS>ATOM
      1 CAA         1.1410   -0.1870   -0.9040 c3        1 HXJ     -0.095100
      2 CAL         2.5340    0.1480   -0.4370 c3        1 HXJ     -0.078400
      3 CAO         2.6820   -0.0620    1.0550 c3        1 HXJ     -0.081400
      4 CAQ         4.0820    0.2780    1.5200 c3        1 HXJ     -0.079400
      5 CAN         4.2250    0.0590    3.0110 c3        1 HXJ     -0.069200
      6 CAJ         5.5500    0.4040    3.5710 c2        1 HXJ     -0.105200
      7 CAK         6.6150    0.8000    2.8670 c2        1 HXJ     -0.302200
      8 CBA         7.9420    1.0920    3.4920 c3        1 HXJ      0.176300
      9 OAH         9.0080    0.6020    2.6920 oh        1 HXJ     -0.583800
     10 CBB         8.1940    2.6210    3.5450 c3        1 HXJ      0.104500
     11 NAW         7.0800    3.3510    4.2450 n4        1 HXJ     -0.673800
     12 CAZ         7.0550    3.1350    5.7470 c         1 HXJ      0.563100
     13 OAF         6.6230    2.0550    6.1230 o         1 HXJ     -0.442100
     14 CAT         7.5390    4.2880    6.5740 c3        1 HXJ     -0.162400
     15 CAR         7.5310    3.9340    8.0480 c3        1 HXJ     -0.079400
     16 CAP         8.0090    5.1120    8.8710 c3        1 HXJ     -0.081400
     17 CAM         8.0180    4.7690   10.3470 c3        1 HXJ     -0.078400
     18 CAB         8.4890    5.9360   11.1750 c3        1 HXJ     -0.096100
     19 CAV         9.5610    2.9280    4.1910 c3        1 HXJ      0.158400
     20 OAY         9.6970    4.3120    4.2890 os        1 HXJ     -0.593200
     21 PBD        11.0900    4.9780    3.7050 p5        1 HXJ      1.421800
     22 OAI        12.0450    3.8950    3.4510 o         1 HXJ     -0.795500
     23 OAG        11.3130    6.2680    4.3760 o         1 HXJ     -0.795500
     24 OAX        10.5370    5.4560    2.2050 os        1 HXJ     -0.588200
     25 CAS        11.4710    5.4280    1.1800 c3        1 HXJ      0.171400
     26 CAU        11.6690    6.8190    0.5510 c3        1 HXJ      0.086800
     27 NBC        12.2290    7.9030    1.4330 n4        1 HXJ     -0.589800
     28 CAD        12.7320    9.0040    0.5580 c3        1 HXJ      0.080767
     29 CAE        11.1610    8.4470    2.3260 c3        1 HXJ      0.080767
     30 CAC        13.3580    7.3930    2.2650 c3        1 HXJ      0.080767
     31 H1          1.0530   -0.0260   -2.0050 hc        1 HXJ      0.039033
     32 H2          0.3860    0.4570   -0.3920 hc        1 HXJ      0.039033
     33 H3          0.8970   -1.2550   -0.6830 hc        1 HXJ      0.039033
     34 H4          3.2780   -0.4930   -0.9800 hc        1 HXJ      0.038200
     35 H5          2.7690    1.2160   -0.6900 hc        1 HXJ      0.038200
     36 H6          1.9370    0.5760    1.6000 hc        1 HXJ      0.045700
     37 H7          2.4510   -1.1310    1.3080 hc        1 HXJ      0.045700
     38 H8          4.8240   -0.3600    0.9710 hc        1 HXJ      0.039700
     39 H9          4.3110    1.3470    1.2690 hc        1 HXJ      0.039700
     40 H10         4.0210   -1.0240    3.2470 hc        1 HXJ      0.070200
     41 H11         3.4400    0.6570    3.5530 hc        1 HXJ      0.070200
     42 H12         5.6170    0.2970    4.6730 ha        1 HXJ      0.137000
     43 H13         6.5980    0.8880    1.7680 ha        1 HXJ      0.153000
     44 H14         8.0170    0.6570    4.5300 h1        1 HXJ      0.067700
     45 H15         8.8390   -0.3380    2.5430 ho        1 HXJ      0.435000
     46 H16         8.2050    3.0130    2.4820 hx        1 HXJ      0.115700
     47 H17         7.2290    4.3520    4.0650 hn        1 HXJ      0.462300
     48 H18         6.8750    5.1770    6.3870 hc        1 HXJ      0.117700
     49 H19         8.5840    4.5670    6.2450 hc        1 HXJ      0.117700
     50 H20         6.4950    3.6400    8.3640 hc        1 HXJ      0.064200
     51 H21         8.1960    3.0480    8.2270 hc        1 HXJ      0.064200
     52 H22         9.0430    5.4070    8.5480 hc        1 HXJ      0.050200
     53 H23         7.3400    5.9950    8.6950 hc        1 HXJ      0.050200
     54 H24         8.6880    3.8870   10.5220 hc        1 HXJ      0.045200
     55 H25         6.9850    4.4700   10.6690 hc        1 HXJ      0.045200
     56 H26         8.4910    5.6630   12.2580 hc        1 HXJ      0.040700
     57 H27         7.8180    6.8180   11.0350 hc        1 HXJ      0.040700
     58 H28         9.5260    6.2340   10.8850 hc        1 HXJ      0.040700
     59 H29         9.5940    2.4760    5.2240 h1        1 HXJ      0.094700
     60 H30        10.3740    2.4690    3.5530 h1        1 HXJ      0.094700
     61 H32        12.4500    4.9950    1.5320 h1        1 HXJ      0.072200
     62 H33        11.0690    4.7860    0.3410 h1        1 HXJ      0.072200
     63 H34        12.3750    6.6930   -0.3190 hx        1 HXJ      0.088200
     64 H35        10.6730    7.1870    0.1740 hx        1 HXJ      0.088200
     65 H36        13.0570    9.8660    1.1990 hx        1 HXJ      0.102367
     66 H37        11.9110    9.3390   -0.1290 hx        1 HXJ      0.102367
     67 H38        13.6040    8.6380   -0.0440 hx        1 HXJ      0.102367
     68 H39        10.7430    7.6000    2.9550 hx        1 HXJ      0.102367
     69 H40        11.6100    9.2160    3.0070 hx        1 HXJ      0.102367
     70 H41        10.3540    8.9050    1.7000 hx        1 HXJ      0.102367
     71 H42        14.0700    6.8200    1.6170 hx        1 HXJ      0.102367
     72 H43        13.8850    8.2590    2.7440 hx        1 HXJ      0.102367
     73 H44        12.9420    6.7280    3.0820 hx        1 HXJ      0.102367
     74 HAW2        6.1900    3.0350    3.8400 hn        1 HXJ      0.462300
@<TRIPOS>BOND
     1    1    2 1   
     2    1   31 1   
     3    1   32 1   
     4    1   33 1   
     5    2    3 1   
     6    2   34 1   
     7    2   35 1   
     8    3    4 1   
     9    3   36 1   
    10    3   37 1   
    11    4    5 1   
    12    4   38 1   
    13    4   39 1   
    14    5    6 1   
    15    5   40 1   
    16    5   41 1   
    17    6    7 2   
    18    6   42 1   
    19    7    8 1   
    20    7   43 1   
    21    8    9 1   
    22    8   10 1   
    23    8   44 1   
    24    9   45 1   
    25   10   11 1   
    26   10   19 1   
    27   10   46 1   
    28   11   12 1   
    29   11   47 1   
    30   11   74 1   
    31   12   13 2   
    32   12   14 1   
    33   14   15 1   
    34   14   48 1   
    35   14   49 1   
    36   15   16 1   
    37   15   50 1   
    38   15   51 1   
    39   16   17 1   
    40   16   52 1   
    41   16   53 1   
    42   17   18 1   
    43   17   54 1   
    44   17   55 1   
    45   18   56 1   
    46   18   57 1   
    47   18   58 1   
    48   19   20 1   
    49   19   59 1   
    50   19   60 1   
    51   20   21 1   
    52   21   22 1   
    53   21   23 1   
    54   21   24 1   
    55   24   25 1   
    56   25   26 1   
    57   25   61 1   
    58   25   62 1   
    59   26   27 1   
    60   26   63 1   
    61   26   64 1   
    62   27   28 1   
    63   27   29 1   
    64   27   30 1   
    65   28   65 1   
    66   28   66 1   
    67   28   67 1   
    68   29   68 1   
    69   29   69 1   
    70   29   70 1   
    71   30   71 1   
    72   30   72 1   
    73   30   73 1   
@<TRIPOS>SUBSTRUCTURE
     1 HXJ         1 TEMP              0 ****  ****    0 ROOT
