@<TRIPOS>MOLECULE
HXL
   48    51     1     0     0
SMALL
bcc


@<TRIPOS>ATOM
      1 N1          0.4450    0.3920    0.0650 n2        1 HXL     -0.671100
      2 N2          2.4110   -1.0870   -0.3150 n4        1 HXL     -0.892600
      3 C1          1.5530   -0.0720    0.4580 ce        1 HXL      0.637800
      4 C2          2.2270    0.2880    1.7260 ca        1 HXL     -0.245900
      5 C3          2.6050    1.6150    1.9260 ca        1 HXL      0.007000
      6 C4          3.2060    1.9410    3.1470 ca        1 HXL      0.061400
      7 N3          3.6910    3.1690    3.6320 nc        1 HXL     -0.535100
      8 C5          4.1490    2.9090    4.8790 cd        1 HXL      0.491400
      9 N4          3.9850    1.5450    5.2440 na        1 HXL     -0.262300
     10 C6          3.3930    0.9100    4.1600 ca        1 HXL     -0.032200
     11 C7          2.9850   -0.4150    3.9340 ca        1 HXL     -0.107000
     12 C8          2.4040   -0.7080    2.7140 ca        1 HXL     -0.104000
     13 C9          4.7610    3.8830    5.7870 ca        1 HXL     -0.127900
     14 C10         5.5850    4.8860    5.2570 ca        1 HXL     -0.079000
     15 C11         6.1860    5.8160    6.1030 ca        1 HXL     -0.132000
     16 C12         5.9560    5.7260    7.4820 ca        1 HXL      0.089100
     17 C13         5.1220    4.7400    8.0230 ca        1 HXL     -0.132000
     18 C14         4.5250    3.8180    7.1670 ca        1 HXL     -0.079000
     19 O1          6.7230    6.5580    8.3030 os        1 HXL     -0.228200
     20 C15         6.0610    7.4410    9.1270 ca        1 HXL      0.182100
     21 C16         4.6890    7.7250    9.0580 ca        1 HXL     -0.166000
     22 C17         4.1460    8.6720    9.9200 ca        1 HXL     -0.056500
     23 C18         4.9650    9.3320   10.8450 ca        1 HXL     -0.305900
     24 C19         6.3370    9.0390   10.9140 ca        1 HXL     -0.056500
     25 C20         6.8920    8.0980   10.0620 ca        1 HXL     -0.166000
     26 C21         4.3660   10.2980   11.7840 ce        1 HXL      0.596800
     27 N5          3.5190   10.1570   12.7280 n2        1 HXL     -0.708100
     28 N6          4.8710   11.7000   11.5430 n4        1 HXL     -0.825600
     29 HN1         0.0060    0.1580   -0.7980 hn        1 HXL      0.466400
     30 HN21        3.2620   -0.6150   -0.6380 hn        1 HXL      0.457800
     31 HN22        2.6830   -1.8390    0.3260 hn        1 HXL      0.457800
     32 H3          2.4310    2.3920    1.1650 ha        1 HXL      0.172000
     33 HN4         4.2690    1.1280    6.0930 hn        1 HXL      0.325700
     34 H7          3.1120   -1.1910    4.7040 ha        1 HXL      0.166000
     35 H8          2.0420   -1.7320    2.5320 ha        1 HXL      0.137000
     36 H10         5.7600    4.9460    4.1700 ha        1 HXL      0.159000
     37 H11         6.8510    6.5970    5.7020 ha        1 HXL      0.164000
     38 H13         4.9540    4.6890    9.1090 ha        1 HXL      0.164000
     39 H14         3.8610    3.0480    7.5900 ha        1 HXL      0.159000
     40 H16         4.0500    7.2030    8.3290 ha        1 HXL      0.178500
     41 H17         3.0680    8.8960    9.8680 ha        1 HXL      0.149500
     42 H19         6.9790    9.5320   11.6610 ha        1 HXL      0.149500
     43 H20         7.9650    7.8500   10.1020 ha        1 HXL      0.178500
     44 HN5         3.1700    9.2420   12.9270 hn        1 HXL      0.490400
     45 HN61        5.8960   11.6770   11.5560 hn        1 HXL      0.470800
     46 HN62        4.5530   12.0030   10.6170 hn        1 HXL      0.470800
     47 H23         1.9270   -1.4900   -1.1190 hn        1 HXL      0.457800
     48 H63         4.5320   12.3620   12.2530 hn        1 HXL      0.470800
@<TRIPOS>BOND
     1    1    3 2   
     2    1   29 1   
     3    2    3 1   
     4    2   30 1   
     5    2   31 1   
     6    2   47 1   
     7    3    4 1   
     8    4    5 ar  
     9    4   12 ar  
    10    5    6 ar  
    11    5   32 1   
    12    6    7 1   
    13    6   10 ar  
    14    7    8 2   
    15    8    9 1   
    16    8   13 1   
    17    9   10 1   
    18    9   33 1   
    19   10   11 ar  
    20   11   12 ar  
    21   11   34 1   
    22   12   35 1   
    23   13   14 ar  
    24   13   18 ar  
    25   14   15 ar  
    26   14   36 1   
    27   15   16 ar  
    28   15   37 1   
    29   16   17 ar  
    30   16   19 1   
    31   17   18 ar  
    32   17   38 1   
    33   18   39 1   
    34   19   20 1   
    35   20   21 ar  
    36   20   25 ar  
    37   21   22 ar  
    38   21   40 1   
    39   22   23 ar  
    40   22   41 1   
    41   23   24 ar  
    42   23   26 1   
    43   24   25 ar  
    44   24   42 1   
    45   25   43 1   
    46   26   27 2   
    47   26   28 1   
    48   27   44 1   
    49   28   45 1   
    50   28   46 1   
    51   28   48 1   
@<TRIPOS>SUBSTRUCTURE
     1 HXL         1 TEMP              0 ****  ****    0 ROOT
