@<TRIPOS>MOLECULE
HXL
   46    38     1     0     0
SMALL
bcc


@<TRIPOS>ATOM
      1 N1         -3.5220    0.3380   -5.4190 n1        1 HXL     -0.290000
      2 N2         -5.0120   -1.3260   -4.6510 n3        1 HXL     -0.395000
      3 C1         -3.8740   -0.4970   -4.4760 c2        1 HXL      0.127000
      4 C2         -3.0660   -0.5790   -3.1980 c2        1 HXL     -0.084000
      5 C3         -2.9020    0.6620   -2.6020 c1        1 HXL     -0.025000
      6 C4         -1.6270    1.2570   -2.5560 c1        1 HXL     -0.082000
      7 N3         -1.1930    2.4360   -2.0450 n1        1 HXL     -0.124000
      8 C5          0.1450    2.5240   -2.2680 c2        1 HXL      0.057000
      9 N4          0.5390    1.3960   -2.9170 n2        1 HXL     -0.237000
     10 C6         -0.5530    0.6120   -3.0960 c1        1 HXL     -0.015000
     11 C7         -0.7200   -0.6480   -3.7010 c1        1 HXL     -0.144000
     12 C8         -1.9760   -1.2340   -3.7470 c2        1 HXL     -0.090000
     13 C9          0.6590    2.5310   -0.9820 c1        1 HXL     -0.050000
     14 C10         1.9780    2.1650   -0.7620 c1        1 HXL     -0.135500
     15 C11         2.4690    2.0870    0.5310 c1        1 HXL     -0.135500
     16 C12         1.6410    2.3740    1.6050 c1        1 HXL      0.075000
     17 C13         0.3230    2.7390    1.3860 c1        1 HXL     -0.147000
     18 C14        -0.1680    2.8170    0.0920 c1        1 HXL     -0.063000
     19 O1          2.1100    2.1960    2.9190 os        1 HXL     -0.155000
     20 C15         2.0060    0.8370    3.2730 c2        1 HXL      0.070000
     21 C16         0.9200    0.3950    4.0110 c2        1 HXL     -0.177000
     22 C17         0.8140   -0.9440    4.3550 c1        1 HXL     -0.091000
     23 C18         1.7960   -1.8400    3.9610 c1        1 HXL     -0.133000
     24 C19         2.8820   -1.3980    3.2230 c1        1 HXL     -0.075000
     25 C20         2.9880   -0.0590    2.8790 c1        1 HXL     -0.145000
     26 C21         1.6550   -3.3110    4.2920 c2        1 HXL      0.117000
     27 N5          1.0880   -4.1220    3.4390 n1        1 HXL     -0.302000
     28 N6          2.1380   -3.8090    5.5290 n3        1 HXL     -0.331000
     29 HN1        -4.0090    0.3880   -6.1910 DU        1 HXL      0.181000
     30 HN21       -5.2850   -1.5560   -5.4920 hn        1 HXL      0.191500
     31 HN22       -5.4800   -1.6190   -3.9220 hn        1 HXL      0.191500
     32 H3         -3.6720    1.1280   -2.2260 ha        1 HXL      0.164000
     33 HN4         1.3880    1.2010   -3.1860 DU        1 HXL      0.181000
     34 H7          0.0480   -1.1090   -4.0880 ha        1 HXL      0.138000
     35 H8         -2.0950   -2.0980   -4.1840 ha        1 HXL      0.146000
     36 H10         2.5610    1.9630   -1.5190 ha        1 HXL      0.144000
     37 H11         3.3980    1.8300    0.6860 ha        1 HXL      0.144000
     38 H13        -0.2600    2.9410    2.1420 ha        1 HXL      0.158000
     39 H14        -1.0970    3.0750   -0.0630 ha        1 HXL      0.163000
     40 H16         0.2290    1.0260    4.2890 ha        1 HXL      0.151000
     41 H17         0.0490   -1.2560    4.8750 ha        1 HXL      0.143000
     42 H19         3.5740   -2.0290    2.9450 ha        1 HXL      0.156000
     43 H20         3.7530    0.2530    2.3590 ha        1 HXL      0.157000
     44 HN5         0.7770   -3.8010    2.6420 DU        1 HXL      0.181000
     45 HN61        2.4930   -3.2350    6.1450 hn        1 HXL      0.195000
     46 HN62        2.0920   -4.7030    5.7110 hn        1 HXL      0.195000
@<TRIPOS>BOND
     1    1    3 1   
     2    2    3 1   
     3    2   30 1   
     4    2   31 1   
     5    3    4 1   
     6    4    5 1   
     7    4   12 1   
     8    5   32 1   
     9    6   10 1   
    10    7    8 1   
    11    8    9 1   
    12    8   13 1   
    13    9   10 1   
    14   11   12 1   
    15   11   34 1   
    16   12   35 1   
    17   13   18 1   
    18   14   15 1   
    19   14   36 1   
    20   15   37 1   
    21   16   17 1   
    22   16   19 1   
    23   17   38 1   
    24   18   39 1   
    25   19   20 1   
    26   20   21 1   
    27   20   25 1   
    28   21   22 1   
    29   21   40 1   
    30   22   41 1   
    31   23   24 1   
    32   23   26 1   
    33   24   42 1   
    34   25   43 1   
    35   26   27 1   
    36   26   28 1   
    37   28   45 1   
    38   28   46 1   
@<TRIPOS>SUBSTRUCTURE
     1 HXL         1 TEMP              0 ****  ****    0 ROOT
