@<TRIPOS>MOLECULE
HXL
   46    49     1     0     0
SMALL
bcc


@<TRIPOS>ATOM
      1 N1         42.3790   63.2020    9.3010 n2        1 HXL     -0.823100
      2 N2         39.9500   63.1010    9.3310 nh        1 HXL     -0.956800
      3 C1         41.2060   63.7360    9.4630 ce        1 HXL      0.650800
      4 C2         41.1220   65.2050    9.7520 ca        1 HXL     -0.168900
      5 C3         41.8540   65.7280   10.8120 ca        1 HXL     -0.026000
      6 C4         41.7510   67.1030   11.0680 ca        1 HXL      0.057400
      7 N3         42.3500   67.9060   12.0560 nc        1 HXL     -0.554100
      8 C5         41.9030   69.1620   11.8250 cd        1 HXL      0.469400
      9 N4         41.0240   69.2270   10.7130 na        1 HXL     -0.279300
     10 C6         40.9100   67.9300   10.2170 ca        1 HXL     -0.060200
     11 C7         40.1940   67.3800    9.1460 ca        1 HXL     -0.143000
     12 C8         40.3120   66.0160    8.9300 ca        1 HXL     -0.091000
     13 C9         42.2500   70.3520   12.6040 ca        1 HXL     -0.137900
     14 C10        42.5090   70.2230   13.9760 ca        1 HXL     -0.077000
     15 C11        42.8410   71.3420   14.7350 ca        1 HXL     -0.164500
     16 C12        42.9180   72.5930   14.1130 ca        1 HXL      0.123100
     17 C13        42.6720   72.7350   12.7370 ca        1 HXL     -0.164500
     18 C14        42.3380   71.6100   11.9920 ca        1 HXL     -0.077000
     19 O1         43.1440   73.7780   14.8020 os        1 HXL     -0.247200
     20 C15        43.9790   73.7150   15.9140 ca        1 HXL      0.111100
     21 C16        45.1290   72.9190   15.9600 ca        1 HXL     -0.162500
     22 C17        45.9660   73.0000   17.0720 ca        1 HXL     -0.077500
     23 C18        45.6500   73.8630   18.1270 ca        1 HXL     -0.158900
     24 C19        44.5030   74.6620   18.0650 ca        1 HXL     -0.077500
     25 C20        43.6570   74.5910   16.9620 ca        1 HXL     -0.162500
     26 C21        46.5580   73.9420   19.3160 ce        1 HXL      0.651800
     27 N5         47.8290   74.1150   19.1120 n2        1 HXL     -0.824100
     28 N6         45.8900   73.8860   20.5590 nh        1 HXL     -0.958800
     29 HN1        42.4000   62.2220    9.1140 hn        1 HXL      0.381400
     30 HN21       39.9340   62.1170    9.4670 hn        1 HXL      0.396300
     31 HN22       39.1870   63.5810    9.7490 hn        1 HXL      0.396300
     32 H3         42.5060   65.0930   11.4290 ha        1 HXL      0.163000
     33 HN4        40.5650   70.0300   10.3780 hn        1 HXL      0.307700
     34 H7         39.5680   68.0060    8.4970 ha        1 HXL      0.138000
     35 H8         39.7710   65.5570    8.0870 ha        1 HXL      0.146000
     36 H10        42.4510   69.2340   14.4590 ha        1 HXL      0.148500
     37 H11        43.0450   71.2460   15.8120 ha        1 HXL      0.154500
     38 H13        42.7430   73.7270   12.2700 ha        1 HXL      0.154500
     39 H14        42.1650   71.7210   10.9110 ha        1 HXL      0.148500
     40 H16        45.3700   72.2450   15.1250 ha        1 HXL      0.153500
     41 H17        46.8840   72.3930   17.1090 ha        1 HXL      0.152000
     42 H19        44.2680   75.3610   18.8830 ha        1 HXL      0.152000
     43 H20        42.7560   75.2170   16.8950 ha        1 HXL      0.153500
     44 HN5        48.4080   74.1630   19.9230 hn        1 HXL      0.384400
     45 HN61       46.4360   73.6280   21.3480 hn        1 HXL      0.398300
     46 HN62       44.9840   73.4810   20.5390 hn        1 HXL      0.398300
@<TRIPOS>BOND
     1    1    3 2   
     2    1   29 1   
     3    2    3 1   
     4    2   30 1   
     5    2   31 1   
     6    3    4 1   
     7    4    5 ar  
     8    4   12 ar  
     9    5    6 ar  
    10    5   32 1   
    11    6    7 1   
    12    6   10 ar  
    13    7    8 2   
    14    8    9 1   
    15    8   13 1   
    16    9   10 1   
    17    9   33 1   
    18   10   11 ar  
    19   11   12 ar  
    20   11   34 1   
    21   12   35 1   
    22   13   14 ar  
    23   13   18 ar  
    24   14   15 ar  
    25   14   36 1   
    26   15   16 ar  
    27   15   37 1   
    28   16   17 ar  
    29   16   19 1   
    30   17   18 ar  
    31   17   38 1   
    32   18   39 1   
    33   19   20 1   
    34   20   21 ar  
    35   20   25 ar  
    36   21   22 ar  
    37   21   40 1   
    38   22   23 ar  
    39   22   41 1   
    40   23   24 ar  
    41   23   26 1   
    42   24   25 ar  
    43   24   42 1   
    44   25   43 1   
    45   26   27 2   
    46   26   28 1   
    47   27   44 1   
    48   28   45 1   
    49   28   46 1   
@<TRIPOS>SUBSTRUCTURE
     1 HXL         1 TEMP              0 ****  ****    0 ROOT
