@<TRIPOS>MOLECULE
HXL
   48    51     1     0     0
SMALL
bcc


@<TRIPOS>ATOM
      1 N1          0.3740    0.3410    0.1460 n2        1 HXL     -0.671100
      2 N2          2.3760   -1.0610   -0.3280 n4        1 HXL     -0.892600
      3 C1          1.5110   -0.0880    0.4910 ce        1 HXL      0.637800
      4 C2          2.2180    0.2790    1.7390 ca        1 HXL     -0.245900
      5 C3          2.5560    1.6160    1.9450 ca        1 HXL      0.007000
      6 C4          3.1890    1.9480    3.1470 ca        1 HXL      0.061400
      7 N3          3.6480    3.1860    3.6330 nc        1 HXL     -0.535100
      8 C5          4.1600    2.9250    4.8580 cd        1 HXL      0.491400
      9 N4          4.0590    1.5520    5.2090 na        1 HXL     -0.261300
     10 C6          3.4500    0.9100    4.1380 ca        1 HXL     -0.032200
     11 C7          3.0820   -0.4250    3.9080 ca        1 HXL     -0.107000
     12 C8          2.4670   -0.7230    2.7050 ca        1 HXL     -0.104000
     13 C9          4.7710    3.9090    5.7570 ca        1 HXL     -0.127900
     14 C10         5.5380    4.9480    5.2130 ca        1 HXL     -0.079000
     15 C11         6.1370    5.8880    6.0500 ca        1 HXL     -0.132000
     16 C12         5.9600    5.7720    7.4340 ca        1 HXL      0.089100
     17 C13         5.1810    4.7500    7.9910 ca        1 HXL     -0.132000
     18 C14         4.5860    3.8180    7.1440 ca        1 HXL     -0.079000
     19 O1          6.7260    6.6200    8.2400 os        1 HXL     -0.228200
     20 C15         6.0620    7.4700    9.0970 ca        1 HXL      0.182100
     21 C16         4.6810    7.7080    9.0780 ca        1 HXL     -0.166000
     22 C17         4.1350    8.6260    9.9690 ca        1 HXL     -0.056500
     23 C18         4.9620    9.3040   10.8740 ca        1 HXL     -0.305900
     24 C19         6.3450    9.0570   10.8930 ca        1 HXL     -0.056500
     25 C20         6.9020    8.1450   10.0110 ca        1 HXL     -0.166000
     26 C21         4.3630   10.2380   11.8440 ce        1 HXL      0.596800
     27 N5          3.5540   10.0570   12.8140 n2        1 HXL     -0.708100
     28 N6          4.8120   11.6590   11.6040 n4        1 HXL     -0.825600
     29 HN1        -0.0880    0.1030   -0.7050 hn        1 HXL      0.466400
     30 HN21        1.8770   -1.4700   -1.1190 hn        1 HXL      0.457800
     31 HN22        2.6980   -1.8120    0.2920 hn        1 HXL      0.457800
     32 H3          2.3270    2.3960    1.2010 ha        1 HXL      0.172000
     33 HN4         4.3890    1.1350    6.0410 hn        1 HXL      0.325700
     34 H7          3.2650   -1.2060    4.6610 ha        1 HXL      0.166000
     35 H8          2.1350   -1.7570    2.5220 ha        1 HXL      0.137000
     36 H10         5.6720    5.0280    4.1210 ha        1 HXL      0.159000
     37 H11         6.7590    6.6970    5.6370 ha        1 HXL      0.164000
     38 H13         5.0540    4.6790    9.0820 ha        1 HXL      0.164000
     39 H14         3.9650    3.0190    7.5790 ha        1 HXL      0.159000
     40 H16         4.0340    7.1720    8.3640 ha        1 HXL      0.178500
     41 H17         3.0490    8.8140    9.9570 ha        1 HXL      0.149500
     42 H19         6.9950    9.5640   11.6240 ha        1 HXL      0.149500
     43 H20         7.9840    7.9340   10.0110 ha        1 HXL      0.178500
     44 HN5         3.2420    9.1290   13.0130 hn        1 HXL      0.490400
     45 HN61        4.4750   12.3010   12.3340 hn        1 HXL      0.470800
     46 HN62        5.8370   11.6700   11.5820 hn        1 HXL      0.470800
     47 H23         3.1970   -0.5540   -0.6730 hn        1 HXL      0.457800
     48 H63         4.4520   11.9610   10.6930 hn        1 HXL      0.470800
@<TRIPOS>BOND
     1    1    3 2   
     2    1   29 1   
     3    2    3 1   
     4    2   30 1   
     5    2   31 1   
     6    2   47 1   
     7    3    4 1   
     8    4    5 ar  
     9    4   12 ar  
    10    5    6 ar  
    11    5   32 1   
    12    6    7 1   
    13    6   10 ar  
    14    7    8 2   
    15    8    9 1   
    16    8   13 1   
    17    9   10 1   
    18    9   33 1   
    19   10   11 ar  
    20   11   12 ar  
    21   11   34 1   
    22   12   35 1   
    23   13   14 ar  
    24   13   18 ar  
    25   14   15 ar  
    26   14   36 1   
    27   15   16 ar  
    28   15   37 1   
    29   16   17 ar  
    30   16   19 1   
    31   17   18 ar  
    32   17   38 1   
    33   18   39 1   
    34   19   20 1   
    35   20   21 ar  
    36   20   25 ar  
    37   21   22 ar  
    38   21   40 1   
    39   22   23 ar  
    40   22   41 1   
    41   23   24 ar  
    42   23   26 1   
    43   24   25 ar  
    44   24   42 1   
    45   25   43 1   
    46   26   27 2   
    47   26   28 1   
    48   27   44 1   
    49   28   45 1   
    50   28   46 1   
    51   28   48 1   
@<TRIPOS>SUBSTRUCTURE
     1 HXL         1 TEMP              0 ****  ****    0 ROOT
