@<TRIPOS>MOLECULE
HXL
   48    51     1     0     0
SMALL
bcc


@<TRIPOS>ATOM
      1 N1          0.3990    0.3500    0.1210 n2        1 HXL     -0.671100
      2 N2          2.3930   -1.0730   -0.3230 nz        1 HXL     -0.892600
      3 C1          1.5290   -0.0880    0.4810 ce        1 HXL      0.637800
      4 C2          2.2250    0.2790    1.7350 ca        1 HXL     -0.245900
      5 C3          2.5740    1.6130    1.9380 ca        1 HXL      0.007000
      6 C4          3.1970    1.9450    3.1460 ca        1 HXL      0.061400
      7 N3          3.6620    3.1810    3.6310 nc        1 HXL     -0.535100
      8 C5          4.1580    2.9220    4.8630 cd        1 HXL      0.491400
      9 N4          4.0400    1.5510    5.2190 na        1 HXL     -0.262300
     10 C6          3.4370    0.9100    4.1450 ca        1 HXL     -0.032200
     11 C7          3.0590   -0.4230    3.9170 ca        1 HXL     -0.107000
     12 C8          2.4540   -0.7210    2.7090 ca        1 HXL     -0.104000
     13 C9          4.7680    3.9040    5.7640 ca        1 HXL     -0.127900
     14 C10         5.5510    4.9340    5.2230 ca        1 HXL     -0.079000
     15 C11         6.1500    5.8720    6.0620 ca        1 HXL     -0.132000
     16 C12         5.9570    5.7630    7.4450 ca        1 HXL      0.089100
     17 C13         5.1630    4.7510    7.9980 ca        1 HXL     -0.132000
     18 C14         4.5690    3.8210    7.1490 ca        1 HXL     -0.079000
     19 O1          6.7230    6.6080    8.2540 os        1 HXL     -0.228200
     20 C15         6.0590    7.4660    9.1030 ca        1 HXL      0.182100
     21 C16         4.6790    7.7140    9.0730 ca        1 HXL     -0.165500
     22 C17         4.1340    8.6390    9.9570 ca        1 HXL     -0.056500
     23 C18         4.9590    9.3120   10.8670 ca        1 HXL     -0.305900
     24 C19         6.3390    9.0550   10.8980 ca        1 HXL     -0.056500
     25 C20         6.8970    8.1360   10.0230 ca        1 HXL     -0.165500
     26 C21         4.3590   10.2530   11.8300 ce        1 HXL      0.596800
     27 N5          3.5410   10.0810   12.7940 n2        1 HXL     -0.708100
     28 N6          4.8210   11.6700   11.5910 nz        1 HXL     -0.825600
     29 HN1        -0.0560    0.1120   -0.7330 hn        1 HXL      0.466400
     30 HN21        3.2220   -0.5760   -0.6630 hn        1 HXL      0.457800
     31 HN22        2.7010   -1.8230    0.3040 hn        1 HXL      0.457800
     32 H3          2.3600    2.3920    1.1880 ha        1 HXL      0.172000
     33 HN4         4.3570    1.1350    6.0560 hn        1 HXL      0.325700
     34 H7          3.2250   -1.2020    4.6760 ha        1 HXL      0.166000
     35 H8          2.1140   -1.7530    2.5270 ha        1 HXL      0.137000
     36 H10         5.6960    5.0080    4.1320 ha        1 HXL      0.159000
     37 H11         6.7830    6.6740    5.6510 ha        1 HXL      0.164000
     38 H13         5.0250    4.6860    9.0880 ha        1 HXL      0.164000
     39 H14         3.9370    3.0300    7.5810 ha        1 HXL      0.159000
     40 H16         4.0350    7.1820    8.3550 ha        1 HXL      0.178500
     41 H17         3.0490    8.8340    9.9350 ha        1 HXL      0.149500
     42 H19         6.9870    9.5580   11.6330 ha        1 HXL      0.149500
     43 H20         7.9770    7.9170   10.0330 ha        1 HXL      0.178500
     44 HN5         3.2210    9.1550   12.9930 hn        1 HXL      0.490400
     45 HN61        5.8460   11.6740   11.5760 hn        1 HXL      0.470800
     46 HN62        4.4700   11.9720   10.6760 hn        1 HXL      0.470800
     47 H23         1.8990   -1.4820   -1.1180 hn        1 HXL      0.457800
     48 H63         4.4830   12.3160   12.3160 hn        1 HXL      0.470800
@<TRIPOS>BOND
     1    1    3 2   
     2    1   29 1   
     3    2    3 1   
     4    2   30 1   
     5    2   31 1   
     6    2   47 1   
     7    3    4 1   
     8    4    5 ar  
     9    4   12 ar  
    10    5    6 ar  
    11    5   32 1   
    12    6    7 1   
    13    6   10 ar  
    14    7    8 2   
    15    8    9 1   
    16    8   13 1   
    17    9   10 1   
    18    9   33 1   
    19   10   11 ar  
    20   11   12 ar  
    21   11   34 1   
    22   12   35 1   
    23   13   14 ar  
    24   13   18 ar  
    25   14   15 ar  
    26   14   36 1   
    27   15   16 ar  
    28   15   37 1   
    29   16   17 ar  
    30   16   19 1   
    31   17   18 ar  
    32   17   38 1   
    33   18   39 1   
    34   19   20 1   
    35   20   21 ar  
    36   20   25 ar  
    37   21   22 ar  
    38   21   40 1   
    39   22   23 ar  
    40   22   41 1   
    41   23   24 ar  
    42   23   26 1   
    43   24   25 ar  
    44   24   42 1   
    45   25   43 1   
    46   26   27 2   
    47   26   28 1   
    48   27   44 1   
    49   28   45 1   
    50   28   46 1   
    51   28   48 1   
@<TRIPOS>SUBSTRUCTURE
     1 HXL         1 TEMP              0 ****  ****    0 ROOT
