@<TRIPOS>MOLECULE
HXP
   34    36     1     0     0
SMALL
bcc


@<TRIPOS>ATOM
      1 C1          0.3840   -0.5360    0.1880 ca        1 HXP     -0.058000
      2 C2          1.7540   -0.2940    0.1710 ca        1 HXP     -0.211000
      3 C3          2.3530    0.3450    1.2670 ca        1 HXP      0.123600
      4 O3          3.7070    0.6090    1.3170 oh        1 HXP     -0.509600
      5 C4          1.5970    0.7530    2.3710 ca        1 HXP     -0.218000
      6 C4A         0.2180    0.4950    2.3550 ca        1 HXP      0.139100
      7 O10        -0.4550    0.9330    3.4870 os        1 HXP     -0.246200
      8 C5A        -1.8460    0.8660    3.4390 ca        1 HXP      0.139100
      9 C5         -2.4910    1.4940    4.5160 ca        1 HXP     -0.218000
     10 C6         -3.8880    1.4600    4.5510 ca        1 HXP      0.123600
     11 O6         -4.6050    2.0480    5.5730 oh        1 HXP     -0.509600
     12 C7         -4.6300    0.8230    3.5420 ca        1 HXP     -0.211000
     13 C8         -3.9620    0.2100    2.4880 ca        1 HXP     -0.058000
     14 C8A        -2.5590    0.2240    2.4220 ca        1 HXP     -0.133300
     15 C9         -1.8720   -0.4390    1.2720 c3        1 HXP      0.023900
     16 C9A        -0.4050   -0.1570    1.2790 ca        1 HXP     -0.133300
     17 C1'        -2.1590   -1.9480    1.2640 c3        1 HXP     -0.050400
     18 C2'        -2.6160   -2.4370   -0.0910 c3        1 HXP     -0.201400
     19 C3'        -3.8760   -1.6910   -0.5630 c         1 HXP      0.902600
     20 O1'        -4.9200   -1.7560    0.1530 o         1 HXP     -0.848800
     21 O2'        -3.8050   -1.0340   -1.6400 o         1 HXP     -0.848800
     22 H1         -0.1010   -1.0330   -0.6690 ha        1 HXP      0.193000
     23 H2          2.3610   -0.5980   -0.6920 ha        1 HXP      0.137000
     24 HO3         4.0950    0.2900    0.4900 ho        1 HXP      0.409000
     25 H4          2.0670    1.2600    3.2230 ha        1 HXP      0.144500
     26 H5         -1.9040    1.9890    5.2990 ha        1 HXP      0.144500
     27 HO6        -3.9690    2.4460    6.1840 ho        1 HXP      0.409000
     28 H7         -5.7260    0.8130    3.5960 ha        1 HXP      0.137000
     29 H8         -4.5270   -0.3140    1.6820 ha        1 HXP      0.193000
     30 H9         -2.3090   -0.0040    0.3180 hc        1 HXP      0.115700
     31 H1'1       -1.2420   -2.5070    1.5860 hc        1 HXP      0.035200
     32 H1'2       -2.9730   -2.1710    2.0050 hc        1 HXP      0.035200
     33 H2'1       -2.8560   -3.5280   -0.0250 hc        1 HXP      0.024700
     34 H2'2       -1.8060   -2.3040   -0.8510 hc        1 HXP      0.024700
@<TRIPOS>BOND
     1    1    2 ar  
     2    1   16 ar  
     3    1   22 1   
     4    2    3 ar  
     5    2   23 1   
     6    3    4 1   
     7    3    5 ar  
     8    4   24 1   
     9    5    6 ar  
    10    5   25 1   
    11    6    7 1   
    12    6   16 ar  
    13    7    8 1   
    14    8    9 ar  
    15    8   14 ar  
    16    9   10 ar  
    17    9   26 1   
    18   10   11 1   
    19   10   12 ar  
    20   11   27 1   
    21   12   13 ar  
    22   12   28 1   
    23   13   14 ar  
    24   13   29 1   
    25   14   15 1   
    26   15   16 1   
    27   15   17 1   
    28   15   30 1   
    29   17   18 1   
    30   17   31 1   
    31   17   32 1   
    32   18   19 1   
    33   18   33 1   
    34   18   34 1   
    35   19   20 1   
    36   19   21 1   
@<TRIPOS>SUBSTRUCTURE
     1 HXP         1 TEMP              0 ****  ****    0 ROOT
