@<TRIPOS>MOLECULE
HXP
   34    36     1     0     0
SMALL
bcc


@<TRIPOS>ATOM
      1 C1         -1.3320    0.5680    2.0900 ca        1 HXP     -0.058000
      2 C2         -2.6540    0.4450    2.5050 ca        1 HXP     -0.211000
      3 C3         -3.6240    0.0140    1.5890 ca        1 HXP      0.123600
      4 O3         -4.9530   -0.1350    1.9360 oh        1 HXP     -0.509600
      5 C4         -3.2910   -0.2850    0.2640 ca        1 HXP     -0.218000
      6 C4A        -1.9480   -0.1490   -0.1220 ca        1 HXP      0.139100
      7 O10        -1.7040   -0.4650   -1.4520 os        1 HXP     -0.246200
      8 C5A        -0.4290   -0.1710   -1.9290 ca        1 HXP      0.139100
      9 C5         -0.2830   -0.3230   -3.3170 ca        1 HXP     -0.218000
     10 C6          0.9720   -0.0610   -3.8740 ca        1 HXP      0.123600
     11 O6          1.2070   -0.1870   -5.2290 oh        1 HXP     -0.509600
     12 C7          2.0570    0.3430   -3.0780 ca        1 HXP     -0.211000
     13 C8          1.8800    0.4850   -1.7060 ca        1 HXP     -0.058000
     14 C8A         0.6340    0.2290   -1.1120 ca        1 HXP     -0.133300
     15 C9          0.4770    0.3960    0.3640 c3        1 HXP      0.023900
     16 C9A        -0.9530    0.2640    0.7770 ca        1 HXP     -0.133300
     17 C1'         1.3780   -0.5900    1.1220 c3        1 HXP     -0.050400
     18 C2'         2.1970    0.0920    2.1940 c3        1 HXP     -0.201400
     19 C3'         3.0730    1.2120    1.6070 c         1 HXP      0.902600
     20 O1'         3.9240    0.9110    0.7180 o         1 HXP     -0.848800
     21 O2'         2.8890    2.3880    2.0310 o         1 HXP     -0.848800
     22 H1         -0.5580    0.9100    2.7990 ha        1 HXP      0.193000
     23 H2         -2.9360    0.6860    3.5380 ha        1 HXP      0.137000
     24 HO3        -5.0380    0.1190    2.8660 ho        1 HXP      0.409000
     25 H4         -4.0530   -0.6140   -0.4530 ha        1 HXP      0.144500
     26 H5         -1.1350   -0.6390   -3.9300 ha        1 HXP      0.144500
     27 HO6         0.3790   -0.4640   -5.6440 ho        1 HXP      0.409000
     28 H7          3.0300    0.5420   -3.5450 ha        1 HXP      0.137000
     29 H8          2.7290    0.7920   -1.0500 ha        1 HXP      0.193000
     30 H9          0.8230    1.4460    0.6260 hc        1 HXP      0.115700
     31 H1'1        2.0890   -1.0690    0.3970 hc        1 HXP      0.035200
     32 H1'2        0.7510   -1.4010    1.5740 hc        1 HXP      0.035200
     33 H2'1        2.8680   -0.6630    2.6770 hc        1 HXP      0.024700
     34 H2'2        1.5320    0.5220    2.9840 hc        1 HXP      0.024700
@<TRIPOS>BOND
     1    1    2 ar  
     2    1   16 ar  
     3    1   22 1   
     4    2    3 ar  
     5    2   23 1   
     6    3    4 1   
     7    3    5 ar  
     8    4   24 1   
     9    5    6 ar  
    10    5   25 1   
    11    6    7 1   
    12    6   16 ar  
    13    7    8 1   
    14    8    9 ar  
    15    8   14 ar  
    16    9   10 ar  
    17    9   26 1   
    18   10   11 1   
    19   10   12 ar  
    20   11   27 1   
    21   12   13 ar  
    22   12   28 1   
    23   13   14 ar  
    24   13   29 1   
    25   14   15 1   
    26   15   16 1   
    27   15   17 1   
    28   15   30 1   
    29   17   18 1   
    30   17   31 1   
    31   17   32 1   
    32   18   19 1   
    33   18   33 1   
    34   18   34 1   
    35   19   20 1   
    36   19   21 1   
@<TRIPOS>SUBSTRUCTURE
     1 HXP         1 TEMP              0 ****  ****    0 ROOT
