@<TRIPOS>MOLECULE
HXP
   34    31     1     0     0
SMALL
bcc


@<TRIPOS>ATOM
      1 C1          1.9750    0.3870   -1.5810 c1        1 HXP     -0.143000
      2 C2          3.3640    0.4060   -1.5370 c1        1 HXP     -0.143000
      3 C3          4.0240    0.3130   -0.3150 c1        1 HXP      0.077000
      4 O3          5.4200    0.1540   -0.2090 oh        1 HXP     -0.268000
      5 C4          3.2950    0.2000    0.8610 c1        1 HXP     -0.192000
      6 C4A         1.8900    0.1800    0.8180 c1        1 HXP      0.085000
      7 O10         1.1150   -0.0210    2.0630 os        1 HXP     -0.153000
      8 C5A        -0.3490    0.2010    2.0700 c2        1 HXP      0.100000
      9 C5         -1.0450    0.2490    3.2870 c2        1 HXP     -0.186000
     10 C6         -2.4270    0.3940    3.2930 c1        1 HXP      0.079000
     11 O6         -3.1850    0.1440    4.4480 o         1 HXP     -0.263000
     12 C7         -3.1220    0.4920    2.0900 c2        1 HXP     -0.242000
     13 C8         -2.4340    0.4440    0.8840 c1        1 HXP     -0.059000
     14 C8A        -1.0390    0.2980    0.8770 c1        1 HXP     -0.121000
     15 C9         -0.2780    0.3250   -0.4320 c3        1 HXP     -0.031000
     16 C9A         1.2360    0.2730   -0.3940 c1        1 HXP     -0.133000
     17 C1'        -0.7730   -0.9070   -1.2930 c3        1 HXP     -0.129000
     18 C2'        -1.1560   -0.4320   -2.6780 c3        1 HXP     -0.230000
     19 C3'        -1.8030   -1.5700   -3.4410 c2        1 HXP      0.322000
     20 O1'        -3.0280   -1.5190   -3.7310 o         1 HXP     -0.584000
     21 O2'        -1.1080   -2.5530   -3.8160 o         1 HXP     -0.584000
     22 H1          1.5130    0.4520   -2.4380 ha        1 HXP      0.178000
     23 H2          3.8780    0.4810   -2.3640 ha        1 HXP      0.178000
     24 HO3         5.8270    0.8530   -0.5790 ho        1 HXP      0.211000
     25 H4          3.7580    0.1340    1.7190 ha        1 HXP      0.150000
     26 H5         -0.5790    0.1910    4.1440 ha        1 HXP      0.155000
     27 HO6        -3.4770    0.9130    4.7830 ho        1 HXP      0.210000
     28 H7         -4.0690    0.7130    2.1450 ha        1 HXP      0.125000
     29 H8         -3.1420    0.3670    0.2120 ha        1 HXP      0.159000
     30 H9         -0.5330    1.1420   -0.9040 hc        1 HXP      0.156000
     31 H1'1       -1.5500   -1.3150   -0.8620 hc        1 HXP      0.074500
     32 H1'2       -0.0540   -1.5660   -1.3620 hc        1 HXP      0.074500
     33 H2'1       -1.7870    0.3110   -2.6050 hc        1 HXP      0.064500
     34 H2'2       -0.3560   -0.1340   -3.1540 hc        1 HXP      0.064500
@<TRIPOS>BOND
     1    1    2 1   
     2    1   22 1   
     3    2   23 1   
     4    3    4 1   
     5    3    5 1   
     6    4   24 1   
     7    5   25 1   
     8    6    7 1   
     9    6   16 1   
    10    7    8 1   
    11    8    9 1   
    12    8   14 1   
    13    9   10 1   
    14    9   26 1   
    15   10   12 1   
    16   11   27 1   
    17   12   13 1   
    18   12   28 1   
    19   13   29 1   
    20   14   15 1   
    21   15   16 1   
    22   15   17 1   
    23   15   30 1   
    24   17   18 1   
    25   17   31 1   
    26   17   32 1   
    27   18   19 1   
    28   18   33 1   
    29   18   34 1   
    30   19   20 1   
    31   19   21 1   
@<TRIPOS>SUBSTRUCTURE
     1 HXP         1 TEMP              0 ****  ****    0 ROOT
