@<TRIPOS>MOLECULE
HXP
   34    36     1     0     0
SMALL
bcc


@<TRIPOS>ATOM
      1 C1          0.3900   -0.5210    0.2150 ca        1 HXP     -0.058000
      2 C2          1.7640   -0.3070    0.2370 ca        1 HXP     -0.211000
      3 C3          2.3540    0.2540    1.3790 ca        1 HXP      0.123600
      4 O3          3.7120    0.4870    1.4690 oh        1 HXP     -0.509600
      5 C4          1.5860    0.6130    2.4910 ca        1 HXP     -0.218000
      6 C4A         0.2030    0.3850    2.4360 ca        1 HXP      0.139100
      7 O10        -0.4830    0.7700    3.5790 os        1 HXP     -0.246200
      8 C5A        -1.8740    0.7350    3.5030 ca        1 HXP      0.139100
      9 C5         -2.5260    1.3120    4.6040 ca        1 HXP     -0.218000
     10 C6         -3.9240    1.3050    4.6110 ca        1 HXP      0.123600
     11 O6         -4.6490    1.8480    5.6530 oh        1 HXP     -0.509600
     12 C7         -4.6590    0.7430    3.5530 ca        1 HXP     -0.211000
     13 C8         -3.9830    0.1790    2.4780 ca        1 HXP     -0.058000
     14 C8A        -2.5800    0.1680    2.4370 ca        1 HXP     -0.133300
     15 C9         -1.8850   -0.4410    1.2630 c3        1 HXP      0.023900
     16 C9A        -0.4130   -0.1910    1.3130 ca        1 HXP     -0.133300
     17 C1'        -2.2000   -1.9410    1.1610 c3        1 HXP     -0.050400
     18 C2'        -2.6410   -2.3400   -0.2280 c3        1 HXP     -0.201400
     19 C3'        -3.8770   -1.5420   -0.6780 c         1 HXP      0.902600
     20 O1'        -4.9350   -1.6270    0.0150 o         1 HXP     -0.848800
     21 O2'        -3.7730   -0.8260   -1.7140 o         1 HXP     -0.848800
     22 H1         -0.0890   -0.9580   -0.6780 ha        1 HXP      0.193000
     23 H2          2.3810   -0.5730   -0.6320 ha        1 HXP      0.137000
     24 HO3         4.1090    0.2090    0.6320 ho        1 HXP      0.409000
     25 H4          2.0490    1.0590    3.3800 ha        1 HXP      0.144500
     26 H5         -1.9450    1.7480    5.4240 ha        1 HXP      0.144500
     27 HO6        -4.0180    2.1960    6.2970 ho        1 HXP      0.409000
     28 H7         -5.7570    0.7530    3.5870 ha        1 HXP      0.137000
     29 H8         -4.5430   -0.2850    1.6320 ha        1 HXP      0.193000
     30 H9         -2.2950    0.0580    0.3290 hc        1 HXP      0.115700
     31 H1'1       -3.0330   -2.1890    1.8730 hc        1 HXP      0.035200
     32 H1'2       -1.3010   -2.5360    1.4660 hc        1 HXP      0.035200
     33 H2'1       -2.9040   -3.4280   -0.2300 hc        1 HXP      0.024700
     34 H2'2       -1.8140   -2.1810   -0.9640 hc        1 HXP      0.024700
@<TRIPOS>BOND
     1    1    2 ar  
     2    1   16 ar  
     3    1   22 1   
     4    2    3 ar  
     5    2   23 1   
     6    3    4 1   
     7    3    5 ar  
     8    4   24 1   
     9    5    6 ar  
    10    5   25 1   
    11    6    7 1   
    12    6   16 ar  
    13    7    8 1   
    14    8    9 ar  
    15    8   14 ar  
    16    9   10 ar  
    17    9   26 1   
    18   10   11 1   
    19   10   12 ar  
    20   11   27 1   
    21   12   13 ar  
    22   12   28 1   
    23   13   14 ar  
    24   13   29 1   
    25   14   15 1   
    26   15   16 1   
    27   15   17 1   
    28   15   30 1   
    29   17   18 1   
    30   17   31 1   
    31   17   32 1   
    32   18   19 1   
    33   18   33 1   
    34   18   34 1   
    35   19   20 1   
    36   19   21 1   
@<TRIPOS>SUBSTRUCTURE
     1 HXP         1 TEMP              0 ****  ****    0 ROOT
