@<TRIPOS>MOLECULE
HXS
   42    43     1     0     0
SMALL
bcc


@<TRIPOS>ATOM
      1 C1         -3.8600   -0.3290   -1.1260 ca        1 HXS     -0.183500
      2 C2         -4.6270   -0.2840    0.0460 ca        1 HXS      0.120100
      3 C3         -4.0350    0.0410    1.2770 ca        1 HXS     -0.183500
      4 C4         -2.6730    0.3180    1.3200 ca        1 HXS     -0.092500
      5 C5         -1.8900    0.2780    0.1580 ca        1 HXS     -0.105300
      6 O16        -5.9770   -0.5500    0.0630 oh        1 HXS     -0.498100
      7 C          -2.4980   -0.0470   -1.0600 ca        1 HXS     -0.092500
      8 C7         -0.4270    0.5960    0.2320 c3        1 HXS     -0.010400
      9 C17        -0.1100    1.8400   -0.5940 c3        1 HXS     -0.077400
     10 C18        -0.6690    3.0910    0.0310 c3        1 HXS     -0.093100
     11 C8          0.4280   -0.5980   -0.2260 c3        1 HXS     -0.010400
     12 C19         0.1110   -1.8420    0.6010 c3        1 HXS     -0.077400
     13 C20         0.6700   -3.0940   -0.0250 c3        1 HXS     -0.093100
     14 C9          1.8910   -0.2800   -0.1520 ca        1 HXS     -0.105300
     15 C14         2.6740   -0.3210   -1.3140 ca        1 HXS     -0.092500
     16 C13         4.0360   -0.0430   -1.2710 ca        1 HXS     -0.183500
     17 C12         4.6270    0.2820   -0.0400 ca        1 HXS      0.120100
     18 O15         5.9780    0.5470   -0.0570 oh        1 HXS     -0.498100
     19 C11         3.8600    0.3270    1.1320 ca        1 HXS     -0.183500
     20 C10         2.4990    0.0450    1.0670 ca        1 HXS     -0.092500
     21 H1         -4.3290   -0.5840   -2.0870 ha        1 HXS      0.141500
     22 H3         -4.6530    0.0720    2.1850 ha        1 HXS      0.141500
     23 H4         -2.2070    0.5740    2.2840 ha        1 HXS      0.134000
     24 HO16       -6.2510   -0.7540   -0.8430 ho        1 HXS      0.418000
     25 H          -1.8950   -0.0810   -1.9810 ha        1 HXS      0.134000
     26 H7         -0.1580    0.8130    1.3060 hc        1 HXS      0.052700
     27 H17         1.0040    1.9400   -0.6930 hc        1 HXS      0.045700
     28 H17A       -0.5250    1.7150   -1.6290 hc        1 HXS      0.045700
     29 H18        -1.7730    3.0010    0.1760 hc        1 HXS      0.034700
     30 H18A       -0.2000    3.2790    1.0270 hc        1 HXS      0.034700
     31 H18B       -0.4670    3.9720   -0.6240 hc        1 HXS      0.034700
     32 H8          0.1590   -0.8150   -1.3000 hc        1 HXS      0.052700
     33 H19         0.5260   -1.7180    1.6350 hc        1 HXS      0.045700
     34 H19A       -1.0030   -1.9420    0.6990 hc        1 HXS      0.045700
     35 H20         0.4680   -3.9750    0.6300 hc        1 HXS      0.034700
     36 H20A        0.2000   -3.2810   -1.0210 hc        1 HXS      0.034700
     37 H20B        1.7740   -3.0030   -0.1700 hc        1 HXS      0.034700
     38 H14         2.2080   -0.5770   -2.2780 ha        1 HXS      0.134000
     39 H13         4.6540   -0.0740   -2.1790 ha        1 HXS      0.141500
     40 HO15        6.2520    0.7520    0.8490 ho        1 HXS      0.418000
     41 H11         4.3290    0.5820    2.0930 ha        1 HXS      0.141500
     42 H10         1.8960    0.0790    1.9870 ha        1 HXS      0.134000
@<TRIPOS>BOND
     1    1    2 ar  
     2    1    7 ar  
     3    1   21 1   
     4    2    3 ar  
     5    2    6 1   
     6    3    4 ar  
     7    3   22 1   
     8    4    5 ar  
     9    4   23 1   
    10    5    7 ar  
    11    5    8 1   
    12    6   24 1   
    13    7   25 1   
    14    8    9 1   
    15    8   11 1   
    16    8   26 1   
    17    9   10 1   
    18    9   27 1   
    19    9   28 1   
    20   10   29 1   
    21   10   30 1   
    22   10   31 1   
    23   11   12 1   
    24   11   14 1   
    25   11   32 1   
    26   12   13 1   
    27   12   33 1   
    28   12   34 1   
    29   13   35 1   
    30   13   36 1   
    31   13   37 1   
    32   14   15 ar  
    33   14   20 ar  
    34   15   16 ar  
    35   15   38 1   
    36   16   17 ar  
    37   16   39 1   
    38   17   18 1   
    39   17   19 ar  
    40   18   40 1   
    41   19   20 ar  
    42   19   41 1   
    43   20   42 1   
@<TRIPOS>SUBSTRUCTURE
     1 HXS         1 TEMP              0 ****  ****    0 ROOT
