@<TRIPOS>MOLECULE
HXS
   42    43     1     0     0
SMALL
bcc


@<TRIPOS>ATOM
      1 C1         -0.0380    0.0820   -0.0890 ca        1 HXS     -0.183500
      2 C2          1.3660    0.0650   -0.0750 ca        1 HXS      0.120100
      3 C3          2.0680    0.0440    1.1380 ca        1 HXS     -0.183500
      4 C4          1.3580    0.0420    2.3360 ca        1 HXS     -0.092000
      5 C5         -0.0410    0.0590    2.3410 ca        1 HXS     -0.105300
      6 O16         1.9940    0.0690   -1.3000 oh        1 HXS     -0.498100
      7 C          -0.7270    0.0780    1.1180 ca        1 HXS     -0.092000
      8 C7         -0.7840    0.0410    3.6420 c3        1 HXS     -0.010400
      9 C17        -1.6250   -1.2280    3.7580 c3        1 HXS     -0.076900
     10 C18        -0.7700   -2.4560    3.9440 c3        1 HXS     -0.093100
     11 C8         -1.6630    1.2940    3.8020 c3        1 HXS     -0.010400
     12 C19        -0.8240    2.5640    3.6830 c3        1 HXS     -0.076900
     13 C20        -1.6790    3.7910    3.5020 c3        1 HXS     -0.093100
     14 C9         -2.4040    1.2770    5.1040 ca        1 HXS     -0.105300
     15 C14        -3.8060    1.2890    5.1100 ca        1 HXS     -0.092000
     16 C13        -4.5190    1.2870    6.3040 ca        1 HXS     -0.183500
     17 C12        -3.8140    1.2720    7.5190 ca        1 HXS      0.120100
     18 O15        -4.5710    1.2690    8.6690 oh        1 HXS     -0.498100
     19 C11        -2.4130    1.2590    7.5330 ca        1 HXS     -0.183500
     20 C10        -1.7200    1.2620    6.3250 ca        1 HXS     -0.092000
     21 H1         -0.5710    0.0970   -1.0500 ha        1 HXS      0.141500
     22 H3          3.1670    0.0300    1.1430 ha        1 HXS      0.141500
     23 H4          1.9100    0.0250    3.2880 ha        1 HXS      0.133500
     24 HO16        2.9500    0.0530   -1.1430 ho        1 HXS      0.418000
     25 H          -1.8280    0.0900    1.1100 ha        1 HXS      0.133500
     26 H7         -0.0360    0.0420    4.4870 hc        1 HXS      0.052700
     27 H17        -2.3230   -1.1270    4.6310 hc        1 HXS      0.045700
     28 H17A       -2.2560   -1.3420    2.8380 hc        1 HXS      0.045700
     29 H18        -0.1990   -2.3990    4.9020 hc        1 HXS      0.034367
     30 H18A       -0.0390   -2.5580    3.1060 hc        1 HXS      0.034367
     31 H18B       -1.4110   -3.3700    3.9710 hc        1 HXS      0.034367
     32 H8         -2.4130    1.2920    2.9580 hc        1 HXS      0.052700
     33 H19        -0.1890    2.6780    4.6010 hc        1 HXS      0.045700
     34 H19A       -0.1290    2.4640    2.8070 hc        1 HXS      0.045700
     35 H20        -2.2540    3.7350    2.5460 hc        1 HXS      0.034367
     36 H20A       -2.4080    3.8930    4.3430 hc        1 HXS      0.034367
     37 H20B       -1.0390    4.7060    3.4740 hc        1 HXS      0.034367
     38 H14        -4.3560    1.3020    4.1560 ha        1 HXS      0.133500
     39 H13        -5.6170    1.2980    6.3130 ha        1 HXS      0.141500
     40 HO15       -3.9640    1.2610    9.4230 ho        1 HXS      0.418000
     41 H11        -1.8680    1.2470    8.4860 ha        1 HXS      0.141500
     42 H10        -0.6190    1.2540    6.3360 ha        1 HXS      0.133500
@<TRIPOS>BOND
     1    1    2 ar  
     2    1    7 ar  
     3    1   21 1   
     4    2    3 ar  
     5    2    6 1   
     6    3    4 ar  
     7    3   22 1   
     8    4    5 ar  
     9    4   23 1   
    10    5    7 ar  
    11    5    8 1   
    12    6   24 1   
    13    7   25 1   
    14    8    9 1   
    15    8   11 1   
    16    8   26 1   
    17    9   10 1   
    18    9   27 1   
    19    9   28 1   
    20   10   29 1   
    21   10   30 1   
    22   10   31 1   
    23   11   12 1   
    24   11   14 1   
    25   11   32 1   
    26   12   13 1   
    27   12   33 1   
    28   12   34 1   
    29   13   35 1   
    30   13   36 1   
    31   13   37 1   
    32   14   15 ar  
    33   14   20 ar  
    34   15   16 ar  
    35   15   38 1   
    36   16   17 ar  
    37   16   39 1   
    38   17   18 1   
    39   17   19 ar  
    40   18   40 1   
    41   19   20 ar  
    42   19   41 1   
    43   20   42 1   
@<TRIPOS>SUBSTRUCTURE
     1 HXS         1 TEMP              0 ****  ****    0 ROOT
