@<TRIPOS>MOLECULE
HXS
   42    43     1     0     0
SMALL
bcc


@<TRIPOS>ATOM
      1 C1          0.0810    0.0180   -0.0470 ca        1 HXS     -0.183500
      2 C2          1.4810   -0.0190    0.0010 ca        1 HXS      0.120100
      3 C3          2.1550   -0.0620    1.2330 ca        1 HXS     -0.183500
      4 C4          1.4130   -0.0660    2.4090 ca        1 HXS     -0.092500
      5 C5          0.0110   -0.0290    2.3800 ca        1 HXS     -0.105300
      6 O16         2.2660   -0.0160   -1.1300 oh        1 HXS     -0.498100
      7 C          -0.6420    0.0120    1.1430 ca        1 HXS     -0.092500
      8 C7         -0.7630   -0.0500    3.6630 c3        1 HXS     -0.010400
      9 C17        -1.6250   -1.3070    3.7450 c3        1 HXS     -0.077400
     10 C18        -0.7940   -2.5500    3.9350 c3        1 HXS     -0.093100
     11 C8         -1.6250    1.2150    3.8160 c3        1 HXS     -0.010400
     12 C19        -0.7630    2.4730    3.7340 c3        1 HXS     -0.077400
     13 C20        -1.5930    3.7160    3.5440 c3        1 HXS     -0.093100
     14 C9         -2.3990    1.1950    5.0990 ca        1 HXS     -0.105300
     15 C14        -3.8000    1.2320    5.0700 ca        1 HXS     -0.092500
     16 C13        -4.5420    1.2270    6.2460 ca        1 HXS     -0.183500
     17 C12        -3.8690    1.1840    7.4770 ca        1 HXS      0.120100
     18 O15        -4.6540    1.1810    8.6080 oh        1 HXS     -0.498100
     19 C11        -2.4690    1.1470    7.5260 ca        1 HXS     -0.183500
     20 C10        -1.7450    1.1530    6.3370 ca        1 HXS     -0.092500
     21 H1         -0.4400    0.0510   -1.0140 ha        1 HXS      0.141500
     22 H3          3.2530   -0.0910    1.2510 ha        1 HXS      0.141500
     23 H4          1.9380   -0.1000    3.3760 ha        1 HXS      0.134000
     24 HO16        1.6790    0.0130   -1.8990 ho        1 HXS      0.418000
     25 H          -1.7420    0.0400    1.1050 ha        1 HXS      0.134000
     26 H7         -0.0350   -0.0700    4.5250 hc        1 HXS      0.052700
     27 H17        -2.2370   -1.4000    2.8100 hc        1 HXS      0.045700
     28 H17A       -2.3410   -1.2050    4.6040 hc        1 HXS      0.045700
     29 H18        -1.4490   -3.4540    3.9360 hc        1 HXS      0.034700
     30 H18A       -0.0460   -2.6540    3.1120 hc        1 HXS      0.034700
     31 H18B       -0.2440   -2.5130    4.9060 hc        1 HXS      0.034700
     32 H8         -2.3530    1.2350    2.9540 hc        1 HXS      0.052700
     33 H19        -0.1500    2.5660    4.6700 hc        1 HXS      0.045700
     34 H19A       -0.0460    2.3710    2.8760 hc        1 HXS      0.045700
     35 H20        -2.3420    3.8200    4.3670 hc        1 HXS      0.034700
     36 H20A       -0.9380    4.6200    3.5430 hc        1 HXS      0.034700
     37 H20B       -2.1430    3.6790    2.5730 hc        1 HXS      0.034700
     38 H14        -4.3250    1.2660    4.1030 ha        1 HXS      0.134000
     39 H13        -5.6410    1.2570    6.2280 ha        1 HXS      0.141500
     40 HO15       -4.0660    1.1530    9.3770 ho        1 HXS      0.418000
     41 H11        -1.9480    1.1140    8.4930 ha        1 HXS      0.141500
     42 H10        -0.6450    1.1250    6.3740 ha        1 HXS      0.134000
@<TRIPOS>BOND
     1    1    2 ar  
     2    1    7 ar  
     3    1   21 1   
     4    2    3 ar  
     5    2    6 1   
     6    3    4 ar  
     7    3   22 1   
     8    4    5 ar  
     9    4   23 1   
    10    5    7 ar  
    11    5    8 1   
    12    6   24 1   
    13    7   25 1   
    14    8    9 1   
    15    8   11 1   
    16    8   26 1   
    17    9   10 1   
    18    9   27 1   
    19    9   28 1   
    20   10   29 1   
    21   10   30 1   
    22   10   31 1   
    23   11   12 1   
    24   11   14 1   
    25   11   32 1   
    26   12   13 1   
    27   12   33 1   
    28   12   34 1   
    29   13   35 1   
    30   13   36 1   
    31   13   37 1   
    32   14   15 ar  
    33   14   20 ar  
    34   15   16 ar  
    35   15   38 1   
    36   16   17 ar  
    37   16   39 1   
    38   17   18 1   
    39   17   19 ar  
    40   18   40 1   
    41   19   20 ar  
    42   19   41 1   
    43   20   42 1   
@<TRIPOS>SUBSTRUCTURE
     1 HXS         1 TEMP              0 ****  ****    0 ROOT
