@<TRIPOS>MOLECULE
HXT
   18    18     1     0     0
SMALL
bcc


@<TRIPOS>ATOM
      1 CAF        -0.0180   -0.1410   -0.0090 ca        1 HXT     -0.085000
      2 CAD         1.3730   -0.0570   -0.0160 ca        1 HXT     -0.142000
      3 CAC         2.0740    0.0730    1.1840 ca        1 HXT     -0.102000
      4 CAE         1.3810    0.1140    2.3940 ca        1 HXT     -0.142000
      5 CAG        -0.0100    0.0250    2.4040 ca        1 HXT     -0.085000
      6 CAJ        -0.7200   -0.0980    1.2010 ca        1 HXT     -0.176600
      7 CAI        -2.1960   -0.1850    1.2580 c         1 HXT      0.573700
      8 OAA        -2.7970   -0.4370    2.3050 o         1 HXT     -0.494100
      9 CAH        -2.9150    0.0580   -0.0510 c3        1 HXT      0.033400
     10 OAB        -4.2960    0.2030    0.2220 oh        1 HXT     -0.570800
     11 H1         -0.5550   -0.2470   -0.9640 ha        1 HXT      0.143500
     12 H2          1.9190   -0.0930   -0.9700 ha        1 HXT      0.137500
     13 H3          3.1720    0.1420    1.1750 ha        1 HXT      0.136000
     14 H4          1.9310    0.2130    3.3410 ha        1 HXT      0.137500
     15 H5         -0.5660    0.0470    3.3560 ha        1 HXT      0.143500
     16 H6         -2.7390   -0.8190   -0.7320 h1        1 HXT      0.045700
     17 H7         -2.5170    0.9930   -0.5320 h1        1 HXT      0.045700
     18 H8         -4.7330    0.2900   -0.6340 ho        1 HXT      0.401000
@<TRIPOS>BOND
     1    1    2 ar  
     2    1    6 ar  
     3    1   11 1   
     4    2    3 ar  
     5    2   12 1   
     6    3    4 ar  
     7    3   13 1   
     8    4    5 ar  
     9    4   14 1   
    10    5    6 ar  
    11    5   15 1   
    12    6    7 1   
    13    7    8 2   
    14    7    9 1   
    15    9   10 1   
    16    9   16 1   
    17    9   17 1   
    18   10   18 1   
@<TRIPOS>SUBSTRUCTURE
     1 HXT         1 TEMP              0 ****  ****    0 ROOT
