@<TRIPOS>MOLECULE
HXX
   15    15     1     0     0
SMALL
bcc


@<TRIPOS>ATOM
      1 C2          0.8770   -0.5860    0.1360 ca        1 HXX      0.188100
      2 C3          1.8270    0.4530    0.0970 ca        1 HXX     -0.048600
      3 C4          1.4050    1.7820   -0.0070 ca        1 HXX     -0.112000
      4 C5          0.0520    2.0800   -0.0600 ca        1 HXX     -0.191000
      5 C6         -0.8940    1.0420   -0.0350 ca        1 HXX      0.077400
      6 O1'        -2.3780   -1.4880   -0.8910 o         1 HXX     -0.812300
      7 O2'        -1.3100   -2.3780    0.8560 o         1 HXX     -0.812300
      8 C1         -0.5070   -0.2940    0.0330 ca        1 HXX     -0.181600
      9 O2          1.3490   -1.8620    0.2620 oh        1 HXX     -0.526100
     10 CL1         3.5060    0.1480    0.1800 cl        1 HXX     -0.128400
     11 CL2        -2.5370    1.4970   -0.0690 cl        1 HXX     -0.102400
     12 H4          2.1480    2.5920   -0.0390 ha        1 HXX      0.125000
     13 H5         -0.2780    3.1260   -0.1250 ha        1 HXX      0.127000
     14 HO2         0.5950   -2.4620    0.4530 ho        1 HXX      0.481000
     15 C1'        -1.4930   -1.4600   -0.0020 c         1 HXX      0.916200
@<TRIPOS>BOND
     1    1    2 ar  
     2    1    8 ar  
     3    1    9 1   
     4    2    3 ar  
     5    2   10 1   
     6    3    4 ar  
     7    3   12 1   
     8    4    5 ar  
     9    4   13 1   
    10    5    8 ar  
    11    5   11 1   
    12    6   15 1   
    13    7   15 1   
    14    8   15 1   
    15    9   14 1   
@<TRIPOS>SUBSTRUCTURE
     1 HXX         1 TEMP              0 ****  ****    0 ROOT
