@<TRIPOS>MOLECULE
HXX
   15    14     1     0     0
SMALL
bcc


@<TRIPOS>ATOM
      1 C2          0.0310    0.0030    0.1720 c2        1 HXX      0.042000
      2 C3          1.4620   -0.3200    0.2860 c2        1 HXX     -0.022000
      3 C4          2.3180    0.4080    1.0220 c2        1 HXX     -0.192000
      4 C5          1.0700   -0.4500    2.8050 c1        1 HXX      0.061000
      5 C6         -0.2400   -0.4630    2.5230 c2        1 HXX     -0.244000
      6 O1'        -2.5550    1.2190    0.3190 o         1 HXX     -0.551000
      7 O2'        -3.1660   -0.5300    1.5580 o         1 HXX     -0.551000
      8 C1         -0.8100   -0.1010    1.2370 c2        1 HXX     -0.158000
      9 O2         -0.3280    0.3880   -1.0940 oh        1 HXX     -0.283000
     10 CL1         1.9910   -1.7210   -0.5380 cl        1 HXX     -0.039000
     11 CL2        -1.2400   -0.9270    3.8290 cl        1 HXX      0.017000
     12 H4          2.0080    1.3540    1.4930 ha        1 HXX      0.136500
     13 H5          3.3680    0.1260    1.1660 ha        1 HXX      0.136500
     14 HO2        -1.2490    0.7270   -1.0590 ho        1 HXX      0.276000
     15 C1'        -2.2920    0.2150    1.0530 c2        1 HXX      0.371000
@<TRIPOS>BOND
     1    1    2 1   
     2    1    8 1   
     3    1    9 1   
     4    2    3 1   
     5    2   10 1   
     6    3   12 1   
     7    3   13 1   
     8    4    5 1   
     9    5    8 1   
    10    5   11 1   
    11    6   15 1   
    12    7   15 1   
    13    8   15 1   
    14    9   14 1   
@<TRIPOS>SUBSTRUCTURE
     1 HXX         1 TEMP              0 ****  ****    0 ROOT
