@<TRIPOS>MOLECULE
HXX
   15    11     1     0     0
SMALL
bcc


@<TRIPOS>ATOM
      1 C2         -0.0980    0.0390   -0.9920 c1        1 HXX      0.143000
      2 C3          1.2880    0.0390   -0.9920 c2        1 HXX     -0.127000
      3 C4          1.9810    0.0390    0.2080 c1        1 HXX     -0.112000
      4 C5          1.2880    0.0390    1.4080 c1        1 HXX     -0.191000
      5 C6         -0.0980    0.0390    1.4080 c1        1 HXX     -0.001000
      6 O1'        -2.9130    1.1680    0.1630 o         1 HXX     -0.547000
      7 C1'        -2.3040    0.0670    0.2080 c1        1 HXX      0.365000
      8 O2'        -2.9540   -1.0100    0.2670 o         1 HXX     -0.547000
      9 C1         -0.7910    0.0390    0.2080 c1        1 HXX     -0.161000
     10 O2         -0.8020    0.0610   -2.2100 o         1 HXX     -0.280000
     11 CL1         2.1600    0.0590   -2.5020 cl        1 HXX     -0.050000
     12 CL2        -0.8110    0.0520    3.0000 cl        1 HXX     -0.024000
     13 H4          2.9570    0.0390    0.2080 ha        1 HXX      0.125000
     14 H5          1.7760    0.0390    2.2540 ha        1 HXX      0.127000
     15 HO2        -0.6790   -0.7080   -2.6370 ho        1 HXX      0.280000
@<TRIPOS>BOND
     1    1    2 1   
     2    1    9 1   
     3    2    3 1   
     4    2   11 1   
     5    3   13 1   
     6    4    5 1   
     7    4   14 1   
     8    5    9 1   
     9    6    7 1   
    10    7    8 1   
    11   10   15 1   
@<TRIPOS>SUBSTRUCTURE
     1 HXX         1 TEMP              0 ****  ****    0 ROOT
