@<TRIPOS>MOLECULE
HXY
   27    28     1     0     0
SMALL
bcc


@<TRIPOS>ATOM
      1 C          -0.1610   -0.2420    0.0780 ca        1 HXY     -0.026900
      2 N           2.5810    1.3840    4.0390 n3        1 HXY     -0.716600
      3 BR         -1.0720   -0.4120   -1.5500 br        1 HXY     -0.092100
      4 C1          1.1840    0.1400    0.0910 ca        1 HXY     -0.107000
      5 C2          1.8610    0.2630    1.3030 ca        1 HXY     -0.118500
      6 C3          1.2010    0.0090    2.5100 ca        1 HXY     -0.071300
      7 C4          1.9400    0.0950    3.8140 c3        1 HXY      0.205100
      8 C5          3.4190    1.4010    5.2420 c3        1 HXY      0.153300
      9 C6          2.9110    2.4800    6.2130 c3        1 HXY     -0.097900
     10 C7          1.7610    3.1790    5.5020 c3        1 HXY     -0.097900
     11 C8          1.6490    2.5120    4.1220 c3        1 HXY      0.153300
     12 C9         -0.1450   -0.3680    2.4910 ca        1 HXY     -0.118500
     13 C10        -0.8250   -0.4960    1.2810 ca        1 HXY     -0.107000
     14 H1          1.7160    0.3450   -0.8510 ha        1 HXY      0.145500
     15 H2          2.9190    0.5680    1.3130 ha        1 HXY      0.144000
     16 H4          1.2350   -0.1800    4.6540 h1        1 HXY      0.040700
     17 H4A         2.7600   -0.6830    3.7950 h1        1 HXY      0.040700
     18 H5          3.4500    0.4010    5.7540 h1        1 HXY      0.048200
     19 H5A         4.4630    1.6460    4.9040 h1        1 HXY      0.048200
     20 H6          3.7310    3.1980    6.4570 hc        1 HXY      0.047200
     21 H6A         2.5690    2.0160    7.1710 hc        1 HXY      0.047200
     22 H7          0.8070    3.0620    6.0720 hc        1 HXY      0.047200
     23 H7A         1.9590    4.2720    5.3900 hc        1 HXY      0.047200
     24 H8          0.5900    2.1950    3.9200 h1        1 HXY      0.048200
     25 H8A         1.9480    3.2390    3.3180 h1        1 HXY      0.048200
     26 H9         -0.6760   -0.5670    3.4350 ha        1 HXY      0.144000
     27 H10        -1.8840   -0.7960    1.2820 ha        1 HXY      0.145500
@<TRIPOS>BOND
     1    1    3 1   
     2    1    4 ar  
     3    1   13 ar  
     4    2    7 1   
     5    2    8 1   
     6    2   11 1   
     7    4    5 ar  
     8    4   14 1   
     9    5    6 ar  
    10    5   15 1   
    11    6    7 1   
    12    6   12 ar  
    13    7   16 1   
    14    7   17 1   
    15    8    9 1   
    16    8   18 1   
    17    8   19 1   
    18    9   10 1   
    19    9   20 1   
    20    9   21 1   
    21   10   11 1   
    22   10   22 1   
    23   10   23 1   
    24   11   24 1   
    25   11   25 1   
    26   12   13 ar  
    27   12   26 1   
    28   13   27 1   
@<TRIPOS>SUBSTRUCTURE
     1 HXY         1 TEMP              0 ****  ****    0 ROOT
