@<TRIPOS>MOLECULE
HXY
   27    28     1     0     0
SMALL
bcc


@<TRIPOS>ATOM
      1 C          -0.1620   -0.2390    0.0770 ca        1 HXY     -0.026900
      2 N           2.5810    1.3820    4.0390 n3        1 HXY     -0.716600
      3 Br         -1.0720   -0.4080   -1.5510 br        1 HXY     -0.092100
      4 C1          1.1830    0.1440    0.0910 ca        1 HXY     -0.107000
      5 C2          1.8590    0.2660    1.3040 ca        1 HXY     -0.118500
      6 C3          1.2000    0.0100    2.5100 ca        1 HXY     -0.071300
      7 C4          1.9380    0.0940    3.8140 c3        1 HXY      0.205100
      8 C5          3.4180    1.3980    5.2430 c3        1 HXY      0.153300
      9 C6          2.9130    2.4780    6.2140 c3        1 HXY     -0.097900
     10 C7          1.7640    3.1790    5.5020 c3        1 HXY     -0.097900
     11 C8          1.6500    2.5120    4.1220 c3        1 HXY      0.153300
     12 C9         -0.1460   -0.3680    2.4900 ca        1 HXY     -0.118500
     13 C10        -0.8250   -0.4950    1.2800 ca        1 HXY     -0.107000
     14 H1          1.7150    0.3500   -0.8510 ha        1 HXY      0.145500
     15 H2          2.9170    0.5710    1.3140 ha        1 HXY      0.144000
     16 H4          1.2320   -0.1790    4.6540 h1        1 HXY      0.040700
     17 H4A         2.7560   -0.6840    3.7960 h1        1 HXY      0.040700
     18 H5          4.4630    1.6400    4.9050 h1        1 HXY      0.048200
     19 H5A         3.4470    0.3980    5.7560 h1        1 HXY      0.048200
     20 H6          2.5700    2.0160    7.1710 hc        1 HXY      0.047200
     21 H6A         3.7340    3.1950    6.4570 hc        1 HXY      0.047200
     22 H7          1.9640    4.2720    5.3900 hc        1 HXY      0.047200
     23 H7A         0.8100    3.0650    6.0720 hc        1 HXY      0.047200
     24 H8          1.9510    3.2380    3.3180 h1        1 HXY      0.048200
     25 H8A         0.5910    2.1960    3.9210 h1        1 HXY      0.048200
     26 H9         -0.6780   -0.5690    3.4330 ha        1 HXY      0.144000
     27 H10        -1.8850   -0.7970    1.2800 ha        1 HXY      0.145500
@<TRIPOS>BOND
     1    1    3 1   
     2    1    4 ar  
     3    1   13 ar  
     4    2    7 1   
     5    2    8 1   
     6    2   11 1   
     7    4    5 ar  
     8    4   14 1   
     9    5    6 ar  
    10    5   15 1   
    11    6    7 1   
    12    6   12 ar  
    13    7   16 1   
    14    7   17 1   
    15    8    9 1   
    16    8   18 1   
    17    8   19 1   
    18    9   10 1   
    19    9   20 1   
    20    9   21 1   
    21   10   11 1   
    22   10   22 1   
    23   10   23 1   
    24   11   24 1   
    25   11   25 1   
    26   12   13 ar  
    27   12   26 1   
    28   13   27 1   
@<TRIPOS>SUBSTRUCTURE
     1 HXY         1 TEMP              0 ****  ****    0 ROOT
