@<TRIPOS>MOLECULE
HXZ
   48    49     1     0     0
SMALL
bcc


@<TRIPOS>ATOM
      1 C1          1.5300    0.0000    0.0000 c3        1 HXZ     -0.032400
      2 N1         -1.6410    3.2010   -0.0220 n         1 HXZ      0.108000
      3 O1          0.4230   -2.0980   -4.5220 os        1 HXZ     -0.487800
      4 P1         -0.2810   -2.4400   -3.1140 p5        1 HXZ      0.948800
      5 C2         -2.8260    2.8420   -0.5480 c         1 HXZ      0.575500
      6 O2         -3.1000    1.6620   -0.6570 o         1 HXZ     -0.715500
      7 P2          0.1840   -2.5830   -6.0380 p5        1 HXZ      1.000800
      8 C3          2.0400   -1.3220    0.5790 c3        1 HXZ      0.005900
      9 N3         -3.7130    3.7700   -0.9520 ns        1 HXZ     -0.151500
     10 O3          1.5100   -2.3000   -6.9070 os        1 HXZ     -0.483800
     11 P3          2.0330   -2.8030   -8.3450 p5        1 HXZ      0.831900
     12 C4         -3.4240    5.0820   -0.8370 c         1 HXZ      0.592700
     13 O4         -4.2260    5.9230   -1.2020 o         1 HXZ     -0.822500
     14 C5         -2.1800    5.4740   -0.2860 cc        1 HXZ     -0.373400
     15 O5          3.6270   -2.5970   -8.4370 o         1 HXZ     -0.649833
     16 C6         -1.3090    4.5220    0.1110 cd        1 HXZ     -0.356400
     17 O6          1.7100   -4.2370   -8.5130 o         1 HXZ     -0.649833
     18 O7          1.3130   -1.9510   -9.5050 o         1 HXZ     -0.649833
     19 O8         -1.0550   -1.7720   -6.6710 o         1 HXZ     -0.673500
     20 O9         -0.1150   -4.0320   -6.0520 o         1 HXZ     -0.673500
     21 C1'        -0.6970    2.1690    0.4140 c3        1 HXZ      0.221500
     22 O10        -1.7460   -2.5350   -3.3060 o         1 HXZ     -0.702500
     23 O11         0.2800   -3.8440   -2.5600 o         1 HXZ     -0.702500
     24 C2'        -1.3030    1.3320    1.5710 c3        1 HXZ     -0.128400
     25 C3'        -0.5240    0.0000    1.4490 c3        1 HXZ      0.156100
     26 O3'         0.5620   -0.0320    2.3770 oh        1 HXZ     -0.582800
     27 C4'         0.0000    0.0000    0.0000 c3        1 HXZ      0.138800
     28 O4'        -0.4850    1.1970   -0.6330 os        1 HXZ     -0.325600
     29 C5'        -0.5190   -1.2330   -0.7420 c3        1 HXZ      0.301400
     30 O5'         0.0480   -1.2740   -2.0530 os        1 HXZ     -0.488200
     31 C5M        -1.8320    6.9340   -0.1460 c3        1 HXZ      0.137100
     32 H1A         1.8910    0.1130   -1.0150 hc        1 HXZ      0.019200
     33 H3B         2.8530   -1.1250    1.2670 hc        1 HXZ     -0.001967
     34 H3A         1.2350   -1.8210    1.1040 hc        1 HXZ     -0.001967
     35 HN3        -4.5900    3.4850   -1.3410 hn        1 HXZ      0.174500
     36 H6         -0.4000    4.8020    0.6310 h4        1 HXZ      0.108000
     37 H1'         0.2450    2.6090    0.7190 h2        1 HXZ      0.013700
     38 H2'        -1.1110    1.8030    2.5270 hc        1 HXZ      0.027700
     39 H2'A       -2.3630    1.1730    1.4160 hc        1 HXZ      0.027700
     40 H3'        -1.1890   -0.8400    1.6080 h1        1 HXZ      0.014700
     41 HO3'        0.2320   -0.2140    3.2410 ho        1 HXZ      0.351000
     42 H5'        -1.5990   -1.1810   -0.8160 h1        1 HXZ     -0.013800
     43 H5'A       -0.2370   -2.1270   -0.1980 h1        1 HXZ     -0.013800
     44 H5M        -2.1920    7.3000    0.8070 hc        1 HXZ     -0.029633
     45 H5MA       -2.2980    7.4940   -0.9480 hc        1 HXZ     -0.029633
     46 H5MB       -0.7570    7.0550   -0.1980 hc        1 HXZ     -0.029633
     47 H1B         1.8910    0.8230    0.6050 hc        1 HXZ      0.019200
     48 H3C         2.3940   -1.9560   -0.2260 hc        1 HXZ     -0.001967
@<TRIPOS>BOND
     1    1    8 1   
     2    1   27 1   
     3    1   32 1   
     4    1   47 1   
     5    2    5 1   
     6    2   16 1   
     7    2   21 1   
     8    3    4 1   
     9    3    7 1   
    10    4   22 1   
    11    4   23 1   
    12    4   30 1   
    13    5    6 2   
    14    5    9 1   
    15    7   10 1   
    16    7   19 1   
    17    7   20 1   
    18    8   33 1   
    19    8   34 1   
    20    8   48 1   
    21    9   12 1   
    22    9   35 1   
    23   10   11 1   
    24   11   15 1   
    25   11   17 1   
    26   11   18 1   
    27   12   13 2   
    28   12   14 1   
    29   14   16 2   
    30   14   31 1   
    31   16   36 1   
    32   21   24 1   
    33   21   28 1   
    34   21   37 1   
    35   24   25 1   
    36   24   38 1   
    37   24   39 1   
    38   25   26 1   
    39   25   27 1   
    40   25   40 1   
    41   26   41 1   
    42   27   28 1   
    43   27   29 1   
    44   29   30 1   
    45   29   42 1   
    46   29   43 1   
    47   31   44 1   
    48   31   45 1   
    49   31   46 1   
@<TRIPOS>SUBSTRUCTURE
     1 HXZ         1 TEMP              0 ****  ****    0 ROOT
