@<TRIPOS>MOLECULE
HY1
   17    14     1     0     0
SMALL
bcc


@<TRIPOS>ATOM
      1 C1'        -0.1650   -0.2700   -0.3150 c1        1 HY1     -0.051100
      2 C2'         1.2210   -0.2570   -0.3290 c1        1 HY1     -0.069500
      3 C3'         1.9260   -0.2440    0.8640 c1        1 HY1     -0.069500
      4 C4'         1.2450   -0.2430    2.0710 c1        1 HY1     -0.069500
      5 C5'        -0.1410   -0.2550    2.0850 c1        1 HY1     -0.069500
      6 C6'        -0.8460   -0.2690    0.8920 c1        1 HY1     -0.062500
      7 CA         -0.9350   -0.2680   -1.6180 c3        1 HY1     -0.194300
      8 C          -1.2190    1.1590   -2.0340 c         1 HY1      0.569900
      9 O          -2.0970    1.7910   -1.4770 o         1 HY1     -0.526100
     10 H2          1.7000   -0.2580   -1.1790 ha        1 HY1      0.075500
     11 H3          2.9020   -0.2350    0.8540 ha        1 HY1      0.075500
     12 H4          1.7410   -0.2330    2.9120 ha        1 HY1      0.075500
     13 H5         -0.6210   -0.2550    2.9360 ha        1 HY1      0.075500
     14 H6         -1.8220   -0.2780    0.9020 ha        1 HY1      0.077500
     15 HA1        -0.4050   -0.7100   -2.3110 hc        1 HY1      0.081200
     16 HA2        -1.7790   -0.7470   -1.4980 hc        1 HY1      0.081200
     17 H          -0.7030    1.5690   -2.7560 h4        1 HY1      0.001200
@<TRIPOS>BOND
     1    1    6 3   
     2    1    7 1   
     3    2    3 3   
     4    2   10 1   
     5    3   11 1   
     6    4    5 3   
     7    4   12 1   
     8    5   13 1   
     9    6   14 1   
    10    7    8 1   
    11    7   15 1   
    12    7   16 1   
    13    8    9 2   
    14    8   17 1   
@<TRIPOS>SUBSTRUCTURE
     1 HY1         1 TEMP              0 ****  ****    0 ROOT
