@<TRIPOS>MOLECULE
HY1
   17    17     1     0     0
SMALL
bcc


@<TRIPOS>ATOM
      1 C1'        -0.0870   -0.0300    0.0420 ca        1 HY1     -0.085300
      2 C2'         1.3080   -0.1450   -0.0120 ca        1 HY1     -0.125000
      3 C3'         2.0600   -0.1240    1.1610 ca        1 HY1     -0.126000
      4 C4'         1.4260    0.0130    2.3960 ca        1 HY1     -0.126000
      5 C5'         0.0380    0.1290    2.4550 ca        1 HY1     -0.126000
      6 C6'        -0.7180    0.1070    1.2840 ca        1 HY1     -0.125000
      7 CA         -0.8870   -0.0430   -1.2100 c3        1 HY1     -0.160100
      8 C          -0.8450   -1.3790   -1.8960 c         1 HY1      0.569900
      9 O          -1.7710   -1.7990   -2.5880 o         1 HY1     -0.526100
     10 H2          1.8100   -0.2480   -0.9850 ha        1 HY1      0.132500
     11 H3          3.1550   -0.2150    1.1110 ha        1 HY1      0.134000
     12 H4          2.0210    0.0290    3.3210 ha        1 HY1      0.134000
     13 H5         -0.4640    0.2380    3.4280 ha        1 HY1      0.134000
     14 H6         -1.8130    0.1990    1.3360 ha        1 HY1      0.132500
     15 HA1        -0.4750    0.7190   -1.9300 hc        1 HY1      0.081200
     16 HA2        -1.9550    0.2410   -1.0040 hc        1 HY1      0.081200
     17 H           0.0910   -1.9630   -1.7470 h4        1 HY1      0.001200
@<TRIPOS>BOND
     1    1    2 ar  
     2    1    6 ar  
     3    1    7 1   
     4    2    3 ar  
     5    2   10 1   
     6    3    4 ar  
     7    3   11 1   
     8    4    5 ar  
     9    4   12 1   
    10    5    6 ar  
    11    5   13 1   
    12    6   14 1   
    13    7    8 1   
    14    7   15 1   
    15    7   16 1   
    16    8    9 2   
    17    8   17 1   
@<TRIPOS>SUBSTRUCTURE
     1 HY1         1 TEMP              0 ****  ****    0 ROOT
