@<TRIPOS>MOLECULE
HY1
   17    17     1     0     0
SMALL
bcc


@<TRIPOS>ATOM
      1 C1'        -0.0910   -0.0310    0.0440 ca        1 HY1     -0.085300
      2 C2'         1.3040   -0.1400   -0.0240 ca        1 HY1     -0.125000
      3 C3'         2.0690   -0.1160    1.1400 ca        1 HY1     -0.126000
      4 C4'         1.4480    0.0180    2.3820 ca        1 HY1     -0.126000
      5 C5'         0.0600    0.1290    2.4560 ca        1 HY1     -0.126000
      6 C6'        -0.7080    0.1030    1.2930 ca        1 HY1     -0.125000
      7 CA         -0.9040   -0.0470   -1.1990 c3        1 HY1     -0.160100
      8 C          -0.8640   -1.3830   -1.8840 c         1 HY1      0.569900
      9 O          -1.7960   -1.8080   -2.5650 o         1 HY1     -0.526100
     10 H2          1.7960   -0.2410   -1.0030 ha        1 HY1      0.132500
     11 H3          3.1630   -0.2020    1.0790 ha        1 HY1      0.134000
     12 H4          2.0520    0.0380    3.3010 ha        1 HY1      0.134000
     13 H5         -0.4330    0.2350    3.4340 ha        1 HY1      0.134000
     14 H6         -1.8040    0.1900    1.3570 ha        1 HY1      0.132500
     15 HA1        -0.5030    0.7160   -1.9230 hc        1 HY1      0.081200
     16 HA2        -1.9700    0.2330   -0.9810 hc        1 HY1      0.081200
     17 H           0.0760   -1.9640   -1.7460 h4        1 HY1      0.001200
@<TRIPOS>BOND
     1    1    2 ar  
     2    1    6 ar  
     3    1    7 1   
     4    2    3 ar  
     5    2   10 1   
     6    3    4 ar  
     7    3   11 1   
     8    4    5 ar  
     9    4   12 1   
    10    5    6 ar  
    11    5   13 1   
    12    6   14 1   
    13    7    8 1   
    14    7   15 1   
    15    7   16 1   
    16    8    9 2   
    17    8   17 1   
@<TRIPOS>SUBSTRUCTURE
     1 HY1         1 TEMP              0 ****  ****    0 ROOT
