@<TRIPOS>MOLECULE
HY1
   17    17     1     0     0
SMALL
bcc


@<TRIPOS>ATOM
      1 C1'         0.0600    0.3860   -0.0430 ca        1 HY1     -0.085300
      2 C2'         1.1840   -0.0290    0.6830 ca        1 HY1     -0.125000
      3 C3'         1.0600   -0.3950    2.0210 ca        1 HY1     -0.126000
      4 C4'        -0.1860   -0.3490    2.6470 ca        1 HY1     -0.126000
      5 C5'        -1.3080    0.0650    1.9290 ca        1 HY1     -0.126000
      6 C6'        -1.1870    0.4300    0.5890 ca        1 HY1     -0.125000
      7 CA          0.1950    0.7850   -1.4680 c3        1 HY1     -0.160100
      8 C           0.5580   -0.3760   -2.3490 c         1 HY1      0.569900
      9 O           0.2250   -0.4410   -3.5320 o         1 HY1     -0.526100
     10 H2          2.1680   -0.0610    0.1930 ha        1 HY1      0.132500
     11 H3          1.9470   -0.7200    2.5850 ha        1 HY1      0.134000
     12 H4         -0.2830   -0.6370    3.7040 ha        1 HY1      0.134000
     13 H5         -2.2920    0.1030    2.4200 ha        1 HY1      0.134000
     14 H6         -2.0760    0.7560    0.0280 ha        1 HY1      0.132500
     15 HA1         1.0120    1.5540   -1.5690 hc        1 HY1      0.081200
     16 HA2        -0.7520    1.2600   -1.8400 hc        1 HY1      0.081200
     17 H           1.1650   -1.1740   -1.8640 h4        1 HY1      0.001200
@<TRIPOS>BOND
     1    1    2 ar  
     2    1    6 ar  
     3    1    7 1   
     4    2    3 ar  
     5    2   10 1   
     6    3    4 ar  
     7    3   11 1   
     8    4    5 ar  
     9    4   12 1   
    10    5    6 ar  
    11    5   13 1   
    12    6   14 1   
    13    7    8 1   
    14    7   15 1   
    15    7   16 1   
    16    8    9 2   
    17    8   17 1   
@<TRIPOS>SUBSTRUCTURE
     1 HY1         1 TEMP              0 ****  ****    0 ROOT
