@<TRIPOS>MOLECULE
HY2
   83    89     1     0     0
SMALL
bcc


@<TRIPOS>ATOM
      1 C1         -0.3520    0.3370    0.7640 c3        1 HY2     -0.085400
      2 O2          6.7850   -2.3130   -0.8580 os        1 HY2     -0.305900
      3 C3          0.8100   -0.3780    2.8070 c3        1 HY2      0.101000
      4 N4          1.7700   -0.2460    1.7290 n         1 HY2     -0.473800
      5 O5          3.5330   -0.9820    2.9630 o         1 HY2     -0.647500
      6 C7          5.8440   -1.3450   -0.5620 ca        1 HY2      0.067100
      7 C9          4.8840    0.7880   -1.2440 ca        1 HY2     -0.253000
      8 N10         3.1230    1.8370    0.0870 nu        1 HY2     -0.718600
      9 C11         1.6880    1.6730    0.1120 c3        1 HY2      0.169800
     10 C12         6.9960   -3.2910    0.1550 c3        1 HY2      0.108700
     11 C13         6.7750    0.8880   -3.3170 c3        1 HY2      0.125400
     12 O13         6.7440   -0.2570   -2.4550 os        1 HY2     -0.301900
     13 C14         7.9050    0.6250   -4.2990 c3        1 HY2     -0.088400
     14 C15         7.9160    1.7330   -5.3500 c3        1 HY2      0.173800
     15 N16         9.1000    1.7260   -6.1970 n3        1 HY2     -0.727600
     16 C17         9.1460    2.9060   -7.0510 c3        1 HY2      0.166800
     17 C18        10.3590    2.9200   -8.0000 c3        1 HY2      0.170300
     18 N19        10.4870    1.6880   -8.7640 n3        1 HY2     -0.734600
     19 C1A         1.1740    0.2740    0.5160 c3        1 HY2      0.107700
     20 C20        10.4610    0.5110   -7.9080 c3        1 HY2      0.170300
     21 C21         9.2520    0.4920   -6.9530 c3        1 HY2      0.166800
     22 C22        11.6320    1.7050   -9.6630 c3        1 HY2      0.155800
     23 C23        11.3560    0.8680  -10.9350 c3        1 HY2      0.083000
     24 N24        12.5000    0.8070  -11.8310 n         1 HY2     -0.492400
     25 C25        13.3670   -0.2980  -11.7510 c         1 HY2      0.720100
     26 O25        13.1520   -1.1970  -10.9160 o         1 HY2     -0.611500
     27 C26        14.5180   -0.3650  -12.6840 ca        1 HY2     -0.153600
     28 C27        15.3740   -1.4480  -12.6510 ca        1 HY2     -0.035500
     29 C28        16.4700   -1.5120  -13.5420 ca        1 HY2     -0.150000
     30 C29        16.6970   -0.5020  -14.4470 ca        1 HY2     -0.076000
     31 C2D        -0.5720   -0.0290    2.2290 c3        1 HY2     -0.091400
     32 C30        15.8330    0.6260  -14.5020 ca        1 HY2     -0.063000
     33 C31        16.0330    1.6900  -15.4230 ca        1 HY2     -0.076000
     34 C32        15.1770    2.7650  -15.4470 ca        1 HY2     -0.150000
     35 C33        14.0810    2.8330  -14.5550 ca        1 HY2     -0.035500
     36 C34        14.7350    0.6910  -13.6100 ca        1 HY2      0.018000
     37 C35        13.8620    1.8120  -13.6510 ca        1 HY2     -0.153600
     38 C36        12.7150    1.8820  -12.7130 c         1 HY2      0.720100
     39 O36        11.9440    2.8600  -12.6960 o         1 HY2     -0.611500
     40 C5A         3.9990   -0.3870    0.6900 ca        1 HY2     -0.158600
     41 C5D         3.1090   -0.5410    1.8740 c         1 HY2      0.738100
     42 C6D         4.9400   -1.4080    0.4890 ca        1 HY2     -0.112000
     43 C8D         5.8150   -0.2260   -1.4400 ca        1 HY2      0.156100
     44 C9A         3.9580    0.7300   -0.1680 ca        1 HY2      0.162600
     45 H6D         4.9560   -2.2490    1.2020 ha        1 HY2      0.163000
     46 H9          4.8690    1.6540   -1.9210 ha        1 HY2      0.138000
     47 HN10        3.3750    2.6250   -0.4790 hn        1 HY2      0.387800
     48 H11         1.3020    2.4390    0.8450 h1        1 HY2      0.040700
     49 H1         -0.8700   -0.3890    0.0910 hc        1 HY2      0.053200
     50 H1A         1.3990   -0.4380   -0.3320 h1        1 HY2      0.059700
     51 H1B        -0.7510    1.3570    0.5410 hc        1 HY2      0.053200
     52 H17         9.2240    3.8100   -6.3850 h1        1 HY2      0.037700
     53 H17A        8.2050    3.0110   -7.6680 h1        1 HY2      0.037700
     54 H18        11.2880    3.1360   -7.3960 h1        1 HY2      0.040700
     55 H18A       10.2130    3.7670   -8.7270 h1        1 HY2      0.040700
     56 H20        11.4060    0.4210   -7.2950 h1        1 HY2      0.040700
     57 H20A       10.3930   -0.3970   -8.5690 h1        1 HY2      0.040700
     58 H21         8.3230    0.2510   -7.5490 h1        1 HY2      0.037700
     59 H21A        9.4180   -0.3430   -6.2160 h1        1 HY2      0.037700
     60 H22        12.5630    1.3150   -9.1580 h1        1 HY2      0.044700
     61 H2D        -1.2630   -0.9010    2.3230 hc        1 HY2      0.053200
     62 H2DA       -1.0190    0.8270    2.7920 hc        1 HY2      0.053200
     63 H22A       11.8330    2.7660   -9.9860 h1        1 HY2      0.044700
     64 H23        11.0780   -0.1860  -10.6490 h1        1 HY2      0.080700
     65 H23A       10.4960    1.3310  -11.4980 h1        1 HY2      0.080700
     66 H29        17.5490   -0.5490  -15.1420 ha        1 HY2      0.140000
     67 H28        17.1390   -2.3850  -13.4980 ha        1 HY2      0.145000
     68 H27        15.2010   -2.2640  -11.9290 ha        1 HY2      0.165000
     69 H31        16.8880    1.6350  -16.1160 ha        1 HY2      0.140000
     70 H32        15.3320    3.5890  -16.1600 ha        1 HY2      0.145000
     71 H33        13.4000    3.7000  -14.5820 ha        1 HY2      0.165000
     72 H3          0.8370   -1.4300    3.2030 h1        1 HY2      0.055200
     73 H13         5.7900    0.9830   -3.8470 h1        1 HY2      0.038700
     74 H3A         1.0840    0.3130    3.6510 h1        1 HY2      0.055200
     75 H13A        6.9690    1.8120   -2.7120 h1        1 HY2      0.038700
     76 H12         6.0960   -3.9440    0.2600 h1        1 HY2      0.045367
     77 H12A        7.8660   -3.8800   -0.2330 h1        1 HY2      0.045367
     78 H12B        7.2460   -2.8110    1.1320 h1        1 HY2      0.045367
     79 H14         7.7500   -0.3760   -4.7790 hc        1 HY2      0.068700
     80 H14A        8.8790    0.5870   -3.7460 hc        1 HY2      0.068700
     81 H15         7.8940    2.7290   -4.8200 h1        1 HY2      0.029200
     82 H15A        6.9660    1.6540   -5.9600 h1        1 HY2      0.029200
     83 H11A        1.2300    1.9020   -0.8960 h1        1 HY2      0.040700
@<TRIPOS>BOND
     1    1   19 1   
     2    1   31 1   
     3    1   49 1   
     4    1   51 1   
     5    2    6 1   
     6    2   10 1   
     7    3    4 1   
     8    3   31 1   
     9    3   72 1   
    10    3   74 1   
    11    4   19 1   
    12    4   41 1   
    13    5   41 2   
    14    6   42 ar  
    15    6   43 ar  
    16    7   43 ar  
    17    7   44 ar  
    18    7   46 1   
    19    8    9 1   
    20    8   44 1   
    21    8   47 1   
    22    9   19 1   
    23    9   48 1   
    24    9   83 1   
    25   10   76 1   
    26   10   77 1   
    27   10   78 1   
    28   11   12 1   
    29   11   13 1   
    30   11   73 1   
    31   11   75 1   
    32   12   43 1   
    33   13   14 1   
    34   13   79 1   
    35   13   80 1   
    36   14   15 1   
    37   14   81 1   
    38   14   82 1   
    39   15   16 1   
    40   15   21 1   
    41   16   17 1   
    42   16   52 1   
    43   16   53 1   
    44   17   18 1   
    45   17   54 1   
    46   17   55 1   
    47   18   20 1   
    48   18   22 1   
    49   19   50 1   
    50   20   21 1   
    51   20   56 1   
    52   20   57 1   
    53   21   58 1   
    54   21   59 1   
    55   22   23 1   
    56   22   60 1   
    57   22   63 1   
    58   23   24 1   
    59   23   64 1   
    60   23   65 1   
    61   24   25 1   
    62   24   38 1   
    63   25   26 2   
    64   25   27 1   
    65   27   28 ar  
    66   27   36 ar  
    67   28   29 ar  
    68   28   68 1   
    69   29   30 ar  
    70   29   67 1   
    71   30   32 ar  
    72   30   66 1   
    73   31   61 1   
    74   31   62 1   
    75   32   33 ar  
    76   32   36 ar  
    77   33   34 ar  
    78   33   69 1   
    79   34   35 ar  
    80   34   70 1   
    81   35   37 ar  
    82   35   71 1   
    83   36   37 ar  
    84   37   38 1   
    85   38   39 2   
    86   40   41 1   
    87   40   42 ar  
    88   40   44 ar  
    89   42   45 1   
@<TRIPOS>SUBSTRUCTURE
     1 HY2         1 TEMP              0 ****  ****    0 ROOT
