@<TRIPOS>MOLECULE
HY2
   83    89     1     0     0
SMALL
bcc


@<TRIPOS>ATOM
      1 C1         -0.3520    0.3400    0.7620 c3        1 HY2     -0.085400
      2 O2          6.7820   -2.3160   -0.8590 os        1 HY2     -0.305900
      3 C3          0.8080   -0.3780    2.8040 c3        1 HY2      0.101000
      4 N4          1.7680   -0.2470    1.7280 n         1 HY2     -0.473800
      5 O5          3.5300   -0.9860    2.9620 o         1 HY2     -0.647500
      6 C7          5.8430   -1.3470   -0.5630 ca        1 HY2      0.067100
      7 C9          4.8860    0.7870   -1.2420 ca        1 HY2     -0.253000
      8 N10         3.1250    1.8370    0.0890 nh        1 HY2     -0.718600
      9 C11         1.6900    1.6740    0.1120 c3        1 HY2      0.169800
     10 C12         6.9940   -3.2940    0.1540 c3        1 HY2      0.108700
     11 C13         6.7770    0.8880   -3.3150 c3        1 HY2      0.125400
     12 O13         6.7460   -0.2580   -2.4530 os        1 HY2     -0.301900
     13 C14         7.9070    0.6240   -4.2960 c3        1 HY2     -0.088400
     14 C15         7.9180    1.7320   -5.3470 c3        1 HY2      0.173800
     15 N16         9.1030    1.7260   -6.1950 n3        1 HY2     -0.727600
     16 C17         9.1480    2.9050   -7.0490 c3        1 HY2      0.166800
     17 C18        10.3610    2.9190   -7.9980 c3        1 HY2      0.170300
     18 N19        10.4880    1.6870   -8.7620 n3        1 HY2     -0.734600
     19 C1A         1.1740    0.2760    0.5150 c3        1 HY2      0.107700
     20 C20        10.4630    0.5100   -7.9060 c3        1 HY2      0.170300
     21 C21         9.2540    0.4910   -6.9510 c3        1 HY2      0.166800
     22 C22        11.6330    1.7040   -9.6610 c3        1 HY2      0.155800
     23 C23        11.3570    0.8660  -10.9340 c3        1 HY2      0.083000
     24 N24        12.5000    0.8070  -11.8310 n         1 HY2     -0.492400
     25 C25        13.3680   -0.2970  -11.7520 c         1 HY2      0.720100
     26 O25        13.1550   -1.1960  -10.9170 o         1 HY2     -0.611500
     27 C26        14.5190   -0.3630  -12.6850 ca        1 HY2     -0.153600
     28 C27        15.3750   -1.4460  -12.6530 ca        1 HY2     -0.035500
     29 C28        16.4710   -1.5080  -13.5460 ca        1 HY2     -0.150000
     30 C29        16.6950   -0.4980  -14.4500 ca        1 HY2     -0.076000
     31 C2D        -0.5730   -0.0270    2.2270 c3        1 HY2     -0.091400
     32 C30        15.8300    0.6290  -14.5050 ca        1 HY2     -0.063000
     33 C31        16.0290    1.6940  -15.4260 ca        1 HY2     -0.076000
     34 C32        15.1710    2.7680  -15.4490 ca        1 HY2     -0.150000
     35 C33        14.0760    2.8340  -14.5560 ca        1 HY2     -0.035500
     36 C34        14.7320    0.6930  -13.6120 ca        1 HY2      0.018000
     37 C35        13.8590    1.8140  -13.6520 ca        1 HY2     -0.153600
     38 C36        12.7130    1.8820  -12.7130 c         1 HY2      0.720100
     39 O36        11.9410    2.8590  -12.6950 o         1 HY2     -0.611500
     40 C5A         3.9980   -0.3890    0.6900 ca        1 HY2     -0.158600
     41 C5D         3.1070   -0.5440    1.8730 c         1 HY2      0.738100
     42 C6D         4.9380   -1.4100    0.4880 ca        1 HY2     -0.112000
     43 C8D         5.8160   -0.2270   -1.4390 ca        1 HY2      0.156100
     44 C9A         3.9590    0.7290   -0.1670 ca        1 HY2      0.162600
     45 H6D         4.9530   -2.2520    1.2000 ha        1 HY2      0.163000
     46 H9          4.8720    1.6550   -1.9180 ha        1 HY2      0.138000
     47 HN10        3.3780    2.6250   -0.4760 hn        1 HY2      0.387800
     48 H11         1.2330    1.9050   -0.8960 h1        1 HY2      0.040700
     49 H1         -0.7500    1.3600    0.5390 hc        1 HY2      0.053200
     50 H1A         1.3990   -0.4360   -0.3340 h1        1 HY2      0.059700
     51 H1B        -0.8710   -0.3850    0.0880 hc        1 HY2      0.053200
     52 H17         9.2270    3.8090   -6.3830 h1        1 HY2      0.037700
     53 H17A        8.2070    3.0100   -7.6650 h1        1 HY2      0.037700
     54 H18        11.2900    3.1340   -7.3940 h1        1 HY2      0.040700
     55 H18A       10.2150    3.7660   -8.7260 h1        1 HY2      0.040700
     56 H20        10.3940   -0.3980   -8.5670 h1        1 HY2      0.040700
     57 H20A       11.4080    0.4200   -7.2930 h1        1 HY2      0.040700
     58 H21         9.4210   -0.3440   -6.2130 h1        1 HY2      0.037700
     59 H21A        8.3250    0.2500   -7.5460 h1        1 HY2      0.037700
     60 H22        12.5650    1.3140   -9.1570 h1        1 HY2      0.044700
     61 H2D        -1.2650   -0.8980    2.3200 hc        1 HY2      0.053200
     62 H2DA       -1.0200    0.8290    2.7900 hc        1 HY2      0.053200
     63 H22A       11.8340    2.7650   -9.9850 h1        1 HY2      0.044700
     64 H23        10.4950    1.3280  -11.4950 h1        1 HY2      0.080700
     65 H23A       11.0800   -0.1880  -10.6470 h1        1 HY2      0.080700
     66 H29        17.5470   -0.5430  -15.1470 ha        1 HY2      0.140000
     67 H28        17.1400   -2.3810  -13.5030 ha        1 HY2      0.145000
     68 H27        15.2040   -2.2620  -11.9310 ha        1 HY2      0.165000
     69 H31        16.8820    1.6400  -16.1190 ha        1 HY2      0.140000
     70 H32        15.3240    3.5920  -16.1620 ha        1 HY2      0.145000
     71 H33        13.3940    3.7010  -14.5820 ha        1 HY2      0.165000
     72 H3          1.0830    0.3110    3.6500 h1        1 HY2      0.055200
     73 H13         5.7930    0.9830   -3.8450 h1        1 HY2      0.038200
     74 H3A         0.8330   -1.4310    3.2000 h1        1 HY2      0.055200
     75 H13A        6.9730    1.8110   -2.7090 h1        1 HY2      0.038200
     76 H12         6.0930   -3.9470    0.2590 h1        1 HY2      0.045367
     77 H12A        7.8630   -3.8830   -0.2340 h1        1 HY2      0.045367
     78 H12B        7.2440   -2.8140    1.1310 h1        1 HY2      0.045367
     79 H14         7.7520   -0.3760   -4.7770 hc        1 HY2      0.068700
     80 H14A        8.8810    0.5860   -3.7440 hc        1 HY2      0.068700
     81 H15         7.8970    2.7280   -4.8170 h1        1 HY2      0.029200
     82 H15A        6.9690    1.6540   -5.9570 h1        1 HY2      0.029200
     83 H11A        1.3040    2.4400    0.8470 h1        1 HY2      0.040700
@<TRIPOS>BOND
     1    1   19 1   
     2    1   31 1   
     3    1   49 1   
     4    1   51 1   
     5    2    6 1   
     6    2   10 1   
     7    3    4 1   
     8    3   31 1   
     9    3   72 1   
    10    3   74 1   
    11    4   19 1   
    12    4   41 1   
    13    5   41 2   
    14    6   42 ar  
    15    6   43 ar  
    16    7   43 ar  
    17    7   44 ar  
    18    7   46 1   
    19    8    9 1   
    20    8   44 1   
    21    8   47 1   
    22    9   19 1   
    23    9   48 1   
    24    9   83 1   
    25   10   76 1   
    26   10   77 1   
    27   10   78 1   
    28   11   12 1   
    29   11   13 1   
    30   11   73 1   
    31   11   75 1   
    32   12   43 1   
    33   13   14 1   
    34   13   79 1   
    35   13   80 1   
    36   14   15 1   
    37   14   81 1   
    38   14   82 1   
    39   15   16 1   
    40   15   21 1   
    41   16   17 1   
    42   16   52 1   
    43   16   53 1   
    44   17   18 1   
    45   17   54 1   
    46   17   55 1   
    47   18   20 1   
    48   18   22 1   
    49   19   50 1   
    50   20   21 1   
    51   20   56 1   
    52   20   57 1   
    53   21   58 1   
    54   21   59 1   
    55   22   23 1   
    56   22   60 1   
    57   22   63 1   
    58   23   24 1   
    59   23   64 1   
    60   23   65 1   
    61   24   25 1   
    62   24   38 1   
    63   25   26 2   
    64   25   27 1   
    65   27   28 ar  
    66   27   36 ar  
    67   28   29 ar  
    68   28   68 1   
    69   29   30 ar  
    70   29   67 1   
    71   30   32 ar  
    72   30   66 1   
    73   31   61 1   
    74   31   62 1   
    75   32   33 ar  
    76   32   36 ar  
    77   33   34 ar  
    78   33   69 1   
    79   34   35 ar  
    80   34   70 1   
    81   35   37 ar  
    82   35   71 1   
    83   36   37 ar  
    84   37   38 1   
    85   38   39 2   
    86   40   41 1   
    87   40   42 ar  
    88   40   44 ar  
    89   42   45 1   
@<TRIPOS>SUBSTRUCTURE
     1 HY2         1 TEMP              0 ****  ****    0 ROOT
