@<TRIPOS>MOLECULE
HY2
   83    89     1     0     0
SMALL
bcc


@<TRIPOS>ATOM
      1 C1         -0.3510    0.3400    0.7740 c3        1 HY2     -0.085400
      2 O2          6.7820   -2.3130   -0.8610 os        1 HY2     -0.305900
      3 C3          0.8160   -0.3720    2.8150 c3        1 HY2      0.101000
      4 N4          1.7730   -0.2420    1.7350 n         1 HY2     -0.473800
      5 O5          3.5390   -0.9770    2.9650 o         1 HY2     -0.647500
      6 C7          5.8420   -1.3450   -0.5650 ca        1 HY2      0.067100
      7 C9          4.8810    0.7870   -1.2470 ca        1 HY2     -0.253000
      8 N10         3.1230    1.8380    0.0870 nh        1 HY2     -0.718600
      9 C11         1.6880    1.6740    0.1150 c3        1 HY2      0.169800
     10 C12         6.9950   -3.2910    0.1520 c3        1 HY2      0.108700
     11 C13         6.7690    0.8860   -3.3230 c3        1 HY2      0.125400
     12 O13         6.7380   -0.2600   -2.4610 os        1 HY2     -0.301900
     13 C14         7.8990    0.6220   -4.3050 c3        1 HY2     -0.088400
     14 C15         7.9100    1.7310   -5.3550 c3        1 HY2      0.173800
     15 N16         9.0950    1.7240   -6.2020 n3        1 HY2     -0.727600
     16 C17         9.1420    2.9050   -7.0550 c3        1 HY2      0.166800
     17 C18        10.3560    2.9180   -8.0030 c3        1 HY2      0.170300
     18 N19        10.4840    1.6870   -8.7680 n3        1 HY2     -0.734600
     19 C1A         1.1750    0.2760    0.5230 c3        1 HY2      0.107700
     20 C20        10.4570    0.5090   -7.9120 c3        1 HY2      0.170300
     21 C21         9.2470    0.4900   -6.9590 c3        1 HY2      0.166800
     22 C22        11.6300    1.7040   -9.6650 c3        1 HY2      0.155800
     23 C23        11.3550    0.8670  -10.9390 c3        1 HY2      0.083000
     24 N24        12.5010    0.8070  -11.8330 n         1 HY2     -0.492400
     25 C25        13.3670   -0.2990  -11.7520 c         1 HY2      0.720100
     26 O25        13.1510   -1.1980  -10.9180 o         1 HY2     -0.611500
     27 C26        14.5200   -0.3650  -12.6830 ca        1 HY2     -0.153600
     28 C27        15.3750   -1.4490  -12.6490 ca        1 HY2     -0.035500
     29 C28        16.4730   -1.5130  -13.5390 ca        1 HY2     -0.150000
     30 C29        16.7010   -0.5020  -14.4420 ca        1 HY2     -0.076000
     31 C2D        -0.5670   -0.0240    2.2400 c3        1 HY2     -0.091400
     32 C30        15.8380    0.6260  -14.4990 ca        1 HY2     -0.063000
     33 C31        16.0400    1.6900  -15.4190 ca        1 HY2     -0.076000
     34 C32        15.1840    2.7660  -15.4430 ca        1 HY2     -0.150000
     35 C33        14.0870    2.8330  -14.5530 ca        1 HY2     -0.035500
     36 C34        14.7380    0.6910  -13.6080 ca        1 HY2      0.018000
     37 C35        13.8660    1.8120  -13.6500 ca        1 HY2     -0.153600
     38 C36        12.7180    1.8820  -12.7140 c         1 HY2      0.720100
     39 O36        11.9470    2.8600  -12.6980 o         1 HY2     -0.611500
     40 C5A         4.0000   -0.3850    0.6910 ca        1 HY2     -0.158600
     41 C5D         3.1130   -0.5380    1.8770 c         1 HY2      0.738100
     42 C6D         4.9400   -1.4070    0.4880 ca        1 HY2     -0.112000
     43 C8D         5.8120   -0.2270   -1.4440 ca        1 HY2      0.156100
     44 C9A         3.9580    0.7300   -0.1690 ca        1 HY2      0.162600
     45 H6D         4.9580   -2.2470    1.2020 ha        1 HY2      0.163000
     46 H9          4.8650    1.6530   -1.9250 ha        1 HY2      0.138000
     47 HN10        3.3740    2.6260   -0.4810 hn        1 HY2      0.387800
     48 H11         1.3040    2.4420    0.8480 h1        1 HY2      0.040700
     49 H1         -0.7500    1.3590    0.5500 hc        1 HY2      0.053200
     50 H1A         1.3980   -0.4370   -0.3250 h1        1 HY2      0.059700
     51 H1B        -0.8710   -0.3870    0.1030 hc        1 HY2      0.053200
     52 H17         8.2020    3.0100   -7.6730 h1        1 HY2      0.037700
     53 H17A        9.2200    3.8080   -6.3880 h1        1 HY2      0.037700
     54 H18        10.2110    3.7660   -8.7300 h1        1 HY2      0.040700
     55 H18A       11.2850    3.1330   -7.3980 h1        1 HY2      0.040700
     56 H20        11.4010    0.4180   -7.2990 h1        1 HY2      0.040700
     57 H20A       10.3880   -0.3990   -8.5740 h1        1 HY2      0.040700
     58 H21         9.4120   -0.3460   -6.2220 h1        1 HY2      0.037700
     59 H21A        8.3190    0.2500   -7.5550 h1        1 HY2      0.037700
     60 H22        11.8320    2.7650   -9.9880 h1        1 HY2      0.044700
     61 H2D        -1.2580   -0.8960    2.3370 hc        1 HY2      0.053200
     62 H2DA       -1.0130    0.8330    2.8020 hc        1 HY2      0.053200
     63 H22A       12.5610    1.3130   -9.1600 h1        1 HY2      0.044700
     64 H23        11.0770   -0.1870  -10.6530 h1        1 HY2      0.080700
     65 H23A       10.4960    1.3310  -11.5020 h1        1 HY2      0.080700
     66 H29        17.5550   -0.5490  -15.1360 ha        1 HY2      0.140000
     67 H28        17.1410   -2.3860  -13.4940 ha        1 HY2      0.145000
     68 H27        15.2010   -2.2660  -11.9280 ha        1 HY2      0.165000
     69 H31        16.8960    1.6350  -16.1100 ha        1 HY2      0.140000
     70 H32        15.3400    3.5900  -16.1550 ha        1 HY2      0.145000
     71 H33        13.4060    3.7010  -14.5800 ha        1 HY2      0.165000
     72 H3          1.0930    0.3190    3.6580 h1        1 HY2      0.055200
     73 H13         6.9650    1.8090   -2.7170 h1        1 HY2      0.038700
     74 H3A         0.8440   -1.4240    3.2120 h1        1 HY2      0.055200
     75 H13A        5.7850    0.9810   -3.8520 h1        1 HY2      0.038700
     76 H12         7.2470   -2.8100    1.1270 h1        1 HY2      0.045367
     77 H12A        6.0950   -3.9440    0.2590 h1        1 HY2      0.045367
     78 H12B        7.8640   -3.8800   -0.2370 h1        1 HY2      0.045367
     79 H14         8.8730    0.5830   -3.7520 hc        1 HY2      0.068700
     80 H14A        7.7430   -0.3780   -4.7860 hc        1 HY2      0.068700
     81 H15         7.8890    2.7260   -4.8250 h1        1 HY2      0.029200
     82 H15A        6.9610    1.6530   -5.9650 h1        1 HY2      0.029200
     83 H11A        1.2280    1.9020   -0.8930 h1        1 HY2      0.040700
@<TRIPOS>BOND
     1    1   19 1   
     2    1   31 1   
     3    1   49 1   
     4    1   51 1   
     5    2    6 1   
     6    2   10 1   
     7    3    4 1   
     8    3   31 1   
     9    3   72 1   
    10    3   74 1   
    11    4   19 1   
    12    4   41 1   
    13    5   41 2   
    14    6   42 ar  
    15    6   43 ar  
    16    7   43 ar  
    17    7   44 ar  
    18    7   46 1   
    19    8    9 1   
    20    8   44 1   
    21    8   47 1   
    22    9   19 1   
    23    9   48 1   
    24    9   83 1   
    25   10   76 1   
    26   10   77 1   
    27   10   78 1   
    28   11   12 1   
    29   11   13 1   
    30   11   73 1   
    31   11   75 1   
    32   12   43 1   
    33   13   14 1   
    34   13   79 1   
    35   13   80 1   
    36   14   15 1   
    37   14   81 1   
    38   14   82 1   
    39   15   16 1   
    40   15   21 1   
    41   16   17 1   
    42   16   52 1   
    43   16   53 1   
    44   17   18 1   
    45   17   54 1   
    46   17   55 1   
    47   18   20 1   
    48   18   22 1   
    49   19   50 1   
    50   20   21 1   
    51   20   56 1   
    52   20   57 1   
    53   21   58 1   
    54   21   59 1   
    55   22   23 1   
    56   22   60 1   
    57   22   63 1   
    58   23   24 1   
    59   23   64 1   
    60   23   65 1   
    61   24   25 1   
    62   24   38 1   
    63   25   26 2   
    64   25   27 1   
    65   27   28 ar  
    66   27   36 ar  
    67   28   29 ar  
    68   28   68 1   
    69   29   30 ar  
    70   29   67 1   
    71   30   32 ar  
    72   30   66 1   
    73   31   61 1   
    74   31   62 1   
    75   32   33 ar  
    76   32   36 ar  
    77   33   34 ar  
    78   33   69 1   
    79   34   35 ar  
    80   34   70 1   
    81   35   37 ar  
    82   35   71 1   
    83   36   37 ar  
    84   37   38 1   
    85   38   39 2   
    86   40   41 1   
    87   40   42 ar  
    88   40   44 ar  
    89   42   45 1   
@<TRIPOS>SUBSTRUCTURE
     1 HY2         1 TEMP              0 ****  ****    0 ROOT
