@<TRIPOS>MOLECULE
HY2
   83    89     1     0     0
SMALL
bcc


@<TRIPOS>ATOM
      1 C1         10.7570    2.1670    1.9930 c3        1 HY2     -0.083400
      2 O2          5.3650   -3.0060    0.0140 os        1 HY2     -0.302900
      3 C3         11.7580    0.4290    0.5770 c3        1 HY2      0.091000
      4 N4         10.3260    0.4590    0.3430 n         1 HY2     -0.468800
      5 O5         10.3040   -1.5790   -0.6840 o         1 HY2     -0.637500
      6 C7          6.1140   -1.8590   -0.1480 ca        1 HY2      0.090100
      7 C9          6.0310    0.5500   -0.5170 ca        1 HY2     -0.173000
      8 N10         8.0600    1.8750   -0.7310 nh        1 HY2     -0.695600
      9 C11         8.7730    2.4240    0.4040 c3        1 HY2      0.159800
     10 C12         6.1010   -4.2240    0.0700 c3        1 HY2      0.107700
     11 C13         3.2340    0.3620   -0.6040 c3        1 HY2      0.124400
     12 O13         4.0020   -0.8220   -0.3440 os        1 HY2     -0.303900
     13 C14         1.7820   -0.0880   -0.5950 c3        1 HY2     -0.088400
     14 C15         0.8830    1.1390   -0.7260 c3        1 HY2      0.172800
     15 N16        -0.5150    0.8170   -0.9780 n3        1 HY2     -0.727600
     16 C17        -1.2870    2.0160   -1.2800 c3        1 HY2      0.166800
     17 C18        -2.7830    1.7290   -1.5110 c3        1 HY2      0.170300
     18 N19        -3.3780    0.9550   -0.4310 n3        1 HY2     -0.734600
     19 C1A         9.6580    1.4310    1.1980 c3        1 HY2      0.063700
     20 C20        -2.6160   -0.2510   -0.1420 c3        1 HY2      0.170300
     21 C21        -1.1180    0.0270    0.0860 c3        1 HY2      0.166800
     22 C22        -4.7920    0.6880   -0.6510 c3        1 HY2      0.155800
     23 C23        -5.5600    0.6030    0.6910 c3        1 HY2      0.083000
     24 N24        -6.9660    0.2740    0.5180 n         1 HY2     -0.492400
     25 C25        -7.3690   -1.0690    0.6380 c         1 HY2      0.720100
     26 O25        -6.5240   -1.9510    0.8800 o         1 HY2     -0.611500
     27 C26        -8.8080   -1.3940    0.4840 ca        1 HY2     -0.153600
     28 C27        -9.2420   -2.6970    0.6220 ca        1 HY2     -0.036000
     29 C28       -10.6140   -3.0050    0.4760 ca        1 HY2     -0.150000
     30 C29       -11.5280   -2.0170    0.1970 ca        1 HY2     -0.076000
     31 C2D        12.0740    1.4710    1.6610 c3        1 HY2     -0.092400
     32 C30       -11.1100   -0.6670    0.0480 ca        1 HY2     -0.063000
     33 C31       -12.0230    0.3830   -0.2410 ca        1 HY2     -0.076000
     34 C32       -11.5810    1.6770   -0.3790 ca        1 HY2     -0.150000
     35 C33       -10.2090    1.9880   -0.2360 ca        1 HY2     -0.036000
     36 C34        -9.7350   -0.3560    0.1930 ca        1 HY2      0.018000
     37 C35        -9.2990    0.9880    0.0460 ca        1 HY2     -0.153600
     38 C36        -7.8600    1.3120    0.1940 c         1 HY2      0.720100
     39 O36        -7.4320    2.4710    0.0440 o         1 HY2     -0.611500
     40 C5A         8.1670   -0.5800   -0.2730 ca        1 HY2     -0.167600
     41 C5D         9.6570   -0.6190   -0.2180 c         1 HY2      0.709100
     42 C6D         7.5030   -1.8050   -0.1180 ca        1 HY2     -0.130000
     43 C8D         5.3690   -0.6630   -0.3450 ca        1 HY2      0.129100
     44 C9A         7.4410    0.6070   -0.4900 ca        1 HY2      0.112600
     45 H6D         8.1070   -2.7180    0.0130 ha        1 HY2      0.163000
     46 H9          5.4610    1.4770   -0.6850 ha        1 HY2      0.157000
     47 HN10        8.6790    1.7840   -1.5200 hn        1 HY2      0.378800
     48 H11         9.4010    3.2770    0.0250 h1        1 HY2      0.059700
     49 H1         10.7970    3.2470    1.7100 hc        1 HY2      0.053700
     50 H1A         8.9820    0.8820    1.9200 h1        1 HY2      0.054700
     51 H1B        10.5370    2.1090    3.0870 hc        1 HY2      0.053700
     52 H17        -1.1900    2.7910   -0.4650 h1        1 HY2      0.037700
     53 H17A       -0.8760    2.4590   -2.2300 h1        1 HY2      0.037700
     54 H18        -3.3160    2.7200   -1.5620 h1        1 HY2      0.040450
     55 H18A       -2.9040    1.2160   -2.5090 h1        1 HY2      0.040450
     56 H20        -3.0300   -0.7050    0.8020 h1        1 HY2      0.040450
     57 H20A       -2.7190   -1.0170   -0.9660 h1        1 HY2      0.040450
     58 H21        -0.5910   -0.9680    0.1150 h1        1 HY2      0.037700
     59 H21A       -0.9900    0.5190    1.0940 h1        1 HY2      0.037700
     60 H22        -5.2400    1.5300   -1.2510 h1        1 HY2      0.044700
     61 H2D        12.8310    2.2030    1.2860 hc        1 HY2      0.053200
     62 H2DA       12.4990    0.9710    2.5650 hc        1 HY2      0.053200
     63 H22A       -4.9510   -0.2700   -1.2280 h1        1 HY2      0.044700
     64 H23        -5.0940   -0.1830    1.3510 h1        1 HY2      0.080700
     65 H23A       -5.4950    1.6000    1.2120 h1        1 HY2      0.080700
     66 H29       -12.5970   -2.2540    0.0830 ha        1 HY2      0.140000
     67 H28       -10.9380   -4.0510    0.5910 ha        1 HY2      0.145000
     68 H27        -8.5170   -3.4980    0.8470 ha        1 HY2      0.165000
     69 H31       -13.0910    0.1380   -0.3520 ha        1 HY2      0.140000
     70 H32       -12.2880    2.4910   -0.6020 ha        1 HY2      0.145000
     71 H33        -9.8640    3.0300   -0.3490 ha        1 HY2      0.165000
     72 H3         12.0820   -0.6020    0.8900 h1        1 HY2      0.057200
     73 H13         3.4290    1.1180    0.2020 h1        1 HY2      0.041200
     74 H3A        12.2860    0.6750   -0.3860 h1        1 HY2      0.057200
     75 H13A        3.5220    0.7880   -1.6010 h1        1 HY2      0.041200
     76 H12         5.3010   -5.0050    0.1310 h1        1 HY2      0.046700
     77 H12A        6.7180   -4.3600   -0.8510 h1        1 HY2      0.046700
     78 H12B        6.7460   -4.2500    0.9820 h1        1 HY2      0.046700
     79 H14         1.6080   -0.8040   -1.4390 hc        1 HY2      0.068200
     80 H14A        1.5710   -0.6350    0.3600 hc        1 HY2      0.068200
     81 H15         1.0040    1.7700    0.2060 h1        1 HY2      0.030700
     82 H15A        1.2430    1.7550   -1.5990 h1        1 HY2      0.030700
     83 H11A        8.0120    2.8380    1.1230 h1        1 HY2      0.059700
@<TRIPOS>BOND
     1    1   19 1   
     2    1   31 1   
     3    1   49 1   
     4    1   51 1   
     5    2    6 1   
     6    2   10 1   
     7    3    4 1   
     8    3   31 1   
     9    3   72 1   
    10    3   74 1   
    11    4   19 1   
    12    4   41 1   
    13    5   41 2   
    14    6   42 ar  
    15    6   43 ar  
    16    7   43 ar  
    17    7   44 ar  
    18    7   46 1   
    19    8    9 1   
    20    8   44 1   
    21    8   47 1   
    22    9   19 1   
    23    9   48 1   
    24    9   83 1   
    25   10   76 1   
    26   10   77 1   
    27   10   78 1   
    28   11   12 1   
    29   11   13 1   
    30   11   73 1   
    31   11   75 1   
    32   12   43 1   
    33   13   14 1   
    34   13   79 1   
    35   13   80 1   
    36   14   15 1   
    37   14   81 1   
    38   14   82 1   
    39   15   16 1   
    40   15   21 1   
    41   16   17 1   
    42   16   52 1   
    43   16   53 1   
    44   17   18 1   
    45   17   54 1   
    46   17   55 1   
    47   18   20 1   
    48   18   22 1   
    49   19   50 1   
    50   20   21 1   
    51   20   56 1   
    52   20   57 1   
    53   21   58 1   
    54   21   59 1   
    55   22   23 1   
    56   22   60 1   
    57   22   63 1   
    58   23   24 1   
    59   23   64 1   
    60   23   65 1   
    61   24   25 1   
    62   24   38 1   
    63   25   26 2   
    64   25   27 1   
    65   27   28 ar  
    66   27   36 ar  
    67   28   29 ar  
    68   28   68 1   
    69   29   30 ar  
    70   29   67 1   
    71   30   32 ar  
    72   30   66 1   
    73   31   61 1   
    74   31   62 1   
    75   32   33 ar  
    76   32   36 ar  
    77   33   34 ar  
    78   33   69 1   
    79   34   35 ar  
    80   34   70 1   
    81   35   37 ar  
    82   35   71 1   
    83   36   37 ar  
    84   37   38 1   
    85   38   39 2   
    86   40   41 1   
    87   40   42 ar  
    88   40   44 ar  
    89   42   45 1   
@<TRIPOS>SUBSTRUCTURE
     1 HY2         1 TEMP              0 ****  ****    0 ROOT
