@<TRIPOS>MOLECULE
HY3
   17    17     1     0     0
SMALL
bcc


@<TRIPOS>ATOM
      1 C1         -1.5100    0.1540    0.0590 c         1 HY3      0.931600
      2 O1         -1.7710    1.1520   -0.6800 o         1 HY3     -0.839800
      3 N1          0.4910   -1.3540    0.6580 n3        1 HY3     -0.783200
      4 C2         -0.0120    0.0020    0.4340 c3        1 HY3      0.005500
      5 C3          0.8970    0.5960   -0.6750 c3        1 HY3      0.160100
      6 C4          2.2560   -0.0810   -0.4480 c3        1 HY3     -0.095400
      7 C5          1.9310   -1.3250    0.4030 c3        1 HY3      0.153800
      8 O2          1.0130    2.0000   -0.5510 oh        1 HY3     -0.641800
      9 OXT        -2.3650   -0.6230    0.5510 o         1 HY3     -0.839800
     10 H           0.2790   -1.6610    1.5850 hn        1 HY3      0.352800
     11 HN          0.1200    0.6420    1.3590 h1        1 HY3      0.011700
     12 HB          0.4810    0.3490   -1.6890 h1        1 HY3      0.054700
     13 HG          2.7270   -0.3700   -1.4150 hc        1 HY3      0.035200
     14 HGA         2.9510    0.6040    0.0930 hc        1 HY3      0.035200
     15 HD          2.5470   -1.3110    1.3450 h1        1 HY3      0.007700
     16 HDA         2.1960   -2.2640   -0.1540 h1        1 HY3      0.007700
     17 HO1         0.0950    2.3220   -0.5860 ho        1 HY3      0.443000
@<TRIPOS>BOND
     1    1    2 1   
     2    1    4 1   
     3    1    9 1   
     4    3    4 1   
     5    3    7 1   
     6    3   10 1   
     7    4    5 1   
     8    4   11 1   
     9    5    6 1   
    10    5    8 1   
    11    5   12 1   
    12    6    7 1   
    13    6   13 1   
    14    6   14 1   
    15    7   15 1   
    16    7   16 1   
    17    8   17 1   
@<TRIPOS>SUBSTRUCTURE
     1 HY3         1 TEMP              0 ****  ****    0 ROOT
