@<TRIPOS>MOLECULE
HY7
   40    43     1     0     0
SMALL
bcc


@<TRIPOS>ATOM
      1 C5         -4.9510   -0.7070    0.6580 c3        1 HY7      0.167300
      2 C6         -5.7550   -1.7490   -0.1430 c3        1 HY7      0.167800
      3 N3         -5.1130   -3.0550   -0.1800 n3        1 HY7     -0.733600
      4 C7         -5.8700   -4.0230   -0.9390 c3        1 HY7      0.157100
      5 C8         -3.7240   -2.9710   -0.6090 c3        1 HY7      0.167800
      6 C9         -2.9150   -1.9330    0.1910 c3        1 HY7      0.167300
      7 N2         -3.5590   -0.6270    0.2340 n3        1 HY7     -0.748600
      8 C4         -2.8050    0.3420    1.0110 c3        1 HY7      0.129500
      9 C3         -1.5420    0.8220    0.2780 cc        1 HY7      0.479900
     10 N4         -0.4030    0.8870    0.9740 nd        1 HY7     -0.594300
     11 C10         0.6830    1.3780    0.2840 cd        1 HY7      0.175400
     12 C11         2.0630    1.5970    0.6920 ca        1 HY7     -0.102800
     13 C12         2.7860    1.4120    1.8650 ca        1 HY7     -0.028000
     14 C13         4.1410    1.7540    1.8610 ca        1 HY7     -0.057900
     15 BR1         5.1520    1.5200    3.4210 br        1 HY7     -0.080100
     16 C14         4.7660    2.2700    0.7120 ca        1 HY7     -0.072000
     17 C15         4.0650    2.4650   -0.4760 ca        1 HY7     -0.129000
     18 C16         2.7160    2.1240   -0.4690 ca        1 HY7      0.094100
     19 O2          1.8380    2.2420   -1.5530 os        1 HY7     -0.142200
     20 C1          0.6130    1.7810   -1.0630 cc        1 HY7     -0.108100
     21 C2         -0.6160    1.7050   -1.8300 c         1 HY7      0.725700
     22 O1         -0.8000    2.0170   -3.0160 o         1 HY7     -0.598500
     23 N1         -1.6910    1.2040   -1.0560 n         1 HY7     -0.463400
     24 H51C       -5.4260    0.2990    0.4850 h1        1 HY7      0.043450
     25 H52C       -5.0350   -0.9500    1.7570 h1        1 HY7      0.043450
     26 H61C       -6.7540   -1.8710    0.3630 h1        1 HY7      0.040950
     27 H62C       -5.9400   -1.3440   -1.1810 h1        1 HY7      0.040950
     28 H71C       -5.9640   -3.7620   -2.0290 h1        1 HY7      0.034700
     29 H72C       -5.3660   -5.0210   -0.8540 h1        1 HY7      0.034700
     30 H73C       -6.9000   -4.1000   -0.5010 h1        1 HY7      0.034700
     31 H81C       -3.2510   -3.9780   -0.4410 h1        1 HY7      0.040950
     32 H82C       -3.6400   -2.7280   -1.7090 h1        1 HY7      0.040950
     33 H91C       -2.7320   -2.3390    1.2290 h1        1 HY7      0.043450
     34 H92C       -1.9160   -1.8060   -0.3130 h1        1 HY7      0.043450
     35 H41C       -3.4440    1.2560    1.1820 h1        1 HY7      0.072700
     36 H42C       -2.5030   -0.0630    2.0220 h1        1 HY7      0.072700
     37 H1         -2.5730    1.0790   -1.5070 hn        1 HY7      0.355500
     38 H12         2.2920    1.0080    2.7620 ha        1 HY7      0.167000
     39 H14         5.8370    2.5290    0.7430 ha        1 HY7      0.154000
     40 H15         4.5480    2.8680   -1.3760 ha        1 HY7      0.163000
@<TRIPOS>BOND
     1    1    2 1   
     2    1    7 1   
     3    1   24 1   
     4    1   25 1   
     5    2    3 1   
     6    2   26 1   
     7    2   27 1   
     8    3    4 1   
     9    3    5 1   
    10    4   28 1   
    11    4   29 1   
    12    4   30 1   
    13    5    6 1   
    14    5   31 1   
    15    5   32 1   
    16    6    7 1   
    17    6   33 1   
    18    6   34 1   
    19    7    8 1   
    20    8    9 1   
    21    8   35 1   
    22    8   36 1   
    23    9   10 2   
    24    9   23 1   
    25   10   11 1   
    26   11   12 1   
    27   11   20 2   
    28   12   13 ar  
    29   12   18 ar  
    30   13   14 ar  
    31   13   38 1   
    32   14   15 1   
    33   14   16 ar  
    34   16   17 ar  
    35   16   39 1   
    36   17   18 ar  
    37   17   40 1   
    38   18   19 1   
    39   19   20 1   
    40   20   21 1   
    41   21   22 2   
    42   21   23 1   
    43   23   37 1   
@<TRIPOS>SUBSTRUCTURE
     1 HY7         1 TEMP              0 ****  ****    0 ROOT
