@<TRIPOS>MOLECULE
HY7
   40    37     1     0     0
SMALL
bcc


@<TRIPOS>ATOM
      1 C5          1.8490   -1.8740   -1.9790 c3        1 HY7     -0.069500
      2 C6          3.3740   -1.9430   -2.0230 c3        1 HY7     -0.069000
      3 N3          3.9330   -2.5950   -0.8560 n3        1 HY7     -0.259000
      4 C7          5.3410   -2.4890   -0.8910 c3        1 HY7     -0.119000
      5 C8          3.4380   -2.0250    0.4050 c3        1 HY7     -0.069000
      6 C9          1.9040   -1.9560    0.4480 c3        1 HY7     -0.069500
      7 N2          1.3470   -1.3050   -0.7210 n3        1 HY7     -0.274000
      8 C4         -0.1110   -1.4370   -0.6820 c3        1 HY7     -0.032000
      9 C3         -0.7600   -0.0470   -0.5950 c2        1 HY7      0.110000
     10 N4         -1.8010    0.2170    0.4210 n1        1 HY7     -0.166000
     11 C10        -2.4470    1.4710    0.4640 c1        1 HY7      0.023000
     12 C11        -3.4250    2.0030    1.3340 c1        1 HY7     -0.091000
     13 C12        -4.0660    1.4720    2.4190 c1        1 HY7     -0.028000
     14 C13        -4.9760    2.2530    3.1430 c1        1 HY7     -0.198000
     15 BR1        -6.0410    1.5670    4.6300 br        1 HY7      0.060000
     16 C14        -5.2300    3.5720    2.7570 c2        1 HY7     -0.072000
     17 C15        -4.5800    4.1090    1.6570 c1        1 HY7     -0.129000
     18 C16        -3.6820    3.3380    0.9420 c1        1 HY7      0.049000
     19 O2         -2.8890    3.6210   -0.1310 o         1 HY7     -0.053000
     20 C1         -2.1100    2.4420   -0.4330 c1        1 HY7     -0.133000
     21 C2         -1.0500    2.1810   -1.4660 c1        1 HY7      0.364000
     22 O1         -0.8270    3.0230   -2.3400 o         1 HY7     -0.323000
     23 N1         -0.4180    0.9430   -1.5130 n3        1 HY7     -0.303000
     24 H51C        1.5330   -1.3080   -2.7360 h1        1 HY7      0.082750
     25 H52C        1.4940   -2.7610   -2.0840 h1        1 HY7      0.082750
     26 H61C        3.6390   -2.4400   -2.8190 h1        1 HY7      0.080250
     27 H62C        3.7360   -1.0260   -2.0840 h1        1 HY7      0.080250
     28 H71C        5.6620   -2.8140   -1.7300 h1        1 HY7      0.074000
     29 H72C        5.6310   -1.4620   -0.7710 h1        1 HY7      0.074000
     30 H73C        5.7300   -3.0290   -0.1580 h1        1 HY7      0.074000
     31 H81C        3.7860   -2.6400    1.2270 h1        1 HY7      0.080250
     32 H82C        3.7710   -1.1890    0.5000 h1        1 HY7      0.080250
     33 H91C        1.6350   -1.4500    1.2460 h1        1 HY7      0.082750
     34 H92C        1.5130   -2.9390    0.5190 h1        1 HY7      0.082750
     35 H41C       -0.4250   -1.8960   -1.5030 h1        1 HY7      0.112000
     36 H42C       -0.3640   -1.9610    0.0980 h1        1 HY7      0.112000
     37 H1          0.2030    0.7710   -2.1660 hn        1 HY7      0.269000
     38 H12        -3.7330    0.5540    2.8220 ha        1 HY7      0.167000
     39 H14        -5.8400    4.0920    3.2400 ha        1 HY7      0.154000
     40 H15        -4.7420    4.9570    1.4090 ha        1 HY7      0.163000
@<TRIPOS>BOND
     1    1    2 1   
     2    1    7 1   
     3    1   24 1   
     4    1   25 1   
     5    2    3 1   
     6    2   26 1   
     7    2   27 1   
     8    3    4 1   
     9    3    5 1   
    10    4   28 1   
    11    4   29 1   
    12    4   30 1   
    13    5    6 1   
    14    5   31 1   
    15    5   32 1   
    16    6    7 1   
    17    6   33 1   
    18    6   34 1   
    19    7    8 1   
    20    8    9 1   
    21    8   35 1   
    22    8   36 1   
    23    9   10 1   
    24    9   23 1   
    25   11   12 1   
    26   11   20 1   
    27   12   18 1   
    28   13   14 1   
    29   13   38 1   
    30   14   16 1   
    31   16   17 1   
    32   16   39 1   
    33   17   40 1   
    34   19   20 1   
    35   21   22 1   
    36   21   23 1   
    37   23   37 1   
@<TRIPOS>SUBSTRUCTURE
     1 HY7         1 TEMP              0 ****  ****    0 ROOT
