@<TRIPOS>MOLECULE
HY7
   40    43     1     0     0
SMALL
bcc


@<TRIPOS>ATOM
      1 C5         -0.4630   -0.5170    1.1960 c3        1 HY7      0.167300
      2 C6          0.5490   -1.1960    0.2530 c3        1 HY7      0.167800
      3 N3          1.9270   -0.8290    0.5430 n3        1 HY7     -0.733600
      4 C7          2.8690   -1.4640   -0.3500 c3        1 HY7      0.157100
      5 C8          2.1080    0.6140    0.6110 c3        1 HY7      0.167800
      6 C9          1.1010    1.2970    1.5550 c3        1 HY7      0.167300
      7 N2         -0.2790    0.9270    1.2700 n3        1 HY7     -0.748600
      8 C4         -1.2240    1.5530    2.1800 c3        1 HY7      0.129500
      9 C3         -1.4080    3.0520    1.8880 cc        1 HY7      0.479900
     10 N4         -1.4010    3.8940    2.9250 nd        1 HY7     -0.594300
     11 C10        -1.6270    5.2160    2.6130 cd        1 HY7      0.175400
     12 C11        -1.6960    6.4050    3.4500 ca        1 HY7     -0.102800
     13 C12        -1.5700    6.6610    4.8110 ca        1 HY7     -0.028000
     14 C13        -1.7050    7.9820    5.2450 ca        1 HY7     -0.057900
     15 BR1        -1.5430    8.3710    7.0710 br        1 HY7     -0.080100
     16 C14        -1.9620    9.0300    4.3420 ca        1 HY7     -0.072000
     17 C15        -2.0920    8.8000    2.9750 ca        1 HY7     -0.129000
     18 C16        -1.9570    7.4840    2.5460 ca        1 HY7      0.094100
     19 O2         -2.0530    7.0430    1.2200 os        1 HY7     -0.142200
     20 C1         -1.8480    5.6620    1.2960 cc        1 HY7     -0.108100
     21 C2         -1.8480    4.7570    0.1620 c         1 HY7      0.725700
     22 O1         -2.0180    5.0280   -1.0360 o         1 HY7     -0.598500
     23 N1         -1.6220    3.4160    0.5580 n         1 HY7     -0.463400
     24 H51C       -1.4950   -0.7160    0.7910 h1        1 HY7      0.043450
     25 H52C       -0.3880   -0.9970    2.2150 h1        1 HY7      0.043450
     26 H61C        0.2670   -0.9550   -0.8140 h1        1 HY7      0.040950
     27 H62C        0.4530   -2.3090    0.3940 h1        1 HY7      0.040950
     28 H71C        2.7490   -1.1490   -1.4240 h1        1 HY7      0.034700
     29 H72C        3.9090   -1.2080   -0.0180 h1        1 HY7      0.034700
     30 H73C        2.7330   -2.5750   -0.2870 h1        1 HY7      0.034700
     31 H81C        3.1420    0.8130    1.0110 h1        1 HY7      0.040950
     32 H82C        2.0340    1.0940   -0.4090 h1        1 HY7      0.040950
     33 H91C        1.1920    2.4110    1.4160 h1        1 HY7      0.043450
     34 H92C        1.3830    1.0560    2.6210 h1        1 HY7      0.043450
     35 H41C       -2.2370    1.0730    2.0470 h1        1 HY7      0.072700
     36 H42C       -0.9210    1.4310    3.2610 h1        1 HY7      0.072700
     37 H1         -1.5660    2.7210   -0.1570 hn        1 HY7      0.355500
     38 H12        -1.3700    5.8370    5.5130 ha        1 HY7      0.167000
     39 H14        -2.0630   10.0610    4.7190 ha        1 HY7      0.154000
     40 H15        -2.2920    9.6150    2.2670 ha        1 HY7      0.163000
@<TRIPOS>BOND
     1    1    2 1   
     2    1    7 1   
     3    1   24 1   
     4    1   25 1   
     5    2    3 1   
     6    2   26 1   
     7    2   27 1   
     8    3    4 1   
     9    3    5 1   
    10    4   28 1   
    11    4   29 1   
    12    4   30 1   
    13    5    6 1   
    14    5   31 1   
    15    5   32 1   
    16    6    7 1   
    17    6   33 1   
    18    6   34 1   
    19    7    8 1   
    20    8    9 1   
    21    8   35 1   
    22    8   36 1   
    23    9   10 2   
    24    9   23 1   
    25   10   11 1   
    26   11   12 1   
    27   11   20 2   
    28   12   13 ar  
    29   12   18 ar  
    30   13   14 ar  
    31   13   38 1   
    32   14   15 1   
    33   14   16 ar  
    34   16   17 ar  
    35   16   39 1   
    36   17   18 ar  
    37   17   40 1   
    38   18   19 1   
    39   19   20 1   
    40   20   21 1   
    41   21   22 2   
    42   21   23 1   
    43   23   37 1   
@<TRIPOS>SUBSTRUCTURE
     1 HY7         1 TEMP              0 ****  ****    0 ROOT
