@<TRIPOS>MOLECULE
HY7
   40    43     1     0     0
SMALL
bcc


@<TRIPOS>ATOM
      1 C5         -0.4550   -0.5220    1.2280 c3        1 HY7      0.167300
      2 C6          0.5190   -1.1990    0.2430 c3        1 HY7      0.167800
      3 N3          1.9050   -0.8160    0.4650 n3        1 HY7     -0.733600
      4 C7          2.8100   -1.4490   -0.4670 c3        1 HY7      0.157100
      5 C8          2.0740    0.6290    0.5140 c3        1 HY7      0.167800
      6 C9          1.1060    1.3100    1.4990 c3        1 HY7      0.167300
      7 N2         -0.2830    0.9240    1.2820 n3        1 HY7     -0.748600
      8 C4         -1.1900    1.5480    2.2310 c3        1 HY7      0.129500
      9 C3         -1.4030    3.0420    1.9370 cc        1 HY7      0.479900
     10 N4         -1.3540    3.8930    2.9660 nd        1 HY7     -0.594300
     11 C10        -1.6080    5.2100    2.6550 cd        1 HY7      0.175400
     12 C11        -1.6480    6.4050    3.4860 ca        1 HY7     -0.102800
     13 C12        -1.4600    6.6730    4.8370 ca        1 HY7     -0.028000
     14 C13        -1.5880    7.9960    5.2670 ca        1 HY7     -0.057900
     15 Br1        -1.3420    8.4010    7.0800 br        1 HY7     -0.080100
     16 C14        -1.8960    9.0340    4.3700 ca        1 HY7     -0.072000
     17 C15        -2.0890    8.7930    3.0120 ca        1 HY7     -0.129000
     18 C16        -1.9620    7.4740    2.5870 ca        1 HY7      0.094100
     19 O2         -2.1160    7.0220    1.2710 os        1 HY7     -0.142200
     20 C1         -1.8950    5.6440    1.3470 cc        1 HY7     -0.108100
     21 C2         -1.9400    4.7300    0.2210 c         1 HY7      0.725700
     22 O1         -2.1690    4.9900   -0.9700 o         1 HY7     -0.598500
     23 N1         -1.6820    3.3940    0.6160 ns        1 HY7     -0.463400
     24 H51C       -0.3280   -0.9930    2.2460 h1        1 HY7      0.043450
     25 H52C       -1.5030   -0.7350    0.8740 h1        1 HY7      0.043450
     26 H61C        0.1840   -0.9700   -0.8110 h1        1 HY7      0.040950
     27 H62C        0.4400   -2.3120    0.3970 h1        1 HY7      0.040950
     28 H71C        2.6880   -2.5610   -0.3890 h1        1 HY7      0.034700
     29 H72C        2.6360   -1.1430   -1.5360 h1        1 HY7      0.034700
     30 H73C        3.8620   -1.1800   -0.1860 h1        1 HY7      0.034700
     31 H81C        3.1230    0.8410    0.8640 h1        1 HY7      0.040950
     32 H82C        1.9470    1.1000   -0.5050 h1        1 HY7      0.040950
     33 H91C        1.1790    2.4230    1.3480 h1        1 HY7      0.043450
     34 H92C        1.4400    1.0790    2.5530 h1        1 HY7      0.043450
     35 H41C       -0.8360    1.4370    3.2980 h1        1 HY7      0.072700
     36 H42C       -2.2030    1.0580    2.1490 h1        1 HY7      0.072700
     37 H1         -1.6540    2.6940   -0.0960 hn        1 HY7      0.355500
     38 H12        -1.2190    5.8560    5.5350 ha        1 HY7      0.167000
     39 H14        -1.9900   10.0680    4.7430 ha        1 HY7      0.154000
     40 H15        -2.3310    9.6000    2.3080 ha        1 HY7      0.163000
@<TRIPOS>BOND
     1    1    2 1   
     2    1    7 1   
     3    1   24 1   
     4    1   25 1   
     5    2    3 1   
     6    2   26 1   
     7    2   27 1   
     8    3    4 1   
     9    3    5 1   
    10    4   28 1   
    11    4   29 1   
    12    4   30 1   
    13    5    6 1   
    14    5   31 1   
    15    5   32 1   
    16    6    7 1   
    17    6   33 1   
    18    6   34 1   
    19    7    8 1   
    20    8    9 1   
    21    8   35 1   
    22    8   36 1   
    23    9   10 2   
    24    9   23 1   
    25   10   11 1   
    26   11   12 1   
    27   11   20 2   
    28   12   13 ar  
    29   12   18 ar  
    30   13   14 ar  
    31   13   38 1   
    32   14   15 1   
    33   14   16 ar  
    34   16   17 ar  
    35   16   39 1   
    36   17   18 ar  
    37   17   40 1   
    38   18   19 1   
    39   19   20 1   
    40   20   21 1   
    41   21   22 2   
    42   21   23 1   
    43   23   37 1   
@<TRIPOS>SUBSTRUCTURE
     1 HY7         1 TEMP              0 ****  ****    0 ROOT
