@<TRIPOS>MOLECULE
HYA
   19    18     1     0     0
SMALL
bcc


@<TRIPOS>ATOM
      1 C1         -1.4070    0.2310    0.1180 c2        1 HYA      0.536600
      2 C2         -0.0190    0.8450    0.2600 c3        1 HYA      0.138800
      3 C3          1.0460   -0.1300   -0.2780 c3        1 HYA      0.113100
      4 C4          2.3780    0.6120   -0.4330 c3        1 HYA      0.091400
      5 N          -2.0050    0.1360   -1.0470 n2        1 HYA     -0.528200
      6 O1         -1.8880   -0.1660    1.3460 oh        1 HYA     -0.598600
      7 O2          0.2370    1.2010    1.5970 oh        1 HYA     -0.580800
      8 O3          1.1600   -1.1750    0.6750 oh        1 HYA     -0.606800
      9 O4          3.3390   -0.3720   -0.7830 oh        1 HYA     -0.613800
     10 O          -3.2050   -0.4170   -1.0260 oh        1 HYA     -0.376500
     11 H2          0.0260    1.8140   -0.3140 h1        1 HYA      0.099700
     12 H3          0.7290   -0.5560   -1.2690 h1        1 HYA      0.068700
     13 H41         2.6530    1.1080    0.5350 h1        1 HYA      0.044700
     14 H42         2.3030    1.3800   -1.2470 h1        1 HYA      0.044700
     15 HO1        -2.7560   -0.5880    1.2390 ho        1 HYA      0.440000
     16 HO2         0.2050    0.3910    2.1280 ho        1 HYA      0.437000
     17 HO3         1.9380   -1.6940    0.4280 ho        1 HYA      0.430000
     18 HO4         4.2040    0.0500   -0.7270 ho        1 HYA      0.412000
     19 HO         -3.4860   -0.4150   -1.9620 ho        1 HYA      0.446000
@<TRIPOS>BOND
     1    1    2 1   
     2    1    5 2   
     3    1    6 1   
     4    2    3 1   
     5    2    7 1   
     6    2   11 1   
     7    3    4 1   
     8    3    8 1   
     9    3   12 1   
    10    4    9 1   
    11    4   13 1   
    12    4   14 1   
    13    5   10 1   
    14    6   15 1   
    15    7   16 1   
    16    8   17 1   
    17    9   18 1   
    18   10   19 1   
@<TRIPOS>SUBSTRUCTURE
     1 HYA         1 TEMP              0 ****  ****    0 ROOT
