@<TRIPOS>MOLECULE
HYA
   19    18     1     0     0
SMALL
bcc


@<TRIPOS>ATOM
      1 C1          0.0780    0.0280   -0.3330 c2        1 HYA      0.536600
      2 C2          1.5850    0.1530   -0.1430 c3        1 HYA      0.138800
      3 C3          1.9400    0.0220    1.3510 c3        1 HYA      0.113100
      4 C4          3.4540   -0.1780    1.4950 c3        1 HYA      0.091400
      5 N          -0.5380   -1.1270   -0.2330 n2        1 HYA     -0.528200
      6 O1         -0.4770    1.2560   -0.6190 oh        1 HYA     -0.598600
      7 O2          2.0590    1.3630   -0.6810 oh        1 HYA     -0.580800
      8 O3          1.5320    1.2290    1.9740 oh        1 HYA     -0.606800
      9 O4          3.7260   -0.1380    2.8870 oh        1 HYA     -0.613800
     10 O          -1.8460   -1.0910   -0.4200 oh        1 HYA     -0.376500
     11 H2          2.1080   -0.6540   -0.7310 h1        1 HYA      0.099700
     12 H3          1.3950   -0.8450    1.8140 h1        1 HYA      0.068700
     13 H41         3.7560   -1.1730    1.0740 h1        1 HYA      0.044700
     14 H42         3.9990    0.6440    0.9600 h1        1 HYA      0.044700
     15 HO1        -1.4400    1.1710   -0.7020 ho        1 HYA      0.440000
     16 HO2         1.6290    2.0870   -0.2010 ho        1 HYA      0.437000
     17 HO3         1.9010    1.2200    2.8680 ho        1 HYA      0.430000
     18 HO4         4.6840   -0.1020    2.9830 ho        1 HYA      0.412000
     19 HO         -2.1300   -2.0180   -0.2980 ho        1 HYA      0.446000
@<TRIPOS>BOND
     1    1    2 1   
     2    1    5 2   
     3    1    6 1   
     4    2    3 1   
     5    2    7 1   
     6    2   11 1   
     7    3    4 1   
     8    3    8 1   
     9    3   12 1   
    10    4    9 1   
    11    4   13 1   
    12    4   14 1   
    13    5   10 1   
    14    6   15 1   
    15    7   16 1   
    16    8   17 1   
    17    9   18 1   
    18   10   19 1   
@<TRIPOS>SUBSTRUCTURE
     1 HYA         1 TEMP              0 ****  ****    0 ROOT
