@<TRIPOS>MOLECULE
HYA
   19    18     1     0     0
SMALL
bcc


@<TRIPOS>ATOM
      1 C1          0.0600    0.0640   -0.3100 c2        1 HYA      0.536600
      2 C2          1.5660    0.2170   -0.1390 c3        1 HYA      0.138800
      3 C3          1.9550   -0.0120    1.3340 c3        1 HYA      0.113100
      4 C4          3.4760   -0.1800    1.4360 c3        1 HYA      0.091400
      5 N          -0.5230   -1.1110   -0.2840 n2        1 HYA     -0.528200
      6 O1         -0.5320    1.2940   -0.4970 oh        1 HYA     -0.598600
      7 O2          1.9980    1.4760   -0.5950 oh        1 HYA     -0.580800
      8 O3          1.5270    1.1340    2.0520 oh        1 HYA     -0.606800
      9 O4          3.7750   -0.2340    2.8220 oh        1 HYA     -0.613800
     10 O          -1.8350   -1.0990   -0.4450 oh        1 HYA     -0.376500
     11 H2          2.1000   -0.5300   -0.7940 h1        1 HYA      0.099700
     12 H3          1.4430   -0.9260    1.7420 h1        1 HYA      0.068700
     13 H41         3.7960   -1.1320    0.9380 h1        1 HYA      0.044700
     14 H42         3.9880    0.6940    0.9530 h1        1 HYA      0.044700
     15 HO1        -1.4940    1.1880   -0.5680 ho        1 HYA      0.440000
     16 HO2         1.5590    2.1510   -0.0560 ho        1 HYA      0.437000
     17 HO3         1.9140    1.0710    2.9360 ho        1 HYA      0.430000
     18 HO4         4.7330   -0.1780    2.9030 ho        1 HYA      0.412000
     19 HO         -2.0920   -2.0390   -0.3850 ho        1 HYA      0.446000
@<TRIPOS>BOND
     1    1    2 1   
     2    1    5 2   
     3    1    6 1   
     4    2    3 1   
     5    2    7 1   
     6    2   11 1   
     7    3    4 1   
     8    3    8 1   
     9    3   12 1   
    10    4    9 1   
    11    4   13 1   
    12    4   14 1   
    13    5   10 1   
    14    6   15 1   
    15    7   16 1   
    16    8   17 1   
    17    9   18 1   
    18   10   19 1   
@<TRIPOS>SUBSTRUCTURE
     1 HYA         1 TEMP              0 ****  ****    0 ROOT
