@<TRIPOS>MOLECULE
HYA
   19    18     1     0     0
SMALL
bcc


@<TRIPOS>ATOM
      1 C1          0.0570    0.0570   -0.3060 c2        1 HYA      0.536600
      2 C2          1.5610    0.2340   -0.1370 c3        1 HYA      0.138800
      3 C3          1.9600   -0.0140    1.3310 c3        1 HYA      0.113100
      4 C4          3.4840   -0.1570    1.4230 c3        1 HYA      0.091400
      5 N          -0.5050   -1.1290   -0.2970 n2        1 HYA     -0.528200
      6 O1         -0.5580    1.2790   -0.4690 oh        1 HYA     -0.598600
      7 O2          1.9690    1.5080   -0.5730 oh        1 HYA     -0.580800
      8 O3          1.5140    1.1120    2.0700 oh        1 HYA     -0.606800
      9 O4          3.7890   -0.2300    2.8070 oh        1 HYA     -0.613800
     10 O          -1.8170   -1.1370   -0.4530 oh        1 HYA     -0.376500
     11 H2          2.1050   -0.4920   -0.8070 h1        1 HYA      0.099700
     12 H3          1.4650   -0.9440    1.7240 h1        1 HYA      0.068700
     13 H41         3.9780    0.7340    0.9550 h1        1 HYA      0.044700
     14 H42         3.8180   -1.0950    0.9070 h1        1 HYA      0.044700
     15 HO1        -1.5180    1.1570   -0.5390 ho        1 HYA      0.440000
     16 HO2         1.5190    2.1650   -0.0200 ho        1 HYA      0.437000
     17 HO3         1.9060    1.0400    2.9510 ho        1 HYA      0.430000
     18 HO4         4.7470   -0.1590    2.8860 ho        1 HYA      0.412000
     19 HO         -2.0580   -2.0830   -0.4090 ho        1 HYA      0.446000
@<TRIPOS>BOND
     1    1    2 1   
     2    1    5 2   
     3    1    6 1   
     4    2    3 1   
     5    2    7 1   
     6    2   11 1   
     7    3    4 1   
     8    3    8 1   
     9    3   12 1   
    10    4    9 1   
    11    4   13 1   
    12    4   14 1   
    13    5   10 1   
    14    6   15 1   
    15    7   16 1   
    16    8   17 1   
    17    9   18 1   
    18   10   19 1   
@<TRIPOS>SUBSTRUCTURE
     1 HYA         1 TEMP              0 ****  ****    0 ROOT
