@<TRIPOS>MOLECULE
HYA
   19    16     1     0     0
SMALL
bcc


@<TRIPOS>ATOM
      1 C1         -1.6420    0.1330   -0.6100 c1        1 HYA      0.048000
      2 C2         -0.1340    0.2700   -0.6210 c2        1 HYA      0.077000
      3 C3          0.3830    0.2140    0.7790 c3        1 HYA      0.002000
      4 C4          1.8130   -0.3960    0.7740 c3        1 HYA     -0.057000
      5 N          -2.1990   -0.8770   -1.1770 n1        1 HYA     -0.159000
      6 O1         -2.4180    1.0930    0.0070 oh        1 HYA     -0.240000
      7 O2          0.2250    1.5200   -1.2120 oh        1 HYA     -0.307000
      8 O3          0.4290    1.4940    1.3050 oh        1 HYA     -0.335000
      9 O4          2.3050   -0.4740    2.1250 oh        1 HYA     -0.341000
     10 O          -1.4490   -1.8050   -1.7750 o         1 HYA     -0.254000
     11 H2          0.2640   -0.4740   -1.1510 h4        1 HYA      0.139000
     12 H3         -0.1770   -0.3130    1.2970 h1        1 HYA      0.109000
     13 H41         2.4120    0.1770    0.2370 h1        1 HYA      0.084500
     14 H42         1.7850   -1.3040    0.3800 h1        1 HYA      0.084500
     15 HO1        -3.2700    0.9620   -0.2020 ho        1 HYA      0.237000
     16 HO2         0.4870    1.3850   -2.0770 ho        1 HYA      0.233000
     17 HO3         0.0290    1.5020    2.1160 ho        1 HYA      0.228000
     18 HO4         3.1160   -0.8120    2.1230 ho        1 HYA      0.211000
     19 HO         -1.9600   -2.2960   -2.3180 ho        1 HYA      0.240000
@<TRIPOS>BOND
     1    1    5 1   
     2    1    6 1   
     3    2    3 1   
     4    2    7 1   
     5    2   11 1   
     6    3    4 1   
     7    3    8 1   
     8    3   12 1   
     9    4    9 1   
    10    4   13 1   
    11    4   14 1   
    12    6   15 1   
    13    7   16 1   
    14    8   17 1   
    15    9   18 1   
    16   10   19 1   
@<TRIPOS>SUBSTRUCTURE
     1 HYA         1 TEMP              0 ****  ****    0 ROOT
