@<TRIPOS>MOLECULE
HYB
   84    84     1     0     0
SMALL
bcc


@<TRIPOS>ATOM
      1 S1          0.3500    0.0640   -0.6510 s6        1 HYB      2.761000
      2 O2          0.3270   -0.7700    0.4780 o         1 HYB     -0.929000
      3 O3         -0.8550    0.7150   -0.9810 o         1 HYB     -0.929000
      4 C4          4.1230   -0.9090    4.1970 c3        1 HYB     -0.128000
      5 C5          4.5890   -1.1550    2.7740 c2        1 HYB     -0.064000
      6 C6          4.0760   -0.3610    1.8330 c1        1 HYB     -0.072000
      7 C7          3.6560    0.8860    1.8870 cv        1 HYB     -0.076000
      8 C8          3.7750    1.3530    3.3030 cv        1 HYB     -0.200000
      9 C9          3.8050    0.5470    4.4020 c2        1 HYB      0.070000
     10 C10         3.2710    1.1800    5.6310 c3        1 HYB     -0.187000
     11 C11         2.5580    2.4710    5.4200 c2        1 HYB      0.027000
     12 C12         2.3320    3.0800    4.2010 c2        1 HYB     -0.164000
     13 C13         2.9020    2.4610    3.0810 cv        1 HYB      0.222000
     14 C15        -7.7750    8.1250   -2.2090 c3        1 HYB     -0.011000
     15 N16        -4.1160    6.8500   -1.2660 nt        1 HYB     -0.433000
     16 C17        -8.7050    9.2690   -2.4330 c2        1 HYB     -0.124000
     17 C18        -8.3480   10.4180   -3.0130 c2        1 HYB     -0.204000
     18 C19        -9.2910   11.5650   -3.2070 c3        1 HYB     -0.121000
     19 C20        -9.5330   11.8410   -4.6400 c2        1 HYB      0.061000
     20 C21        -9.4770   13.1120   -5.1500 c2        1 HYB     -0.219500
     21 C22        -9.1300   14.2000   -4.3240 c2        1 HYB      0.151000
     22 C23        -8.8330   14.0020   -2.9610 c2        1 HYB     -0.219500
     23 C24        -8.8770   12.7440   -2.4150 c2        1 HYB      0.061000
     24 N25        -0.4680    3.4140    0.3370 nt        1 HYB     -0.396000
     25 C26        -3.8720    4.6990   -2.3950 c2        1 HYB     -0.257000
     26 C27        -3.4640    5.6420   -1.3290 c2        1 HYB      0.357000
     27 O28        -2.5570    5.4020   -0.4960 o         1 HYB     -0.425000
     28 C29        -3.9470    3.3650   -2.2580 c2        1 HYB      0.001000
     29 C30        -4.3600    2.5110   -3.4020 c3        1 HYB     -0.213500
     30 C31        -3.6550    2.6220   -1.0110 c3        1 HYB     -0.213500
     31 C32         0.6740    3.2570    1.0460 c2        1 HYB      0.293000
     32 O33         1.1110    4.1730    1.7860 o         1 HYB     -0.425000
     33 C34         1.4310    1.9190    1.0050 c3        1 HYB     -0.088000
     34 C35         2.8250    2.1360    1.5640 cy        1 HYB      0.035000
     35 C36         1.5260    1.3060   -0.3800 c3        1 HYB     -0.850000
     36 C37        -0.0760   -1.7710   -2.4450 c3        1 HYB     -0.203333
     37 C38         0.9910   -0.7620   -2.0300 c3        1 HYB     -0.693000
     38 C39         1.2440    0.1830   -3.1890 c3        1 HYB     -0.203333
     39 C40         2.2650   -1.5190   -1.7010 c3        1 HYB     -0.203333
     40 H4          3.2170   -1.5160    4.4760 hc        1 HYB      0.154500
     41 H5          4.9640   -1.2260    4.8750 hc        1 HYB      0.154500
     42 H6          5.3850   -1.8950    2.6140 ha        1 HYB      0.189000
     43 H10         2.5810    0.4660    6.1750 hc        1 HYB      0.197500
     44 H11         4.1330    1.3750    6.3480 hc        1 HYB      0.197500
     45 H12         2.1530    2.9350    6.3410 ha        1 HYB      0.181000
     46 H13         1.7070    3.9880    4.0880 ha        1 HYB      0.228000
     47 HO4        -6.5500    8.2320   -3.7080 ho        1 HYB      0.209000
     48 HN6        -3.8330    7.5180   -0.5930 hn        1 HYB      0.228500
     49 H17        -4.8180    7.0950   -1.9170 hn        1 HYB      0.228500
     50 H181       -9.7300    9.0890   -2.0600 ha        1 HYB      0.144000
     51 H182       -7.3190   10.5920   -3.3700 ha        1 HYB      0.165000
     52 H20       -10.3210   11.2670   -2.7830 hc        1 HYB      0.217000
     53 H21        -9.7800   10.9740   -5.2820 ha        1 HYB      0.189500
     54 H22        -9.6920   13.2980   -6.2200 ha        1 HYB      0.198000
     55 H23        -9.0820   15.2220   -4.7530 ha        1 HYB      0.195000
     56 H24        -8.5490   14.8730   -2.3410 ha        1 HYB      0.198000
     57 HN5        -0.5100    6.1710    1.3930 ha        1 HYB      0.001500
     58 H26        -1.0600    6.4150    1.0800 ha        1 HYB      0.001500
     59 H29        -4.1060    5.1680   -3.3660 ha        1 HYB      0.132000
     60 H301       -5.3100    1.9750   -3.1530 hc        1 HYB      0.100000
     61 H302       -3.5710    1.7440   -3.6040 hc        1 HYB      0.100000
     62 H303       -4.5220    3.1060   -4.3340 hc        1 HYB      0.100000
     63 H311       -4.5440    2.0100   -0.7150 hc        1 HYB      0.100000
     64 H312       -2.7940    1.9210   -1.1810 hc        1 HYB      0.100000
     65 H313       -3.3920    3.3050   -0.1660 hc        1 HYB      0.100000
     66 H34        -0.8520    2.7000   -0.2370 hn        1 HYB      0.266500
     67 H351        0.8730    1.2070    1.6860 hc        1 HYB      0.138000
     68 H352        3.3930    2.8870    0.9560 hc        1 HYB      0.181000
     69 H361        2.5620    0.8900   -0.5180 h1        1 HYB      0.168000
     70 H362        1.4360    2.1140   -1.1560 h1        1 HYB      0.168000
     71 H371       -0.2560   -2.5050   -1.6210 hc        1 HYB      0.100556
     72 H372       -1.0310   -1.2450   -2.6950 hc        1 HYB      0.100556
     73 H373        0.2590   -2.3350   -3.3490 hc        1 HYB      0.100556
     74 H391        1.4830   -0.3990   -4.1130 hc        1 HYB      0.100556
     75 H392        0.3350    0.8030   -3.3910 hc        1 HYB      0.100556
     76 H393        2.1110    0.8550   -2.9740 hc        1 HYB      0.100556
     77 H401        3.1310   -0.8220   -1.5880 hc        1 HYB      0.100556
     78 H402        2.1350   -2.1070   -0.7590 hc        1 HYB      0.100556
     79 H403        2.5100   -2.2310   -2.5280 hc        1 HYB      0.100556
     80 H151       -7.6020    8.0010   -1.1000 h1        1 HYB      0.124500
     81 O14        -6.4850    8.3210   -2.7490 oh        1 HYB     -0.325000
     82 H162       -8.6200   12.5680   -1.3530 ha        1 HYB      0.189500
     83 H252       -0.9490    4.2910    0.3770 hn        1 HYB      0.266500
     84 H152       -8.2390    7.1830   -2.6150 h1        1 HYB      0.124500
@<TRIPOS>BOND
     1    1    2 1   
     2    1    3 1   
     3    1   35 1   
     4    1   37 1   
     5    4    5 1   
     6    4    9 1   
     7    4   40 1   
     8    4   41 1   
     9    5    6 1   
    10    5   42 1   
    11    6    7 1   
    12    7    8 1   
    13    7   34 1   
    14    8    9 1   
    15    8   13 1   
    16    9   10 1   
    17   10   11 1   
    18   10   43 1   
    19   10   44 1   
    20   11   12 1   
    21   11   45 1   
    22   12   13 1   
    23   12   46 1   
    24   13   34 1   
    25   14   16 1   
    26   14   80 1   
    27   14   81 1   
    28   14   84 1   
    29   15   26 1   
    30   15   48 1   
    31   15   49 1   
    32   16   17 1   
    33   16   50 1   
    34   17   18 1   
    35   17   51 1   
    36   18   19 1   
    37   18   23 1   
    38   18   52 1   
    39   19   20 1   
    40   19   53 1   
    41   20   21 1   
    42   20   54 1   
    43   21   22 1   
    44   21   55 1   
    45   22   23 1   
    46   22   56 1   
    47   23   82 1   
    48   24   31 1   
    49   24   66 1   
    50   24   83 1   
    51   25   26 1   
    52   25   28 1   
    53   25   59 1   
    54   26   27 1   
    55   28   29 1   
    56   28   30 1   
    57   29   60 1   
    58   29   61 1   
    59   29   62 1   
    60   30   63 1   
    61   30   64 1   
    62   30   65 1   
    63   31   32 1   
    64   31   33 1   
    65   33   34 1   
    66   33   35 1   
    67   33   67 1   
    68   34   68 1   
    69   35   69 1   
    70   35   70 1   
    71   36   37 1   
    72   36   71 1   
    73   36   72 1   
    74   36   73 1   
    75   37   38 1   
    76   37   39 1   
    77   38   74 1   
    78   38   75 1   
    79   38   76 1   
    80   39   77 1   
    81   39   78 1   
    82   39   79 1   
    83   47   81 1   
    84   57   58 1   
@<TRIPOS>SUBSTRUCTURE
     1 HYB         1 TEMP              0 ****  ****    0 ROOT
