@<TRIPOS>MOLECULE
HYB
   82    84     1     0     0
SMALL
bcc


@<TRIPOS>ATOM
      1 S1          1.8780    0.1190   -4.3830 s6        1 HYB      1.291000
      2 O2          0.7170    0.2110   -5.1680 o         1 HYB     -0.645800
      3 O3          2.4840    1.3240   -3.9950 o         1 HYB     -0.645800
      4 C4         -3.7490    2.6230   -2.4370 ca        1 HYB     -0.116000
      5 C5         -2.9100    2.4630   -3.5110 ca        1 HYB     -0.128000
      6 C6         -1.9800    1.4000   -3.5340 ca        1 HYB     -0.122000
      7 C7         -1.8880    0.5120   -2.4800 ca        1 HYB     -0.085300
      8 C8         -2.7430    0.6630   -1.3460 ca        1 HYB     -0.022000
      9 C9         -3.6850    1.7270   -1.3360 ca        1 HYB     -0.040000
     10 C10        -4.5560    1.8840   -0.2220 ca        1 HYB     -0.119000
     11 C11        -4.4890    1.0240    0.8440 ca        1 HYB     -0.132000
     12 C12        -3.5450   -0.0300    0.8450 ca        1 HYB     -0.128000
     13 C13        -2.6950   -0.2060   -0.2190 ca        1 HYB     -0.125000
     14 C15         1.4090    1.8750    5.4570 c3        1 HYB      0.099400
     15 N16         0.8040    0.1610    3.7420 n         1 HYB     -0.544900
     16 C17         0.3060    1.0210    4.7900 c3        1 HYB      0.113700
     17 C18        -0.4330    0.2400    5.8890 c3        1 HYB     -0.046100
     18 C19        -1.5530   -0.5860    5.3660 ca        1 HYB     -0.080300
     19 C20        -1.5000   -1.9820    5.4470 ca        1 HYB     -0.124500
     20 C21        -2.5580   -2.7560    4.9720 ca        1 HYB     -0.128500
     21 C22        -3.6770   -2.1410    4.4100 ca        1 HYB     -0.130000
     22 C23        -3.7360   -0.7500    4.3270 ca        1 HYB     -0.128500
     23 C24        -2.6810    0.0250    4.8060 ca        1 HYB     -0.124500
     24 N25         1.5130    0.0190    0.1510 n         1 HYB     -0.545900
     25 C26         1.7950   -0.3560    1.5120 c3        1 HYB      0.033700
     26 C27         1.1830    0.6570    2.5160 c         1 HYB      0.638100
     27 O28         1.0350    1.8610    2.2200 o         1 HYB     -0.620100
     28 C29         3.3100   -0.4460    1.8210 c3        1 HYB     -0.070700
     29 C30         3.9180   -1.6510    1.1360 c3        1 HYB     -0.095100
     30 C31         4.0500    0.8180    1.4410 c3        1 HYB     -0.095100
     31 C32         0.7170   -0.7510   -0.6760 c         1 HYB      0.667100
     32 O33         0.2850   -1.8650   -0.3140 o         1 HYB     -0.615100
     33 C34         0.4820   -0.2240   -2.0950 c3        1 HYB     -0.086700
     34 C35        -0.9130   -0.6120   -2.5890 c3        1 HYB     -0.046100
     35 C36         1.5720   -0.8160   -2.9810 c3        1 HYB     -0.315600
     36 C37         3.4500   -0.0960   -6.4580 c3        1 HYB     -0.081100
     37 C38         3.0500   -0.8770   -5.2110 c3        1 HYB     -0.234200
     38 C39         4.2880   -1.1160   -4.3690 c3        1 HYB     -0.081100
     39 C40         2.4580   -2.2060   -5.6420 c3        1 HYB     -0.081100
     40 H4         -4.4820    3.4430   -2.4080 ha        1 HYB      0.131000
     41 H5         -2.9510    3.1530   -4.3670 ha        1 HYB      0.134000
     42 H6         -1.3260    1.2800   -4.4160 ha        1 HYB      0.158000
     43 H10        -5.2800    2.7120   -0.2360 ha        1 HYB      0.129000
     44 H11        -5.1590    1.1420    1.7080 ha        1 HYB      0.126000
     45 H12        -3.4960   -0.7010    1.7180 ha        1 HYB      0.138000
     46 H13        -1.9550   -1.0240   -0.1990 ha        1 HYB      0.150000
     47 HO4         3.0360    1.5500    6.4400 ho        1 HYB      0.403000
     48 H152        0.9350    2.5600    6.2100 h1        1 HYB      0.039700
     49 HN6         1.0620   -0.7620    4.0000 hn        1 HYB      0.318500
     50 H17        -0.4120    1.7530    4.3070 h1        1 HYB      0.081700
     51 H181        0.3050   -0.4000    6.4440 hc        1 HYB      0.064700
     52 H182       -0.8370    0.9930    6.6180 hc        1 HYB      0.064700
     53 H20        -0.6210   -2.4730    5.8910 ha        1 HYB      0.131000
     54 H21        -2.5090   -3.8520    5.0390 ha        1 HYB      0.132000
     55 H22        -4.5100   -2.7520    4.0320 ha        1 HYB      0.133000
     56 H23        -4.6150   -0.2610    3.8810 ha        1 HYB      0.132000
     57 H24        -2.7300    1.1220    4.7370 ha        1 HYB      0.131000
     58 HN5         1.6770    0.9750   -0.0780 hn        1 HYB      0.332500
     59 H26         1.3420   -1.3800    1.6890 h1        1 HYB      0.102700
     60 H29         3.3990   -0.5920    2.9350 hc        1 HYB      0.054700
     61 H301        4.9960   -1.7410    1.4140 hc        1 HYB      0.041200
     62 H302        3.3900   -2.5860    1.4440 hc        1 HYB      0.041200
     63 H303        3.8480   -1.5560    0.0260 hc        1 HYB      0.041200
     64 H311        4.1690    0.8960    0.3330 hc        1 HYB      0.041200
     65 H312        3.4940    1.7190    1.8020 hc        1 HYB      0.041200
     66 H313        5.0680    0.8150    1.8990 hc        1 HYB      0.041200
     67 H34         0.5740    0.9010   -2.1110 hc        1 HYB      0.084700
     68 H351       -0.8420   -0.9060   -3.6750 hc        1 HYB      0.077700
     69 H352       -1.2750   -1.5180   -2.0350 hc        1 HYB      0.077700
     70 H361        2.5140   -0.9030   -2.3710 h1        1 HYB      0.123700
     71 H362        1.2790   -1.8730   -3.2240 h1        1 HYB      0.123700
     72 H371        4.2050   -0.6680   -7.0480 hc        1 HYB      0.054478
     73 H372        2.5550    0.0790   -7.1060 hc        1 HYB      0.054478
     74 H373        3.8990    0.8870   -6.1690 hc        1 HYB      0.054478
     75 H391        4.6470   -0.1530   -3.9280 hc        1 HYB      0.054478
     76 H392        4.0780   -1.8440   -3.5480 hc        1 HYB      0.054478
     77 H393        5.1060   -1.5400   -5.0000 hc        1 HYB      0.054478
     78 H401        1.4680   -2.0460   -6.1360 hc        1 HYB      0.054478
     79 H402        3.1380   -2.7110   -6.3710 hc        1 HYB      0.054478
     80 H403        2.3290   -2.8890   -4.7670 hc        1 HYB      0.054478
     81 H151        1.9410    2.4860    4.6790 h1        1 HYB      0.039700
     82 O14         2.3170    1.0010    6.1070 oh        1 HYB     -0.609800
@<TRIPOS>BOND
     1    1    2 2   
     2    1    3 2   
     3    1   35 1   
     4    1   37 1   
     5    4    5 ar  
     6    4    9 ar  
     7    4   40 1   
     8    5    6 ar  
     9    5   41 1   
    10    6    7 ar  
    11    6   42 1   
    12    7    8 ar  
    13    7   34 1   
    14    8    9 ar  
    15    8   13 ar  
    16    9   10 ar  
    17   10   11 ar  
    18   10   43 1   
    19   11   12 ar  
    20   11   44 1   
    21   12   13 ar  
    22   12   45 1   
    23   13   46 1   
    24   14   16 1   
    25   14   48 1   
    26   14   81 1   
    27   14   82 1   
    28   15   16 1   
    29   15   26 1   
    30   15   49 1   
    31   16   17 1   
    32   16   50 1   
    33   17   18 1   
    34   17   51 1   
    35   17   52 1   
    36   18   19 ar  
    37   18   23 ar  
    38   19   20 ar  
    39   19   53 1   
    40   20   21 ar  
    41   20   54 1   
    42   21   22 ar  
    43   21   55 1   
    44   22   23 ar  
    45   22   56 1   
    46   23   57 1   
    47   24   25 1   
    48   24   31 1   
    49   24   58 1   
    50   25   26 1   
    51   25   28 1   
    52   25   59 1   
    53   26   27 2   
    54   28   29 1   
    55   28   30 1   
    56   28   60 1   
    57   29   61 1   
    58   29   62 1   
    59   29   63 1   
    60   30   64 1   
    61   30   65 1   
    62   30   66 1   
    63   31   32 2   
    64   31   33 1   
    65   33   34 1   
    66   33   35 1   
    67   33   67 1   
    68   34   68 1   
    69   34   69 1   
    70   35   70 1   
    71   35   71 1   
    72   36   37 1   
    73   36   72 1   
    74   36   73 1   
    75   36   74 1   
    76   37   38 1   
    77   37   39 1   
    78   38   75 1   
    79   38   76 1   
    80   38   77 1   
    81   39   78 1   
    82   39   79 1   
    83   39   80 1   
    84   47   82 1   
@<TRIPOS>SUBSTRUCTURE
     1 HYB         1 TEMP              0 ****  ****    0 ROOT
