@<TRIPOS>MOLECULE
HYB
   82    75     1     0     0
SMALL
bcc


@<TRIPOS>ATOM
      1 S1          2.2610   -2.8720    1.5390 ss        1 HYB      2.773000
      2 O2          3.4460   -3.3520    0.8750 o         1 HYB     -0.921000
      3 O3          2.8130   -2.3410    2.7450 o         1 HYB     -0.921000
      4 C4          7.0870   -1.9340    1.1140 c1        1 HYB     -0.114000
      5 C5          5.8220   -2.5310    1.1370 c1        1 HYB     -0.123667
      6 C6          4.6950   -1.7940    0.7660 c1        1 HYB     -0.123667
      7 C7          4.8300   -0.4690    0.3740 c1        1 HYB     -0.089000
      8 C8          6.1220    0.1400    0.3510 c1        1 HYB     -0.022000
      9 C9          7.2260   -0.5860    0.7160 c1        1 HYB     -0.039000
     10 C10         8.5130   -0.0030    0.6370 c1        1 HYB     -0.114000
     11 C11         8.6570    1.2960    0.1930 c1        1 HYB     -0.123667
     12 C12         7.5400    2.0320   -0.1760 c1        1 HYB     -0.123667
     13 C13         6.2710    1.4600   -0.1000 c1        1 HYB     -0.124000
     14 O14        -5.8860    0.4410   -0.0290 oh        1 HYB     -0.328000
     15 C15        -4.6280    0.8140   -0.5380 c3        1 HYB     -0.014000
     16 N16        -3.0970    2.6770   -0.6680 n         1 HYB     -0.361000
     17 C17        -4.4530    2.3360   -0.4140 c3        1 HYB     -0.007000
     18 C18        -5.3590    3.0390   -1.4240 c3        1 HYB     -0.144000
     19 C19        -6.8490    3.0530   -0.8780 c2        1 HYB     -0.079000
     20 C20        -7.4270    4.2530   -0.4530 c2        1 HYB     -0.126000
     21 C21        -8.7490    4.2730   -0.0150 c1        1 HYB     -0.125000
     22 C22        -9.4930    3.1050    0.0010 c1        1 HYB     -0.123667
     23 C23        -8.9230    1.9080   -0.4210 c1        1 HYB     -0.123667
     24 C24        -7.5970    1.8820   -0.8620 c1        1 HYB     -0.125000
     25 N25         0.0970    0.7550   -0.1670 n         1 HYB     -0.355000
     26 C26        -0.6490    1.8520   -0.7200 c3        1 HYB      0.006000
     27 C27        -2.0380    1.9130   -0.0570 c2        1 HYB      0.282000
     28 O28        -2.2150    1.3940    1.0260 o         1 HYB     -0.407000
     29 C29        -0.8030    1.6590   -2.1820 c3        1 HYB     -0.105000
     30 C30         0.3890    2.2060   -2.8820 c3        1 HYB     -0.215500
     31 C31        -0.9300    0.1790   -2.4850 c3        1 HYB     -0.215500
     32 C32         1.5400    0.8610   -0.0210 c2        1 HYB      0.301000
     33 O33         2.0870    1.9320   -0.1850 o         1 HYB     -0.359000
     34 C34         2.3350   -0.3210    0.4970 c3        1 HYB     -0.088000
     35 C35         3.5030   -0.5880   -0.4250 c3        1 HYB     -0.126000
     36 C36         1.4310   -1.5610    0.5560 c2        1 HYB     -0.851000
     37 C37         1.9060   -5.4320    2.4350 c3        1 HYB     -0.199333
     38 C38         1.1210   -4.2160    1.8810 c2        1 HYB     -0.695000
     39 C39         0.0950   -3.7610    2.9080 c3        1 HYB     -0.199333
     40 C40         0.4180   -4.6160    0.6070 c3        1 HYB     -0.199333
     41 H4          7.8820   -2.4540    1.3760 ha        1 HYB      0.131500
     42 H5          5.7260   -3.4760    1.4170 ha        1 HYB      0.137500
     43 H6          3.8010   -2.2160    0.7820 ha        1 HYB      0.137500
     44 H10         9.2980   -0.5180    0.8960 ha        1 HYB      0.131500
     45 H11         9.5560    1.7020    0.1390 ha        1 HYB      0.137500
     46 H12         7.6410    2.9260   -0.4820 ha        1 HYB      0.137500
     47 H13         5.5000    1.9700   -0.3550 ha        1 HYB      0.141000
     48 HO4        -5.9620   -0.4430   -0.0470 ho        1 HYB      0.215000
     49 H151       -4.5680    0.5550   -1.4800 h1        1 HYB      0.102000
     50 H152       -3.9140    0.3550   -0.0230 h1        1 HYB      0.102000
     51 HN6        -2.8970    3.3920   -1.2040 hn        1 HYB      0.225000
     52 H17        -4.6970    2.6210    0.5010 h1        1 HYB      0.109000
     53 H181       -5.3280    2.5590   -2.2830 hc        1 HYB      0.092500
     54 H182       -5.0520    3.9570   -1.5540 hc        1 HYB      0.092500
     55 H20        -6.8890    5.1010   -0.4640 ha        1 HYB      0.130000
     56 H21        -9.1600    5.1270    0.2880 ha        1 HYB      0.134000
     57 H22       -10.4250    3.1220    0.3100 ha        1 HYB      0.137500
     58 H23        -9.4440    1.0940   -0.4100 ha        1 HYB      0.137500
     59 H24        -7.1960    1.0420   -1.1580 ha        1 HYB      0.132000
     60 HN5        -0.3270    0.0500    0.1500 hn        1 HYB      0.234000
     61 H26        -0.1680    2.6920   -0.5500 h1        1 HYB      0.141000
     62 H29        -1.6080    2.1270   -2.4920 hc        1 HYB      0.089000
     63 H301        0.1700    2.3750   -3.8100 hc        1 HYB      0.083333
     64 H302        1.1110    1.5690   -2.8330 hc        1 HYB      0.083333
     65 H303        0.6620    3.0400   -2.4570 hc        1 HYB      0.083333
     66 H311       -1.1970    0.0620   -3.4080 hc        1 HYB      0.083333
     67 H312       -0.0660   -0.2610   -2.3360 hc        1 HYB      0.083333
     68 H313       -1.6040   -0.2180   -1.8980 hc        1 HYB      0.083333
     69 H34         2.6710   -0.1200    1.3960 hc        1 HYB      0.162000
     70 H351        3.4260   -1.4890   -0.7980 hc        1 HYB      0.102000
     71 H352        3.5010    0.0580   -1.1400 hc        1 HYB      0.102000
     72 H361        1.2590   -1.8970   -0.3780 ha        1 HYB      0.156000
     73 H362        0.5830   -1.3260    0.9790 ha        1 HYB      0.156000
     74 H371        1.2830   -6.1830    2.5880 hc        1 HYB      0.094111
     75 H372        2.5860   -5.7000    1.7910 hc        1 HYB      0.094111
     76 H373        2.3420   -5.1830    3.2930 hc        1 HYB      0.094111
     77 H391       -0.6300   -3.2480    2.4500 hc        1 HYB      0.094111
     78 H392        0.5320   -3.1880    3.5740 hc        1 HYB      0.094111
     79 H393       -0.2900   -4.5440    3.3540 hc        1 HYB      0.094111
     80 H401       -0.0730   -5.4580    0.7540 hc        1 HYB      0.094111
     81 H402        1.0600   -4.7390   -0.0820 hc        1 HYB      0.094111
     82 H403       -0.2060   -3.9170    0.3470 hc        1 HYB      0.094111
@<TRIPOS>BOND
     1    1    2 1   
     2    1    3 1   
     3    4    9 1   
     4    4   41 1   
     5    5    6 1   
     6    5   42 1   
     7    6   43 1   
     8    7    8 1   
     9    7   35 1   
    10    8   13 1   
    11    9   10 1   
    12   10   44 1   
    13   11   12 1   
    14   11   45 1   
    15   12   46 1   
    16   13   47 1   
    17   14   15 1   
    18   14   48 1   
    19   15   17 1   
    20   15   49 1   
    21   15   50 1   
    22   16   17 1   
    23   16   27 1   
    24   16   51 1   
    25   17   18 1   
    26   17   52 1   
    27   18   19 1   
    28   18   53 1   
    29   18   54 1   
    30   19   20 1   
    31   19   24 1   
    32   20   21 1   
    33   20   55 1   
    34   21   56 1   
    35   22   23 1   
    36   22   57 1   
    37   23   58 1   
    38   24   59 1   
    39   25   26 1   
    40   25   32 1   
    41   25   60 1   
    42   26   27 1   
    43   26   29 1   
    44   26   61 1   
    45   27   28 1   
    46   29   30 1   
    47   29   31 1   
    48   29   62 1   
    49   30   63 1   
    50   30   64 1   
    51   30   65 1   
    52   31   66 1   
    53   31   67 1   
    54   31   68 1   
    55   32   33 1   
    56   32   34 1   
    57   34   35 1   
    58   34   36 1   
    59   34   69 1   
    60   35   70 1   
    61   35   71 1   
    62   36   72 1   
    63   36   73 1   
    64   37   38 1   
    65   37   74 1   
    66   37   75 1   
    67   37   76 1   
    68   38   39 1   
    69   38   40 1   
    70   39   77 1   
    71   39   78 1   
    72   39   79 1   
    73   40   80 1   
    74   40   81 1   
    75   40   82 1   
@<TRIPOS>SUBSTRUCTURE
     1 HYB         1 TEMP              0 ****  ****    0 ROOT
