@<TRIPOS>MOLECULE
HYB
   84    84     1     0     0
SMALL
bcc


@<TRIPOS>ATOM
      1 S1        210.0610 -176.6690  128.0640 s6        1 HYB      2.758000
      2 O2        211.3160 -176.8750  128.6790 o         1 HYB     -0.937000
      3 O3        209.0100 -176.2590  128.9070 o         1 HYB     -0.937000
      4 C4        215.1400 -173.4990  130.8240 c2        1 HYB     -0.025000
      5 C5        214.3940 -174.4430  130.1840 c2        1 HYB     -0.185000
      6 C6        213.5330 -174.3470  129.0440 c2        1 HYB      0.037000
      7 C7        213.1250 -173.3520  128.1670 c2        1 HYB     -0.086000
      8 C8        213.5100 -172.0310  128.1920 c1        1 HYB      0.122000
      9 C9        215.0870 -172.1420  130.2840 c3        1 HYB     -0.219000
     10 C10       215.7140 -170.8800  130.6660 c2        1 HYB      0.040000
     11 C11       215.4220 -169.7730  129.9020 c2        1 HYB     -0.218000
     12 C12       214.5580 -169.7560  128.7670 c2        1 HYB      0.182000
     13 C13       213.9320 -170.8760  128.3320 c1        1 HYB     -0.211000
     14 C15      -273.3090  233.4230 -167.3330 c3        1 HYB     -0.002000
     15 N16      -271.3610  230.1430 -165.3380 n         1 HYB     -0.410000
     16 C17      -274.2560  233.3570 -166.1790 c2        1 HYB     -0.161000
     17 C18      -273.8920  232.8640 -164.9950 c2        1 HYB     -0.168000
     18 C19      -274.7720  232.6180 -163.8170 c3        1 HYB     -0.127000
     19 C20      -276.1720  233.0430 -163.9390 c2        1 HYB      0.067000
     20 C21      -276.8420  233.6140 -162.8880 c2        1 HYB     -0.223500
     21 C22      -276.1760  233.8730 -161.6700 c2        1 HYB      0.122000
     22 C23      -274.8240  233.5420 -161.5090 c2        1 HYB     -0.223500
     23 C24      -274.1180  232.9680 -162.5450 c2        1 HYB      0.067000
     24 N25       208.5970 -173.2330  128.1740 n         1 HYB     -0.422000
     25 C26      -271.2440  228.7370 -163.3240 cx        1 HYB     -0.214000
     26 C27      -271.8330  229.8790 -164.0850 c2        1 HYB      0.361000
     27 O28      -272.7090  230.6290 -163.5770 o         1 HYB     -0.494000
     28 C29      -271.1490  227.3380 -163.8900 cx        1 HYB     -0.139000
     29 C30      -272.1350  227.6460 -162.7980 cx        1 HYB     -0.176000
     30 C31      -271.6330  227.0050 -165.2570 c3        1 HYB     -0.199000
     31 C32       209.8030 -173.0270  127.5680 c2        1 HYB      0.298000
     32 O33       210.0780 -171.9390  127.0210 o         1 HYB     -0.377000
     33 C34       210.8180 -174.1760  127.6180 c3        1 HYB     -0.091000
     34 C35       212.1730 -173.7440  127.0650 c3        1 HYB     -0.123000
     35 C36       210.2790 -175.4090  126.9070 c3        1 HYB     -0.850000
     36 C37       209.3240 -179.1630  128.0780 c3        1 HYB     -0.204333
     37 C38       209.6070 -178.0260  127.1000 c3        1 HYB     -0.694000
     38 C39       208.3470 -177.7500  126.2980 c3        1 HYB     -0.204333
     39 C40       210.7210 -178.4570  126.1630 c3        1 HYB     -0.204333
     40 H4        213.9630 -171.9110  130.3460 hc        1 HYB      0.166500
     41 H5        215.7550 -173.7400  131.7050 ha        1 HYB      0.174000
     42 H6        214.4370 -175.4740  130.6010 ha        1 HYB      0.177000
     43 H10       215.4490 -172.3060  129.2070 hc        1 HYB      0.166500
     44 H11       216.3930 -170.8200  131.5340 ha        1 HYB      0.178000
     45 H12       215.8850 -168.8040  130.1730 ha        1 HYB      0.183000
     46 H13       214.4030 -168.7920  128.2380 ha        1 HYB      0.194000
     47 HO4      -271.5130  233.5340 -166.6090 ho        1 HYB      0.210000
     48 HN6      -271.7180  230.9030 -165.8700 hn        1 HYB      0.241000
     49 H17      -273.0470  232.6940 -162.4460 ha        1 HYB      0.193500
     50 H181     -275.2710  233.7200 -166.4050 ha        1 HYB      0.134000
     51 H182     -272.8540  232.5150 -164.8230 ha        1 HYB      0.174000
     52 H20      -274.7960  231.4450 -163.7560 hc        1 HYB      0.276000
     53 H21      -276.6780  232.8550 -164.9040 ha        1 HYB      0.193500
     54 H22      -277.9070  233.8940 -162.9850 ha        1 HYB      0.188500
     55 H23      -276.7300  234.3500 -160.8380 ha        1 HYB      0.184000
     56 H24      -274.3230  233.7580 -160.5480 ha        1 HYB      0.188500
     57 HN5       207.9170 -172.5110  128.1620 hn        1 HYB      0.248500
     58 H26       208.3810 -174.0900  128.6260 hn        1 HYB      0.248500
     59 H29      -270.4120  229.0960 -162.6810 hc        1 HYB      0.153000
     60 H301     -270.2400  226.7610 -163.6160 hc        1 HYB      0.136000
     61 H302     -271.9520  227.2610 -161.7790 hc        1 HYB      0.123000
     62 H303     -273.2120  227.6740 -163.0420 hc        1 HYB      0.123000
     63 H311     -271.8640  225.9120 -165.3170 hc        1 HYB      0.086000
     64 H312     -270.8480  227.2370 -166.0190 hc        1 HYB      0.086000
     65 H313     -272.5620  227.5710 -165.5160 hc        1 HYB      0.086000
     66 H34       209.3180 -175.1610  126.3810 h1        1 HYB      0.168000
     67 H351      210.9530 -174.4270  128.7160 hc        1 HYB      0.108000
     68 H352      212.6450 -174.5820  126.4850 hc        1 HYB      0.131000
     69 H361      212.0280 -172.8840  126.3530 hc        1 HYB      0.131000
     70 H362      210.9730 -175.7140  126.0810 h1        1 HYB      0.168000
     71 H371      209.0100 -180.0790  127.5220 hc        1 HYB      0.101111
     72 H372      210.2440 -179.4070  128.6640 hc        1 HYB      0.101111
     73 H373      208.4980 -178.8770  128.7760 hc        1 HYB      0.101111
     74 H391      207.9690 -178.6980  125.8410 hc        1 HYB      0.101111
     75 H392      207.5460 -177.3390  126.9630 hc        1 HYB      0.101111
     76 H393      208.5530 -177.0290  125.4700 hc        1 HYB      0.101111
     77 H401      210.8430 -177.7290  125.3250 hc        1 HYB      0.101111
     78 H402      210.4800 -179.4530  125.7170 hc        1 HYB      0.101111
     79 H403      211.6850 -178.5480  126.7230 hc        1 HYB      0.101111
     80 H151     -273.7140  232.7940 -168.1770 h1        1 HYB      0.117500
     81 O14      -272.0460  232.8540 -167.0380 oh        1 HYB     -0.331000
     82 H162     -270.7050  229.5340 -165.7620 hn        1 HYB      0.241000
     83 H252      213.0650 -175.3470  128.8170 ha        1 HYB      0.198000
     84 H152     -273.2040  234.4850 -167.6840 h1        1 HYB      0.117500
@<TRIPOS>BOND
     1    1    2 1   
     2    1    3 1   
     3    1   35 1   
     4    1   37 1   
     5    4    5 1   
     6    4    9 1   
     7    4   41 1   
     8    5    6 1   
     9    5   42 1   
    10    6    7 1   
    11    6   83 1   
    12    7    8 1   
    13    7   34 1   
    14    8   13 1   
    15    9   10 1   
    16    9   40 1   
    17    9   43 1   
    18   10   11 1   
    19   10   44 1   
    20   11   12 1   
    21   11   45 1   
    22   12   13 1   
    23   12   46 1   
    24   14   16 1   
    25   14   80 1   
    26   14   81 1   
    27   14   84 1   
    28   15   26 1   
    29   15   48 1   
    30   15   82 1   
    31   16   17 1   
    32   16   50 1   
    33   17   18 1   
    34   17   51 1   
    35   18   19 1   
    36   18   23 1   
    37   18   52 1   
    38   19   20 1   
    39   19   53 1   
    40   20   21 1   
    41   20   54 1   
    42   21   22 1   
    43   21   55 1   
    44   22   23 1   
    45   22   56 1   
    46   23   49 1   
    47   24   31 1   
    48   24   57 1   
    49   24   58 1   
    50   25   26 1   
    51   25   28 1   
    52   25   29 1   
    53   25   59 1   
    54   26   27 1   
    55   28   29 1   
    56   28   30 1   
    57   28   60 1   
    58   29   61 1   
    59   29   62 1   
    60   30   63 1   
    61   30   64 1   
    62   30   65 1   
    63   31   32 1   
    64   31   33 1   
    65   33   34 1   
    66   33   35 1   
    67   33   67 1   
    68   34   68 1   
    69   34   69 1   
    70   35   66 1   
    71   35   70 1   
    72   36   37 1   
    73   36   71 1   
    74   36   72 1   
    75   36   73 1   
    76   37   38 1   
    77   37   39 1   
    78   38   74 1   
    79   38   75 1   
    80   38   76 1   
    81   39   77 1   
    82   39   78 1   
    83   39   79 1   
    84   47   81 1   
@<TRIPOS>SUBSTRUCTURE
     1 HYB         1 TEMP              0 ****  ****    0 ROOT
