@<TRIPOS>MOLECULE
HYE
   44    45     1     0     0
SMALL
bcc


@<TRIPOS>ATOM
      1 C1          0.1800   -0.0060   -0.5620 c3        1 HYE      0.124400
      2 C2          1.6770    0.0130   -0.2930 c3        1 HYE     -0.071400
      3 C3          1.9710   -0.0000    1.1870 c3        1 HYE     -0.164700
      4 C4          3.4710    0.2330    1.5170 c3        1 HYE      0.174800
      5 C6          3.7750    1.6920    1.7860 c3        1 HYE     -0.129100
      6 O21         0.0160    0.1000   -1.9680 oh        1 HYE     -0.606800
      7 C19         1.6340   -1.3280    1.8650 c         1 HYE      0.706500
      8 O20         0.5720   -1.9590    1.7680 o         1 HYE     -0.619500
      9 N18         2.7170   -1.7650    2.6360 n         1 HYE     -0.538900
     10 C7          3.7550   -0.7450    2.7400 c3        1 HYE     -0.010600
     11 C16         5.1550   -1.3470    2.5330 c         1 HYE      0.597900
     12 O17         6.1590   -0.8360    3.0250 o         1 HYE     -0.531100
     13 C8          3.7410   -0.0010    4.1080 c3        1 HYE      0.131100
     14 O15         2.4950    0.6730    4.2200 oh        1 HYE     -0.608800
     15 C9          4.0000   -0.9560    5.2870 c3        1 HYE     -0.067500
     16 C14         4.9730   -0.3090    6.2690 c3        1 HYE     -0.076400
     17 C13         5.1430   -1.1690    7.5030 c3        1 HYE     -0.076400
     18 C12         3.8250   -1.3770    8.2250 c3        1 HYE     -0.054200
     19 C11         2.6880   -1.5920    7.2980 c2        1 HYE     -0.147200
     20 C10         2.7510   -1.3810    5.9800 c2        1 HYE     -0.197200
     21 O5          4.3060   -0.2520    0.4680 oh        1 HYE     -0.603800
     22 H1         -0.2730   -0.9570   -0.1730 h1        1 HYE      0.040700
     23 H1A        -0.3220    0.8700   -0.0670 h1        1 HYE      0.040700
     24 H2          2.1160    0.9400   -0.7490 hc        1 HYE      0.061200
     25 H2A         2.1560   -0.8690   -0.7940 hc        1 HYE      0.061200
     26 H3          1.3630    0.7900    1.7130 hc        1 HYE      0.099700
     27 H6          3.1420    2.0860    2.6170 hc        1 HYE      0.059367
     28 H6A         3.5650    2.2910    0.8650 hc        1 HYE      0.059367
     29 H6B         4.8530    1.8150    2.0530 hc        1 HYE      0.059367
     30 HO21       -0.8890   -0.1680   -2.1590 ho        1 HYE      0.403000
     31 HN18        2.5700   -2.3640    3.4130 hn        1 HYE      0.319500
     32 H16         5.1930   -2.2430    1.8780 h4        1 HYE      0.035200
     33 H8          4.5660    0.7700    4.0720 h1        1 HYE      0.069700
     34 HO15        2.3920    0.9230    5.1480 ho        1 HYE      0.418000
     35 H9          4.4980   -1.8870    4.8840 hc        1 HYE      0.066700
     36 H14         5.9650   -0.1690    5.7620 hc        1 HYE      0.050700
     37 H14A        4.5910    0.7030    6.5620 hc        1 HYE      0.050700
     38 H13         5.5670   -2.1640    7.2050 hc        1 HYE      0.046200
     39 H13A        5.8780   -0.6860    8.1980 hc        1 HYE      0.046200
     40 H12         3.5960   -0.4780    8.8610 hc        1 HYE      0.052200
     41 H12A        3.9150   -2.2560    8.9190 hc        1 HYE      0.052200
     42 H11         1.7520   -1.9300    7.7720 ha        1 HYE      0.126000
     43 H10         1.8660   -1.5250    5.3390 ha        1 HYE      0.133000
     44 HO5         4.2200    0.3580   -0.2750 ho        1 HYE      0.417000
@<TRIPOS>BOND
     1    1    2 1   
     2    1    6 1   
     3    1   22 1   
     4    1   23 1   
     5    2    3 1   
     6    2   24 1   
     7    2   25 1   
     8    3    4 1   
     9    3    7 1   
    10    3   26 1   
    11    4    5 1   
    12    4   10 1   
    13    4   21 1   
    14    5   27 1   
    15    5   28 1   
    16    5   29 1   
    17    6   30 1   
    18    7    8 2   
    19    7    9 1   
    20    9   10 1   
    21    9   31 1   
    22   10   11 1   
    23   10   13 1   
    24   11   12 2   
    25   11   32 1   
    26   13   14 1   
    27   13   15 1   
    28   13   33 1   
    29   14   34 1   
    30   15   16 1   
    31   15   20 1   
    32   15   35 1   
    33   16   17 1   
    34   16   36 1   
    35   16   37 1   
    36   17   18 1   
    37   17   38 1   
    38   17   39 1   
    39   18   19 1   
    40   18   40 1   
    41   18   41 1   
    42   19   20 2   
    43   19   42 1   
    44   20   43 1   
    45   21   44 1   
@<TRIPOS>SUBSTRUCTURE
     1 HYE         1 TEMP              0 ****  ****    0 ROOT
