@<TRIPOS>MOLECULE
HYE
   44    45     1     0     0
SMALL
bcc


@<TRIPOS>ATOM
      1 C1          0.2550   -0.0210   -0.7660 c3        1 HYE      0.121400
      2 C2          1.7250   -0.0340   -0.3780 c3        1 HYE     -0.061400
      3 C3          1.8930    0.0660    1.1220 c3        1 HYE     -0.126700
      4 C4          3.3610    0.3280    1.5580 c3        1 HYE      0.177800
      5 C6          3.5920    1.7850    1.9060 c3        1 HYE     -0.130100
      6 O21         0.2030   -0.0610   -2.1840 oh        1 HYE     -0.603800
      7 C19         1.4860   -1.2090    1.8550 c         1 HYE      0.703500
      8 O20         0.4010   -1.8010    1.7640 o         1 HYE     -0.618500
      9 N18         2.5280   -1.6550    2.6750 ns        1 HYE     -0.540900
     10 C7          3.6090   -0.6850    2.7650 c3        1 HYE     -0.039600
     11 C16         4.9760   -1.3540    2.5360 c         1 HYE      0.587900
     12 O17         6.0100   -0.6870    2.5040 o         1 HYE     -0.541100
     13 C8          3.6890    0.0160    4.1540 c3        1 HYE      0.132100
     14 O15         2.4660    0.7060    4.3620 oh        1 HYE     -0.600800
     15 C9          3.9990   -0.9770    5.2910 c3        1 HYE     -0.072500
     16 C14         5.0320   -0.3710    6.2380 c3        1 HYE     -0.077400
     17 C13         5.2590   -1.2740    7.4320 c3        1 HYE     -0.076400
     18 C12         3.9820   -1.4910    8.2200 c3        1 HYE     -0.055200
     19 C11         2.7900   -1.6530    7.3530 c2        1 HYE     -0.145200
     20 C10         2.7820   -1.4000    6.0410 c2        1 HYE     -0.196200
     21 O5          4.2010   -0.0610    0.4780 oh        1 HYE     -0.595800
     22 H1         -0.2420    0.9210   -0.4060 h1        1 HYE      0.035200
     23 H1A        -0.2740   -0.9070   -0.3210 h1        1 HYE      0.035200
     24 H2          2.2100   -0.9690   -0.7620 hc        1 HYE      0.071700
     25 H2A         2.2510    0.8300   -0.8640 hc        1 HYE      0.071700
     26 H3          1.2470    0.8950    1.5260 hc        1 HYE      0.092700
     27 H6          3.4160    2.4050    0.9930 hc        1 HYE      0.060033
     28 H6A         2.8950    2.1200    2.7100 hc        1 HYE      0.060033
     29 H6B         4.6450    1.9410    2.2450 hc        1 HYE      0.060033
     30 HO21       -0.7040   -0.2870   -2.4170 ho        1 HYE      0.400000
     31 HN18        2.3370   -2.2220    3.4670 hn        1 HYE      0.317500
     32 H16         4.9730   -2.4540    2.3860 h4        1 HYE      0.028200
     33 H8          4.5250    0.7730    4.0920 h1        1 HYE      0.063700
     34 HO15        2.4290    0.9400    5.2980 ho        1 HYE      0.417000
     35 H9          4.4540   -1.9080    4.8400 hc        1 HYE      0.063700
     36 H14         4.6740    0.6330    6.5860 hc        1 HYE      0.048700
     37 H14A        5.9970   -0.2190    5.6890 hc        1 HYE      0.048700
     38 H13         5.6540   -2.2630    7.0780 hc        1 HYE      0.046700
     39 H13A        6.0390   -0.8220    8.0990 hc        1 HYE      0.046700
     40 H12         4.0970   -2.3970    8.8740 hc        1 HYE      0.053700
     41 H12A        3.8050   -0.6140    8.9020 hc        1 HYE      0.053700
     42 H11         1.8750   -1.9880    7.8690 ha        1 HYE      0.128000
     43 H10         1.8590   -1.5030    5.4480 ha        1 HYE      0.135000
     44 HO5         5.0650    0.3510    0.6170 ho        1 HYE      0.420000
@<TRIPOS>BOND
     1    1    2 1   
     2    1    6 1   
     3    1   22 1   
     4    1   23 1   
     5    2    3 1   
     6    2   24 1   
     7    2   25 1   
     8    3    4 1   
     9    3    7 1   
    10    3   26 1   
    11    4    5 1   
    12    4   10 1   
    13    4   21 1   
    14    5   27 1   
    15    5   28 1   
    16    5   29 1   
    17    6   30 1   
    18    7    8 2   
    19    7    9 1   
    20    9   10 1   
    21    9   31 1   
    22   10   11 1   
    23   10   13 1   
    24   11   12 2   
    25   11   32 1   
    26   13   14 1   
    27   13   15 1   
    28   13   33 1   
    29   14   34 1   
    30   15   16 1   
    31   15   20 1   
    32   15   35 1   
    33   16   17 1   
    34   16   36 1   
    35   16   37 1   
    36   17   18 1   
    37   17   38 1   
    38   17   39 1   
    39   18   19 1   
    40   18   40 1   
    41   18   41 1   
    42   19   20 2   
    43   19   42 1   
    44   20   43 1   
    45   21   44 1   
@<TRIPOS>SUBSTRUCTURE
     1 HYE         1 TEMP              0 ****  ****    0 ROOT
