@<TRIPOS>MOLECULE
HYE
   44    45     1     0     0
SMALL
bcc


@<TRIPOS>ATOM
      1 C1          4.5540    1.1110    0.3840 c3        1 HYE      0.124400
      2 C2          3.6950   -0.1320    0.2110 c3        1 HYE     -0.071400
      3 C3          2.2270    0.1870    0.3610 c3        1 HYE     -0.164700
      4 C4          1.3310   -1.0820    0.4210 c3        1 HYE      0.169800
      5 C6          1.1330   -1.5780    1.8370 c3        1 HYE     -0.130100
      6 O21         5.9060    0.6840    0.3190 oh        1 HYE     -0.605800
      7 C19         1.6600    0.9810   -0.8170 c         1 HYE      0.707500
      8 O20         2.1870    1.9400   -1.3990 o         1 HYE     -0.623500
      9 N18         0.3930    0.5040   -1.1310 n         1 HYE     -0.579900
     10 C7         -0.0020   -0.6490   -0.3390 c3        1 HYE     -0.030600
     11 C16        -0.4520   -1.8450   -1.1920 c         1 HYE      0.587900
     12 O17        -1.0970   -2.7750   -0.7150 o         1 HYE     -0.517100
     13 C8         -1.1580   -0.3040    0.6550 c3        1 HYE      0.150100
     14 O15        -0.7650    0.6660    1.6010 oh        1 HYE     -0.592800
     15 C9         -2.4650    0.0630   -0.0700 c3        1 HYE     -0.053500
     16 C14        -3.6440   -0.4180    0.7740 c3        1 HYE     -0.075400
     17 C13        -4.9600    0.0570    0.1980 c3        1 HYE     -0.076400
     18 C12        -5.0260    1.5710    0.1470 c3        1 HYE     -0.053200
     19 C11        -3.7540    2.1760   -0.3140 c2        1 HYE     -0.144200
     20 C10        -2.5970    1.5120   -0.3910 c2        1 HYE     -0.194200
     21 O5          1.8810   -2.1140   -0.3940 oh        1 HYE     -0.607800
     22 H1          4.3270    1.8550   -0.4250 h1        1 HYE      0.040200
     23 H1A         4.3660    1.5850    1.3850 h1        1 HYE      0.040200
     24 H2          3.8940   -0.5840   -0.7960 hc        1 HYE      0.062700
     25 H2A         3.9880   -0.8900    0.9850 hc        1 HYE      0.062700
     26 H3          2.0530    0.7940    1.2930 hc        1 HYE      0.096700
     27 H6          0.6860   -0.7830    2.4820 hc        1 HYE      0.062700
     28 H6A         0.4630   -2.4730    1.8360 hc        1 HYE      0.062700
     29 H6B         2.1220   -1.8720    2.2680 hc        1 HYE      0.062700
     30 HO21        6.4370    1.4750    0.1750 ho        1 HYE      0.404000
     31 HN18       -0.0960    0.7510   -1.9530 hn        1 HYE      0.330500
     32 H16        -0.1290   -1.8280   -2.2560 h4        1 HYE      0.017200
     33 H8         -1.3350   -1.2360    1.2710 h1        1 HYE      0.099700
     34 HO15       -0.7440    1.5270    1.1650 ho        1 HYE      0.412000
     35 H9         -2.4880   -0.5000   -1.0490 hc        1 HYE      0.056700
     36 H14        -3.6330   -1.5390    0.8160 hc        1 HYE      0.053200
     37 H14A       -3.5260   -0.0330    1.8210 hc        1 HYE      0.053200
     38 H13        -5.0860   -0.3590   -0.8370 hc        1 HYE      0.043700
     39 H13A       -5.8050   -0.3350    0.8210 hc        1 HYE      0.043700
     40 H12        -5.8630    1.8870   -0.5310 hc        1 HYE      0.052200
     41 H12A       -5.2600    1.9740    1.1710 hc        1 HYE      0.052200
     42 H11        -3.8110    3.2430   -0.5850 ha        1 HYE      0.124000
     43 H10        -1.6870    2.0270   -0.7360 ha        1 HYE      0.124000
     44 HO5         2.6200   -2.5050    0.0890 ho        1 HYE      0.419000
@<TRIPOS>BOND
     1    1    2 1   
     2    1    6 1   
     3    1   22 1   
     4    1   23 1   
     5    2    3 1   
     6    2   24 1   
     7    2   25 1   
     8    3    4 1   
     9    3    7 1   
    10    3   26 1   
    11    4    5 1   
    12    4   10 1   
    13    4   21 1   
    14    5   27 1   
    15    5   28 1   
    16    5   29 1   
    17    6   30 1   
    18    7    8 2   
    19    7    9 1   
    20    9   10 1   
    21    9   31 1   
    22   10   11 1   
    23   10   13 1   
    24   11   12 2   
    25   11   32 1   
    26   13   14 1   
    27   13   15 1   
    28   13   33 1   
    29   14   34 1   
    30   15   16 1   
    31   15   20 1   
    32   15   35 1   
    33   16   17 1   
    34   16   36 1   
    35   16   37 1   
    36   17   18 1   
    37   17   38 1   
    38   17   39 1   
    39   18   19 1   
    40   18   40 1   
    41   18   41 1   
    42   19   20 2   
    43   19   42 1   
    44   20   43 1   
    45   21   44 1   
@<TRIPOS>SUBSTRUCTURE
     1 HYE         1 TEMP              0 ****  ****    0 ROOT
