@<TRIPOS>MOLECULE
HYE
   44    45     1     0     0
SMALL
bcc


@<TRIPOS>ATOM
      1 C1          0.1810   -0.0230   -0.5570 c3        1 HYE      0.124400
      2 C2          1.6770    0.0070   -0.2880 c3        1 HYE     -0.071400
      3 C3          1.9720   -0.0070    1.1920 c3        1 HYE     -0.164700
      4 C4          3.4700    0.2380    1.5230 c3        1 HYE      0.174800
      5 C6          3.7620    1.6990    1.7950 c3        1 HYE     -0.129100
      6 O21         0.0170    0.0840   -1.9640 oh        1 HYE     -0.606800
      7 C19         1.6450   -1.3390    1.8670 c         1 HYE      0.706500
      8 O20         0.5880   -1.9790    1.7690 o         1 HYE     -0.619500
      9 N18         2.7310   -1.7690    2.6380 n         1 HYE     -0.538900
     10 C7          3.7600   -0.7400    2.7440 c3        1 HYE     -0.010600
     11 C16         5.1660   -1.3300    2.5360 c         1 HYE      0.597900
     12 O17         6.1650   -0.8120    3.0300 o         1 HYE     -0.531100
     13 C8          3.7400    0.0010    4.1140 c3        1 HYE      0.131100
     14 O15         2.4890    0.6650    4.2270 oh        1 HYE     -0.608800
     15 C9          4.0070   -0.9550    5.2910 c3        1 HYE     -0.067500
     16 C14         4.9740   -0.3010    6.2740 c3        1 HYE     -0.076400
     17 C13         5.1500   -1.1620    7.5070 c3        1 HYE     -0.076400
     18 C12         3.8340   -1.3830    8.2280 c3        1 HYE     -0.054200
     19 C11         2.6990   -1.6060    7.3000 c2        1 HYE     -0.147200
     20 C10         2.7610   -1.3910    5.9820 c2        1 HYE     -0.197200
     21 O5          4.3080   -0.2380    0.4730 oh        1 HYE     -0.603800
     22 H1         -0.2650   -0.9790   -0.1710 h1        1 HYE      0.040700
     23 H1A        -0.3280    0.8470   -0.0600 h1        1 HYE      0.040700
     24 H2          2.1640   -0.8700   -0.7910 hc        1 HYE      0.061200
     25 H2A         2.1090    0.9390   -0.7420 hc        1 HYE      0.061200
     26 H3          1.3570    0.7770    1.7190 hc        1 HYE      0.099700
     27 H6          3.1250    2.0860    2.6260 hc        1 HYE      0.059367
     28 H6A         4.8380    1.8290    2.0620 hc        1 HYE      0.059367
     29 H6B         3.5470    2.2970    0.8750 hc        1 HYE      0.059367
     30 HO21       -0.8870   -0.1900   -2.1550 ho        1 HYE      0.403000
     31 HN18        2.5890   -2.3700    3.4140 hn        1 HYE      0.319500
     32 H16         5.2120   -2.2240    1.8790 h4        1 HYE      0.035200
     33 H8          4.5590    0.7790    4.0790 h1        1 HYE      0.069700
     34 HO15        2.3830    0.9120    5.1540 ho        1 HYE      0.418000
     35 H9          4.5130   -1.8810    4.8870 hc        1 HYE      0.066700
     36 H14         4.5820    0.7070    6.5700 hc        1 HYE      0.050700
     37 H14A        5.9640   -0.1520    5.7680 hc        1 HYE      0.050700
     38 H13         5.8810   -0.6740    8.2030 hc        1 HYE      0.046200
     39 H13A        5.5840   -2.1520    7.2070 hc        1 HYE      0.046200
     40 H12         3.5980   -0.4880    8.8660 hc        1 HYE      0.052200
     41 H12A        3.9320   -2.2630    8.9200 hc        1 HYE      0.052200
     42 H11         1.7660   -1.9530    7.7720 ha        1 HYE      0.126000
     43 H10         1.8770   -1.5410    5.3410 ha        1 HYE      0.133000
     44 HO5         4.2180    0.3720   -0.2690 ho        1 HYE      0.417000
@<TRIPOS>BOND
     1    1    2 1   
     2    1    6 1   
     3    1   22 1   
     4    1   23 1   
     5    2    3 1   
     6    2   24 1   
     7    2   25 1   
     8    3    4 1   
     9    3    7 1   
    10    3   26 1   
    11    4    5 1   
    12    4   10 1   
    13    4   21 1   
    14    5   27 1   
    15    5   28 1   
    16    5   29 1   
    17    6   30 1   
    18    7    8 2   
    19    7    9 1   
    20    9   10 1   
    21    9   31 1   
    22   10   11 1   
    23   10   13 1   
    24   11   12 2   
    25   11   32 1   
    26   13   14 1   
    27   13   15 1   
    28   13   33 1   
    29   14   34 1   
    30   15   16 1   
    31   15   20 1   
    32   15   35 1   
    33   16   17 1   
    34   16   36 1   
    35   16   37 1   
    36   17   18 1   
    37   17   38 1   
    38   17   39 1   
    39   18   19 1   
    40   18   40 1   
    41   18   41 1   
    42   19   20 2   
    43   19   42 1   
    44   20   43 1   
    45   21   44 1   
@<TRIPOS>SUBSTRUCTURE
     1 HYE         1 TEMP              0 ****  ****    0 ROOT
