@<TRIPOS>MOLECULE
HYE
   44    45     1     0     0
SMALL
bcc


@<TRIPOS>ATOM
      1 C1         -3.6180    0.4840   -2.8230 c3        1 HYE      0.122400
      2 C2         -2.1120    0.4140   -2.7880 c3        1 HYE     -0.070400
      3 C3         -1.6790    0.3740   -1.4620 c3        1 HYE     -0.170700
      4 C4         -0.2410    0.8990   -1.3740 c3        1 HYE      0.157800
      5 C6          0.3360    1.1000   -2.7870 c3        1 HYE     -0.135100
      6 O21        -4.0570    0.5170   -4.1670 oh        1 HYE     -0.607800
      7 C19        -1.5120   -1.1220   -1.0050 c         1 HYE      0.712500
      8 O20        -2.3990   -1.9490   -0.9300 o         1 HYE     -0.621500
      9 N18        -0.2430   -1.3710   -1.0420 n         1 HYE     -0.544900
     10 C7          0.4950   -0.0930   -0.6850 c3        1 HYE     -0.031600
     11 C16         2.0000   -0.1170   -1.0400 c         1 HYE      0.565900
     12 O17         2.4730   -1.0780   -1.6140 o         1 HYE     -0.500100
     13 C8          0.5300    0.1510    0.8010 c3        1 HYE      0.152100
     14 O15        -0.7340   -0.0260    1.3270 oh        1 HYE     -0.582800
     15 C9          1.5230   -0.8590    1.4730 c3        1 HYE     -0.032500
     16 C14         2.6260   -0.0640    2.3880 c3        1 HYE     -0.074400
     17 C13         2.2120    0.3970    3.4440 c3        1 HYE     -0.076400
     18 C12         1.5360   -0.6680    4.4640 c3        1 HYE     -0.046200
     19 C11         0.5310   -1.4750    3.8130 c2        1 HYE     -0.153200
     20 C10         0.8170   -1.8380    2.2100 c2        1 HYE     -0.151200
     21 O5         -0.2100    2.1030   -0.6630 oh        1 HYE     -0.609800
     22 H1         -3.9180    1.2950   -2.3620 h1        1 HYE      0.043200
     23 H1A        -3.9920   -0.3030   -2.3760 h1        1 HYE      0.043200
     24 H2         -1.8130   -0.3910   -3.2530 hc        1 HYE      0.059700
     25 H2A        -1.7400    1.2020   -3.2290 hc        1 HYE      0.059700
     26 H3         -2.3740    0.9000   -1.0230 hc        1 HYE      0.094700
     27 H6          1.2840    1.3340   -2.7220 hc        1 HYE      0.059700
     28 H6A         0.2380    0.2710   -3.3010 hc        1 HYE      0.059700
     29 H6B        -0.1490    1.8240   -3.2380 hc        1 HYE      0.059700
     30 HO21       -4.9440    0.5630   -4.1870 ho        1 HYE      0.405000
     31 HN18        0.1410   -2.1620   -1.2750 hn        1 HYE      0.339500
     32 H16         2.5560    0.6650   -0.8600 h4        1 HYE      0.010200
     33 H8          0.8290    1.0640    0.9740 h1        1 HYE      0.055700
     34 HO15       -0.9400    0.6680    1.8470 ho        1 HYE      0.414000
     35 H9          1.9460   -1.2570    0.6860 hc        1 HYE      0.056700
     36 H14         2.9880    0.6730    1.8560 hc        1 HYE      0.042200
     37 H14A        3.3570   -0.6820    2.5910 hc        1 HYE      0.042200
     38 H13         1.5480    1.0820    3.2360 hc        1 HYE      0.045200
     39 H13A        2.9630    0.8260    3.9050 hc        1 HYE      0.045200
     40 H12         2.2560   -1.1050    4.9620 hc        1 HYE      0.048700
     41 H12A        1.0650   -0.2190    5.1960 hc        1 HYE      0.048700
     42 H11        -0.0580   -2.0430    4.3450 ha        1 HYE      0.124000
     43 H10         0.8200   -2.7660    1.9150 ha        1 HYE      0.122000
     44 HO5        -0.3370    2.7810   -1.2240 ho        1 HYE      0.421000
@<TRIPOS>BOND
     1    1    2 1   
     2    1    6 1   
     3    1   22 1   
     4    1   23 1   
     5    2    3 1   
     6    2   24 1   
     7    2   25 1   
     8    3    4 1   
     9    3    7 1   
    10    3   26 1   
    11    4    5 1   
    12    4   10 1   
    13    4   21 1   
    14    5   27 1   
    15    5   28 1   
    16    5   29 1   
    17    6   30 1   
    18    7    8 2   
    19    7    9 1   
    20    9   10 1   
    21    9   31 1   
    22   10   11 1   
    23   10   13 1   
    24   11   12 2   
    25   11   32 1   
    26   13   14 1   
    27   13   15 1   
    28   13   33 1   
    29   14   34 1   
    30   15   16 1   
    31   15   20 1   
    32   15   35 1   
    33   16   17 1   
    34   16   36 1   
    35   16   37 1   
    36   17   18 1   
    37   17   38 1   
    38   17   39 1   
    39   18   19 1   
    40   18   40 1   
    41   18   41 1   
    42   19   20 2   
    43   19   42 1   
    44   20   43 1   
    45   21   44 1   
@<TRIPOS>SUBSTRUCTURE
     1 HYE         1 TEMP              0 ****  ****    0 ROOT
