@<TRIPOS>MOLECULE
HYF
   91    90     1     0     0
SMALL
bcc


@<TRIPOS>ATOM
      1 C1         -0.4710   -0.2150   -1.2730 cx        1 HYF     -0.129000
      2 C2          5.1540   -3.6670    1.3440 c3        1 HYF     -0.182000
      3 C3          7.3220   -3.1610    0.1830 c3        1 HYF     -0.182000
      4 C4          2.2660    7.0540   -4.8260 c3        1 HYF     -0.280000
      5 C5          5.0940    4.8940   -4.0100 c3        1 HYF     -0.313000
      6 C6          6.1640    5.5230   -3.2760 c1        1 HYF     -0.072000
      7 C7          4.2480    4.0040   -3.1240 c2        1 HYF      0.263000
      8 O8          3.1390    4.3850   -2.7540 o         1 HYF     -0.252000
      9 C10         5.8400   -3.1710    0.1260 c2        1 HYF     -0.107000
     10 C11         5.7470   -2.2600   -2.2040 c3        1 HYF     -0.135000
     11 C12         2.6160    1.3830   -2.7310 c3        1 HYF     -0.199000
     12 C13         8.2380    2.8430   -7.7570 c2        1 HYF     -0.222000
     13 C14         9.9980    1.6770   -6.4680 c3        1 HYF     -0.185000
     14 C15         8.6510    2.2800   -6.6180 c2        1 HYF     -0.106000
     15 C16         7.7860    2.2300   -5.4030 c3        1 HYF     -0.131000
     16 C17         7.0280    0.9200   -5.3210 c3        1 HYF     -0.146000
     17 C18         5.1320    1.8470   -4.0090 c2        1 HYF      0.259000
     18 O19         4.4860    2.0850   -5.0370 o         1 HYF     -0.293000
     19 O21         6.0670    3.8190   -0.9660 oh        1 HYF     -0.288000
     20 C22         8.1450    0.4370    2.4050 c3        1 HYF     -0.185500
     21 C23         7.8460    2.8640    1.8300 c3        1 HYF     -0.185500
     22 C24         8.1110    1.4840    1.3530 c2        1 HYF     -0.102000
     23 C25         8.3100    1.1770    0.0630 c2        1 HYF     -0.172000
     24 C26         8.3190    2.1530   -1.0570 c3        1 HYF     -0.075000
     25 C27         4.8250    2.6350   -2.7320 c3        1 HYF     -0.087000
     26 C28         6.0740    2.8110   -1.9010 c2        1 HYF      0.110000
     27 C29         7.1340    1.9690   -1.9490 c2        1 HYF     -0.199000
     28 C30         7.1800    0.8180   -2.8620 c2        1 HYF      0.287000
     29 C31         6.2030    0.7710   -4.0250 c3        1 HYF     -0.132000
     30 C32         5.5220   -0.6100   -4.0930 c3        1 HYF     -0.140000
     31 C33         4.9390   -1.1150   -2.7880 c3        1 HYF     -0.168000
     32 C34         3.7730    1.8780   -1.9430 c2        1 HYF     -0.109000
     33 C35         3.8570    1.7000   -0.6210 c2        1 HYF     -0.180000
     34 C36         1.7220   -1.4950   -0.4210 c2        1 HYF     -0.168000
     35 C37         0.4810   -1.1240   -0.6120 cu        1 HYF     -0.175000
     36 C38        -0.9440   -1.3000   -0.3220 cx        1 HYF     -0.174000
     37 C39        -0.7410   -0.3350   -2.7330 c3        1 HYF     -0.187000
     38 H021        4.0430   -3.5780    1.2590 hc        1 HYF      0.080500
     39 H022        5.4100   -4.7430    1.5160 hc        1 HYF      0.080500
     40 H023        5.4870   -3.0830    2.2380 hc        1 HYF      0.080500
     41 H031        7.6940   -3.6900    1.0940 hc        1 HYF      0.080500
     42 H032        7.7560   -3.6630   -0.7170 hc        1 HYF      0.080500
     43 H033        7.7010   -2.1070    0.2080 hc        1 HYF      0.080500
     44 H041        2.5400    6.6100   -5.8080 hc        1 HYF      0.070250
     45 H042        4.4170    5.6900   -4.4590 hc        1 HYF      0.168000
     46 H043        1.2660    7.5340   -4.9070 hc        1 HYF      0.070250
     47 H051        3.0190    7.8200   -4.5410 hc        1 HYF      0.070250
     48 H061        2.2300    6.2560   -4.0510 hc        1 HYF      0.070250
     49 H062        5.4820    4.2920   -4.8850 hc        1 HYF      0.168000
     50 H063        6.8050    6.2260   -3.8230 ha        1 HYF      0.074000
     51 H091        4.0410   -2.7750   -0.9300 ha        1 HYF      0.119000
     52 H111        6.8050   -1.9180   -2.0380 hc        1 HYF      0.096500
     53 H112        5.7850   -3.1080   -2.9430 hc        1 HYF      0.096500
     54 H121        2.9470    0.5980   -3.4590 hc        1 HYF      0.093667
     55 H122        2.1530    2.2240   -3.3060 hc        1 HYF      0.093667
     56 H123        1.8350    0.9370   -2.0630 hc        1 HYF      0.093667
     57 H131        7.0510    3.0800   -5.4240 hc        1 HYF      0.080500
     58 H132        7.2420    3.2900   -7.8660 ha        1 HYF      0.113500
     59 H133        8.8710    2.8870   -8.6530 ha        1 HYF      0.113500
     60 H141       10.6010    2.2620   -5.7290 hc        1 HYF      0.085000
     61 H142       10.5490    1.6610   -7.4400 hc        1 HYF      0.085000
     62 H143        9.9110    0.6270   -6.0910 hc        1 HYF      0.085000
     63 H161        8.4230    2.3560   -4.4850 hc        1 HYF      0.080500
     64 H171        7.7590    0.0680   -5.3660 hc        1 HYF      0.110500
     65 H172        6.3300    0.8330   -6.1950 hc        1 HYF      0.110500
     66 H211        5.9920    4.6730   -1.4510 ho        1 HYF      0.269000
     67 H221        8.3350   -0.5760    1.9740 hc        1 HYF      0.081833
     68 H222        7.1680    0.4100    2.9500 hc        1 HYF      0.081833
     69 H223        8.9510    0.6660    3.1460 hc        1 HYF      0.081833
     70 H231        7.5070    2.8640    2.8940 hc        1 HYF      0.081833
     71 H232        7.0530    3.3500    1.2050 hc        1 HYF      0.081833
     72 H233        8.7750    3.4830    1.7590 hc        1 HYF      0.081833
     73 H251        9.2530    1.9900   -1.6640 hc        1 HYF      0.100000
     74 H261        8.3380    3.2100   -0.6720 hc        1 HYF      0.100000
     75 H262        8.4830    0.1320   -0.2510 ha        1 HYF      0.133000
     76 H321        4.8810   -0.2840   -2.0350 hc        1 HYF      0.089500
     77 H322        6.2890   -1.3440   -4.4630 hc        1 HYF      0.101500
     78 H331        4.7140   -0.5470   -4.8700 hc        1 HYF      0.101500
     79 H351        3.8860   -1.4640   -2.9670 hc        1 HYF      0.089500
     80 H352        2.5660   -0.9980   -0.9260 ha        1 HYF      0.121500
     81 H361        3.0770    1.1600   -0.0660 ha        1 HYF      0.133000
     82 H362        4.6900    2.0760   -0.0110 ha        1 HYF      0.133000
     83 H371        1.9950   -2.3210    0.2510 ha        1 HYF      0.121500
     84 H381       -0.5110    0.8360   -0.9160 hc        1 HYF      0.124000
     85 H382       -1.4720   -2.1800   -0.7340 hc        1 HYF      0.115500
     86 H383       -1.3360   -1.0090    0.6700 hc        1 HYF      0.115500
     87 H391       -0.7340   -1.4030   -3.0620 hc        1 HYF      0.079000
     88 H392       -1.7410    0.1020   -2.9740 hc        1 HYF      0.079000
     89 H393        0.0380    0.2200   -3.3140 hc        1 HYF      0.079000
     90 C9          5.1450   -2.7550   -0.9450 c2        1 HYF     -0.178000
     91 O20         8.0350   -0.0710   -2.7480 o         1 HYF     -0.287000
@<TRIPOS>BOND
     1    1   35 1   
     2    1   36 1   
     3    1   37 1   
     4    1   84 1   
     5    2    9 1   
     6    2   38 1   
     7    2   39 1   
     8    2   40 1   
     9    3    9 1   
    10    3   41 1   
    11    3   42 1   
    12    3   43 1   
    13    4   44 1   
    14    4   46 1   
    15    4   47 1   
    16    4   48 1   
    17    5    6 1   
    18    5    7 1   
    19    5   45 1   
    20    5   49 1   
    21    6   50 1   
    22    7    8 1   
    23    7   25 1   
    24    9   90 1   
    25   10   31 1   
    26   10   52 1   
    27   10   53 1   
    28   10   90 1   
    29   11   32 1   
    30   11   54 1   
    31   11   55 1   
    32   11   56 1   
    33   12   14 1   
    34   12   58 1   
    35   12   59 1   
    36   13   14 1   
    37   13   60 1   
    38   13   61 1   
    39   13   62 1   
    40   14   15 1   
    41   15   16 1   
    42   15   57 1   
    43   15   63 1   
    44   16   29 1   
    45   16   64 1   
    46   16   65 1   
    47   17   18 1   
    48   17   25 1   
    49   17   29 1   
    50   19   26 1   
    51   19   66 1   
    52   20   22 1   
    53   20   67 1   
    54   20   68 1   
    55   20   69 1   
    56   21   22 1   
    57   21   70 1   
    58   21   71 1   
    59   21   72 1   
    60   22   23 1   
    61   23   24 1   
    62   23   75 1   
    63   24   27 1   
    64   24   73 1   
    65   24   74 1   
    66   25   26 1   
    67   25   32 1   
    68   26   27 1   
    69   27   28 1   
    70   28   29 1   
    71   28   91 1   
    72   29   30 1   
    73   30   31 1   
    74   30   77 1   
    75   30   78 1   
    76   31   76 1   
    77   31   79 1   
    78   32   33 1   
    79   33   81 1   
    80   33   82 1   
    81   34   35 1   
    82   34   80 1   
    83   34   83 1   
    84   35   36 1   
    85   36   85 1   
    86   36   86 1   
    87   37   87 1   
    88   37   88 1   
    89   37   89 1   
    90   51   90 1   
@<TRIPOS>SUBSTRUCTURE
     1 HYF         1 TEMP              0 ****  ****    0 ROOT
