@<TRIPOS>MOLECULE
HYF
   91    89     1     0     0
SMALL
bcc


@<TRIPOS>ATOM
      1 C1         -0.6240   -0.1690   -0.2100 c2        1 HYF     -0.132500
      2 C2          4.1960   -4.4010    0.3360 c3        1 HYF     -0.059400
      3 C3          6.4180   -4.6700   -0.8110 c3        1 HYF     -0.059400
      4 C4          1.5420    6.7640   -5.5830 c3        1 HYF     -0.119800
      5 C5          5.2720    4.6470   -4.2700 ce        1 HYF     -0.261200
      6 C6          5.0520    5.8050   -4.8950 c2        1 HYF     -0.125000
      7 C7          4.1770    3.7430   -3.8800 c         1 HYF      0.601300
      8 O8          2.9860    4.0430   -3.9820 o         1 HYF     -0.505100
      9 C10         5.1380   -3.9300   -0.7070 c2        1 HYF     -0.125400
     10 C11         5.7530   -2.3870   -2.5590 c3        1 HYF     -0.051200
     11 C12         2.5500    1.0530   -3.9560 c3        1 HYF     -0.069900
     12 C13         9.6610    4.2450   -4.9800 c3        1 HYF     -0.067400
     13 C14        10.3480    1.8840   -4.4740 c3        1 HYF     -0.067400
     14 C15         9.2790    2.8120   -4.9170 c2        1 HYF     -0.092400
     15 C16         8.0430    2.4070   -5.2470 c2        1 HYF     -0.207200
     16 C17         7.5820    1.0000   -5.2650 c3        1 HYF     -0.031200
     17 C18         5.3070    1.6090   -4.4760 c         1 HYF      0.601100
     18 O19         4.8620    1.7230   -5.6230 o         1 HYF     -0.512100
     19 O21         5.1480    3.6270   -1.3840 oh        1 HYF     -0.488100
     20 C22         8.5950    0.9650    2.3770 c3        1 HYF     -0.089600
     21 C23         9.2280    3.1540    1.3810 c3        1 HYF     -0.089600
     22 C24         9.0570    1.6730    1.1160 c3        1 HYF     -0.043500
     23 C25         8.1330    1.3610   -0.0090 c2        1 HYF     -0.106200
     24 C26         7.6020    2.2560   -0.8490 ce        1 HYF     -0.166000
     25 C27         4.6270    2.3700   -3.3320 c3        1 HYF     -0.155600
     26 C28         5.5830    2.6080   -2.1920 c2        1 HYF      0.164900
     27 C29         6.7270    1.9110   -1.9640 ce        1 HYF     -0.254200
     28 C30         7.1300    0.8050   -2.8450 c         1 HYF      0.615300
     29 C31         6.4880    0.6940   -4.2170 c3        1 HYF     -0.227000
     30 C32         6.0400   -0.7620   -4.4590 c3        1 HYF     -0.065400
     31 C33         5.0960   -1.3210   -3.4140 c3        1 HYF     -0.088400
     32 C34         3.4250    1.5720   -2.8740 c2        1 HYF     -0.102400
     33 C35         3.1500    1.3540   -1.5850 c2        1 HYF     -0.198000
     34 C36         1.4840   -1.6980   -0.2780 c2        1 HYF     -0.242100
     35 C37         0.4360   -0.9350   -0.2440 c1        1 HYF     -0.044800
     36 C38        -0.8410    0.9260   -1.1900 c3        1 HYF     -0.053400
     37 C39        -1.6900   -0.3380    0.8110 c3        1 HYF     -0.053400
     38 H021        3.2530   -3.7990    0.3430 hc        1 HYF      0.040867
     39 H022        4.6710   -4.3250    1.3460 hc        1 HYF      0.040867
     40 H023        3.9300   -5.4730    0.1580 hc        1 HYF      0.040867
     41 H031        6.5420   -5.3890    0.0350 hc        1 HYF      0.040867
     42 H032        7.2830   -3.9600   -0.8030 hc        1 HYF      0.040867
     43 H033        6.4540   -5.2450   -1.7710 hc        1 HYF      0.040867
     44 H041        1.7380    5.8240   -5.0190 hc        1 HYF      0.030200
     45 H042        0.4450    6.9070   -5.6960 hc        1 HYF      0.030200
     46 H043        1.9720    7.6270   -5.0290 hc        1 HYF      0.030200
     47 H051        2.0110    6.6990   -6.5890 hc        1 HYF      0.030200
     48 H061        4.0360    6.1470   -5.1550 ha        1 HYF      0.129500
     49 H062        6.2880    4.3090   -4.0070 ha        1 HYF      0.139000
     50 H063        5.8710    6.4760   -5.1860 ha        1 HYF      0.129500
     51 H091        3.8760   -2.3710   -1.4070 ha        1 HYF      0.122000
     52 H111        6.6790   -1.9600   -2.0790 hc        1 HYF      0.057200
     53 H112        6.0920   -3.2380   -3.2120 hc        1 HYF      0.057200
     54 H121        3.0500    0.1970   -4.4780 hc        1 HYF      0.055367
     55 H122        1.5730    0.6980   -3.5440 hc        1 HYF      0.055367
     56 H123        2.3500    1.8550   -4.7120 hc        1 HYF      0.055367
     57 H131        9.9970    4.5960   -3.9720 hc        1 HYF      0.045533
     58 H132        8.8090    4.8870   -5.3120 hc        1 HYF      0.045533
     59 H133       10.5080    4.3810   -5.6970 hc        1 HYF      0.045533
     60 H141       11.2310    2.4450   -4.0790 hc        1 HYF      0.045533
     61 H142        9.9720    1.2040   -3.6660 hc        1 HYF      0.045533
     62 H143       10.6910    1.2510   -5.3310 hc        1 HYF      0.045533
     63 H161        7.2830    3.1390   -5.5720 ha        1 HYF      0.125000
     64 H171        8.4350    0.2910   -5.0870 hc        1 HYF      0.070700
     65 H172        7.1530    0.7790   -6.2820 hc        1 HYF      0.070700
     66 H211        5.7400    3.7060   -0.6180 ho        1 HYF      0.438000
     67 H221        8.5020   -0.1330    2.1970 hc        1 HYF      0.036367
     68 H222        7.6030    1.3570    2.7050 hc        1 HYF      0.036367
     69 H223        9.3320    1.1300    3.2000 hc        1 HYF      0.036367
     70 H231        8.2460    3.6300    1.6170 hc        1 HYF      0.036367
     71 H232       10.0680    1.2520    0.8270 hc        1 HYF      0.063700
     72 H233        9.9120    3.3090    2.2500 hc        1 HYF      0.036367
     73 H251        9.6690    3.6650    0.4910 hc        1 HYF      0.036367
     74 H261        7.8250    3.3340   -0.7530 ha        1 HYF      0.119000
     75 H262        7.9210    0.2830   -0.1360 ha        1 HYF      0.143000
     76 H321        4.7140   -0.4980   -2.7520 hc        1 HYF      0.048700
     77 H322        6.9680   -1.3930   -4.5070 hc        1 HYF      0.063700
     78 H331        5.5500   -0.7980   -5.4680 hc        1 HYF      0.063700
     79 H351        4.2020   -1.7670   -3.9270 hc        1 HYF      0.048700
     80 H352        1.5130   -2.6340   -0.8560 ha        1 HYF      0.129500
     81 H361        3.7650    1.7390   -0.7610 ha        1 HYF      0.125500
     82 H362        2.2680    0.7720   -1.2730 ha        1 HYF      0.125500
     83 H371        2.4090   -1.4550    0.2690 ha        1 HYF      0.129500
     84 H381       -0.9640    1.8990   -0.6520 hc        1 HYF      0.044700
     85 H382       -1.7710    0.7300   -1.7790 hc        1 HYF      0.044700
     86 H383        0.0170    1.0200   -1.9010 hc        1 HYF      0.044700
     87 H391       -2.6690   -0.5370    0.3080 hc        1 HYF      0.044700
     88 H392       -1.7880    0.5980    1.4150 hc        1 HYF      0.044700
     89 H393       -1.4670   -1.1860    1.5030 hc        1 HYF      0.044700
     90 C9          4.8410   -2.8960   -1.5100 c2        1 HYF     -0.179200
     91 O20         8.0040   -0.0100   -2.5190 o         1 HYF     -0.539100
@<TRIPOS>BOND
     1    1   35 2   
     2    1   36 1   
     3    1   37 1   
     4    2    9 1   
     5    2   38 1   
     6    2   39 1   
     7    2   40 1   
     8    3    9 1   
     9    3   41 1   
    10    3   42 1   
    11    3   43 1   
    12    4   44 1   
    13    4   45 1   
    14    4   46 1   
    15    4   47 1   
    16    5    6 2   
    17    5    7 1   
    18    5   49 1   
    19    6   48 1   
    20    6   50 1   
    21    7    8 2   
    22    7   25 1   
    23    9   90 2   
    24   10   31 1   
    25   10   52 1   
    26   10   53 1   
    27   10   90 1   
    28   11   32 1   
    29   11   54 1   
    30   11   55 1   
    31   11   56 1   
    32   12   14 1   
    33   12   57 1   
    34   12   58 1   
    35   12   59 1   
    36   13   14 1   
    37   13   60 1   
    38   13   61 1   
    39   13   62 1   
    40   14   15 2   
    41   15   16 1   
    42   15   63 1   
    43   16   29 1   
    44   16   64 1   
    45   16   65 1   
    46   17   18 2   
    47   17   25 1   
    48   17   29 1   
    49   19   26 1   
    50   19   66 1   
    51   20   22 1   
    52   20   67 1   
    53   20   68 1   
    54   20   69 1   
    55   21   22 1   
    56   21   70 1   
    57   21   72 1   
    58   21   73 1   
    59   22   23 1   
    60   22   71 1   
    61   23   24 2   
    62   23   75 1   
    63   24   27 1   
    64   24   74 1   
    65   25   26 1   
    66   25   32 1   
    67   26   27 2   
    68   27   28 1   
    69   28   29 1   
    70   28   91 2   
    71   29   30 1   
    72   30   31 1   
    73   30   77 1   
    74   30   78 1   
    75   31   76 1   
    76   31   79 1   
    77   32   33 2   
    78   33   81 1   
    79   33   82 1   
    80   34   35 2   
    81   34   80 1   
    82   34   83 1   
    83   36   84 1   
    84   36   85 1   
    85   36   86 1   
    86   37   87 1   
    87   37   88 1   
    88   37   89 1   
    89   51   90 1   
@<TRIPOS>SUBSTRUCTURE
     1 HYF         1 TEMP              0 ****  ****    0 ROOT
