@<TRIPOS>MOLECULE
HYF
   91    92     1     0     0
SMALL
bcc


@<TRIPOS>ATOM
      1 C1          0.2840   -0.7940   -5.9990 c2        1 HYF     -0.124400
      2 C2         -4.3860   -3.5670   -0.8660 c3        1 HYF     -0.064900
      3 C3         -4.1020   -1.1740   -0.1690 c3        1 HYF     -0.064900
      4 C4          4.5270    1.7340    1.5600 c3        1 HYF     -0.091600
      5 C5          3.1540    2.0450    0.9940 c3        1 HYF     -0.149700
      6 C6          3.1160    3.4700    0.4760 c3        1 HYF     -0.091600
      7 C7          2.8330    1.0800   -0.1340 c         1 HYF      0.608100
      8 O8          3.5570    1.0070   -1.1260 o         1 HYF     -0.511100
      9 C10        -3.4920   -2.3850   -0.7690 c2        1 HYF     -0.106400
     10 C11        -1.2610   -1.3060   -1.1860 c3        1 HYF     -0.055200
     11 C12         2.5650   -1.6960   -1.2200 c3        1 HYF     -0.111100
     12 C13         0.6130   -0.0570    6.4380 c3        1 HYF     -0.066400
     13 C14        -1.1600   -1.5970    5.5520 c3        1 HYF     -0.066400
     14 C15         0.1490   -0.9340    5.3340 c2        1 HYF     -0.095400
     15 C16         0.8830   -1.0950    4.2210 c2        1 HYF     -0.199200
     16 C17         0.5340   -1.9860    3.0900 c3        1 HYF     -0.023200
     17 C18         1.6890   -0.5750    1.3450 c         1 HYF      0.600100
     18 O19         2.7570   -0.7270    1.9360 o         1 HYF     -0.505100
     19 O21         0.5020    2.2550   -0.6350 oh        1 HYF     -0.491100
     20 C22        -3.7990    3.5950   -1.4840 c3        1 HYF     -0.063900
     21 C23        -2.3140    4.7500    0.1770 c3        1 HYF     -0.063900
     22 C24        -2.8580    3.4710   -0.3430 c2        1 HYF     -0.120400
     23 C25        -2.5440    2.2720    0.1720 c2        1 HYF     -0.197200
     24 C26        -1.6490    2.0490    1.3340 c3        1 HYF     -0.005000
     25 C27         1.5630    0.2240    0.0460 c3        1 HYF     -0.201800
     26 C28         0.3960    1.1730    0.1960 c2        1 HYF      0.176900
     27 C29        -0.6170    1.0010    1.0850 ce        1 HYF     -0.310400
     28 C30        -0.7570   -0.2650    1.8220 c         1 HYF      0.614300
     29 C31         0.4000   -1.2520    1.7480 c3        1 HYF     -0.231000
     30 C32         0.1260   -2.2950    0.6530 c3        1 HYF     -0.067400
     31 C33         0.1340   -1.7780   -0.7810 c3        1 HYF     -0.062700
     32 C34         1.3130   -0.8210   -1.0930 c3        1 HYF     -0.004000
     33 C35         1.0970   -0.0710   -2.4100 c3        1 HYF     -0.082400
     34 C36         1.0190   -0.9730   -3.6270 c3        1 HYF     -0.045200
     35 C37         0.6480   -0.2130   -4.8440 c2        1 HYF     -0.175200
     36 C38        -0.0670    0.0050   -7.1980 c3        1 HYF     -0.057900
     37 C39         0.2040   -2.2660   -6.1560 c3        1 HYF     -0.057900
     38 H021       -4.7290   -3.8700    0.1550 hc        1 HYF      0.044200
     39 H022       -5.2880   -3.3140   -1.4770 hc        1 HYF      0.044200
     40 H023       -3.8720   -4.4390   -1.3390 hc        1 HYF      0.044200
     41 H031       -3.4970   -0.8200    0.7060 hc        1 HYF      0.044200
     42 H032       -4.1500   -0.3500   -0.9240 hc        1 HYF      0.044200
     43 H033       -5.1410   -1.3800    0.1880 hc        1 HYF      0.044200
     44 H041        4.7810    2.4710    2.3580 hc        1 HYF      0.047367
     45 H042        4.5450    0.7070    2.0000 hc        1 HYF      0.047367
     46 H043        5.2980    1.7940    0.7540 hc        1 HYF      0.047367
     47 H051        2.3870    1.9270    1.8080 hc        1 HYF      0.058700
     48 H061        3.8550    3.5980   -0.3520 hc        1 HYF      0.047367
     49 H062        2.1000    3.7210    0.0880 hc        1 HYF      0.047367
     50 H063        3.3720    4.1780    1.3000 hc        1 HYF      0.047367
     51 H091       -1.8310   -3.3730   -1.6370 ha        1 HYF      0.117000
     52 H111       -1.6140   -0.4910   -0.5010 hc        1 HYF      0.059200
     53 H112       -1.2400   -0.8780   -2.2260 hc        1 HYF      0.059200
     54 H121        2.3670   -2.5590   -1.9010 hc        1 HYF      0.051367
     55 H122        3.4160   -1.1120   -1.6470 hc        1 HYF      0.051367
     56 H123        2.8680   -2.0990   -0.2230 hc        1 HYF      0.051367
     57 H131       -0.1220    0.7700    6.6030 hc        1 HYF      0.044700
     58 H132        0.6930   -0.6470    7.3860 hc        1 HYF      0.044700
     59 H133        1.6110    0.3950    6.2190 hc        1 HYF      0.044700
     60 H141       -1.0280   -2.7060    5.6220 hc        1 HYF      0.044700
     61 H142       -1.6400   -1.2420    6.4960 hc        1 HYF      0.044700
     62 H143       -1.8520   -1.3790    4.6980 hc        1 HYF      0.044700
     63 H161        1.8490   -0.5720    4.1110 ha        1 HYF      0.133000
     64 H171       -0.4330   -2.5230    3.2810 hc        1 HYF      0.064200
     65 H172        1.3490   -2.7550    2.9880 hc        1 HYF      0.064200
     66 H211       -0.3100    2.7880   -0.5720 ho        1 HYF      0.444000
     67 H221       -3.2970    4.1070   -2.3430 hc        1 HYF      0.044367
     68 H222       -4.1630    2.5970   -1.8310 hc        1 HYF      0.044367
     69 H223       -4.6850    4.2080   -1.1820 hc        1 HYF      0.044367
     70 H231       -2.6000    4.8890    1.2500 hc        1 HYF      0.044367
     71 H232       -1.1960    4.7610    0.1110 hc        1 HYF      0.044367
     72 H233       -2.7050    5.6210   -0.4050 hc        1 HYF      0.044367
     73 H251       -2.9840    1.3500   -0.2490 ha        1 HYF      0.135000
     74 H261       -2.2890    1.7320    2.2080 hc        1 HYF      0.070200
     75 H262       -1.1320    3.0020    1.6350 hc        1 HYF      0.070200
     76 H321        0.9130   -3.0920    0.7470 hc        1 HYF      0.065700
     77 H322       -0.8690   -2.7720    0.8680 hc        1 HYF      0.065700
     78 H331        0.3270   -2.6920   -1.4270 hc        1 HYF      0.057700
     79 H351        0.1680    0.5550   -2.3330 hc        1 HYF      0.061700
     80 H352        1.9490    0.6470   -2.5620 hc        1 HYF      0.061700
     81 H361        2.0200   -1.4610   -3.7950 hc        1 HYF      0.049700
     82 H362        0.2800   -1.8020   -3.4570 hc        1 HYF      0.049700
     83 H371        0.6990    0.8850   -4.7620 ha        1 HYF      0.124000
     84 H381       -1.0980   -0.2560   -7.5440 hc        1 HYF      0.040200
     85 H382       -0.0310    1.1020   -6.9890 hc        1 HYF      0.040200
     86 H383        0.6470   -0.2190   -8.0300 hc        1 HYF      0.040200
     87 H391        1.1330   -2.7540   -5.7670 hc        1 HYF      0.040200
     88 H392       -0.6650   -2.6680   -5.5770 hc        1 HYF      0.040200
     89 H393        0.0770   -2.5530   -7.2280 hc        1 HYF      0.040200
     90 C9         -2.2230   -2.4370   -1.2010 c2        1 HYF     -0.191200
     91 O20        -1.7920   -0.5510    2.4380 o         1 HYF     -0.534100
@<TRIPOS>BOND
     1    1   35 2   
     2    1   36 1   
     3    1   37 1   
     4    2    9 1   
     5    2   38 1   
     6    2   39 1   
     7    2   40 1   
     8    3    9 1   
     9    3   41 1   
    10    3   42 1   
    11    3   43 1   
    12    4    5 1   
    13    4   44 1   
    14    4   45 1   
    15    4   46 1   
    16    5    6 1   
    17    5    7 1   
    18    5   47 1   
    19    6   48 1   
    20    6   49 1   
    21    6   50 1   
    22    7    8 2   
    23    7   25 1   
    24    9   90 2   
    25   10   31 1   
    26   10   52 1   
    27   10   53 1   
    28   10   90 1   
    29   11   32 1   
    30   11   54 1   
    31   11   55 1   
    32   11   56 1   
    33   12   14 1   
    34   12   57 1   
    35   12   58 1   
    36   12   59 1   
    37   13   14 1   
    38   13   60 1   
    39   13   61 1   
    40   13   62 1   
    41   14   15 2   
    42   15   16 1   
    43   15   63 1   
    44   16   29 1   
    45   16   64 1   
    46   16   65 1   
    47   17   18 2   
    48   17   25 1   
    49   17   29 1   
    50   19   26 1   
    51   19   66 1   
    52   20   22 1   
    53   20   67 1   
    54   20   68 1   
    55   20   69 1   
    56   21   22 1   
    57   21   70 1   
    58   21   71 1   
    59   21   72 1   
    60   22   23 2   
    61   23   24 1   
    62   23   73 1   
    63   24   27 1   
    64   24   74 1   
    65   24   75 1   
    66   25   26 1   
    67   25   32 1   
    68   26   27 2   
    69   27   28 1   
    70   28   29 1   
    71   28   91 2   
    72   29   30 1   
    73   30   31 1   
    74   30   76 1   
    75   30   77 1   
    76   31   32 1   
    77   31   78 1   
    78   32   33 1   
    79   33   34 1   
    80   33   79 1   
    81   33   80 1   
    82   34   35 1   
    83   34   81 1   
    84   34   82 1   
    85   35   83 1   
    86   36   84 1   
    87   36   85 1   
    88   36   86 1   
    89   37   87 1   
    90   37   88 1   
    91   37   89 1   
    92   51   90 1   
@<TRIPOS>SUBSTRUCTURE
     1 HYF         1 TEMP              0 ****  ****    0 ROOT
