@<TRIPOS>MOLECULE
HYH
   23    22     1     0     0
SMALL
bcc


@<TRIPOS>ATOM
      1 O1          2.6040   -0.5860   -1.0220 o         1 HYH     -0.387100
      2 C5          1.7750   -0.0950   -0.2770 c         1 HYH      0.524100
      3 N           0.3710   -0.0050   -0.8360 nz        1 HYH     -0.754400
      4 C4          1.9690    0.3900    1.1600 c3        1 HYH      0.102100
      5 O           0.8610    1.1980    1.5040 oh        1 HYH     -0.626800
      6 C3          3.3160    1.0940    1.2860 c3        1 HYH     -0.123400
      7 C2          3.7090    1.2350    2.7430 c3        1 HYH     -0.085400
      8 C1          5.0170    1.9900    2.8730 c3        1 HYH     -0.079400
      9 C           5.4210    2.1290    4.3180 c3        1 HYH     -0.098100
     10 H1          0.3610   -0.1980   -1.8430 hn        1 HYH      0.474467
     11 H2          0.0010    0.9360   -0.6510 hn        1 HYH      0.474467
     12 H3          1.9370   -0.5400    1.8080 h1        1 HYH      0.121700
     13 H4          1.1800    1.9700    1.9970 ho        1 HYH      0.469000
     14 H5          3.2580    2.1060    0.8040 hc        1 HYH      0.084200
     15 H6          4.0980    0.4990    0.7410 hc        1 HYH      0.084200
     16 H7          3.8160    0.2180    3.2070 hc        1 HYH      0.053200
     17 H8          2.9060    1.7770    3.3080 hc        1 HYH      0.053200
     18 H9          4.9120    3.0070    2.4100 hc        1 HYH      0.049700
     19 H10         5.8200    1.4470    2.3070 hc        1 HYH      0.049700
     20 H11         5.5580    1.1260    4.7900 hc        1 HYH      0.047033
     21 H12         6.3860    2.6870    4.3930 hc        1 HYH      0.047033
     22 H13         4.6460    2.6880    4.8960 hc        1 HYH      0.047033
     23 HN3        -0.2290   -0.6810   -0.3530 hn        1 HYH      0.474467
@<TRIPOS>BOND
     1    1    2 2   
     2    2    3 1   
     3    2    4 1   
     4    3   10 1   
     5    3   11 1   
     6    3   23 1   
     7    4    5 1   
     8    4    6 1   
     9    4   12 1   
    10    5   13 1   
    11    6    7 1   
    12    6   14 1   
    13    6   15 1   
    14    7    8 1   
    15    7   16 1   
    16    7   17 1   
    17    8    9 1   
    18    8   18 1   
    19    8   19 1   
    20    9   20 1   
    21    9   21 1   
    22    9   22 1   
@<TRIPOS>SUBSTRUCTURE
     1 HYH         1 TEMP              0 ****  ****    0 ROOT
