@<TRIPOS>MOLECULE
HYH
   23    22     1     0     0
SMALL
bcc


@<TRIPOS>ATOM
      1 O1          2.5010   -0.7030   -0.9300 o         1 HYH     -0.387100
      2 C5          1.7140   -0.0640   -0.2560 c         1 HYH      0.524100
      3 N           0.3550    0.1610   -0.8820 n4        1 HYH     -0.754400
      4 C4          1.9150    0.4880    1.1560 c3        1 HYH      0.102100
      5 O           0.9040    1.4470    1.4000 oh        1 HYH     -0.626800
      6 C3          3.3330    1.0300    1.2980 c3        1 HYH     -0.123400
      7 C2          3.6880    1.2180    2.7590 c3        1 HYH     -0.085400
      8 C1          5.0740    1.8150    2.9010 c3        1 HYH     -0.079400
      9 C           5.4400    1.9990    4.3510 c3        1 HYH     -0.098100
     10 H1          0.1020    1.1520   -0.7750 hn        1 HYH      0.474467
     11 H2         -0.3440   -0.3990   -0.3840 hn        1 HYH      0.474467
     12 H3          1.7430   -0.3850    1.8580 h1        1 HYH      0.121700
     13 H4          1.2980    2.2040    1.8610 ho        1 HYH      0.469000
     14 H5          4.0540    0.3100    0.8260 hc        1 HYH      0.084200
     15 H6          3.4190    2.0080    0.7530 hc        1 HYH      0.084200
     16 H7          3.6510    0.2290    3.2890 hc        1 HYH      0.053200
     17 H8          2.9380    1.8900    3.2550 hc        1 HYH      0.053200
     18 H9          5.1130    2.8040    2.3730 hc        1 HYH      0.049700
     19 H10         5.8230    1.1430    2.4040 hc        1 HYH      0.049700
     20 H11         4.7190    2.6850    4.8590 hc        1 HYH      0.047033
     21 H12         5.4340    1.0200    4.8890 hc        1 HYH      0.047033
     22 H13         6.4630    2.4390    4.4340 hc        1 HYH      0.047033
     23 HN3         0.3580   -0.0980   -1.8750 hn        1 HYH      0.474467
@<TRIPOS>BOND
     1    1    2 2   
     2    2    3 1   
     3    2    4 1   
     4    3   10 1   
     5    3   11 1   
     6    3   23 1   
     7    4    5 1   
     8    4    6 1   
     9    4   12 1   
    10    5   13 1   
    11    6    7 1   
    12    6   14 1   
    13    6   15 1   
    14    7    8 1   
    15    7   16 1   
    16    7   17 1   
    17    8    9 1   
    18    8   18 1   
    19    8   19 1   
    20    9   20 1   
    21    9   21 1   
    22    9   22 1   
@<TRIPOS>SUBSTRUCTURE
     1 HYH         1 TEMP              0 ****  ****    0 ROOT
