@<TRIPOS>MOLECULE
HYH
   22    21     1     0     0
SMALL
bcc


@<TRIPOS>ATOM
      1 O1          0.0250    0.2520    0.0470 o         1 HYH     -0.617100
      2 C5          1.2430   -0.0150   -0.0130 c         1 HYH      0.624100
      3 N           1.8590   -0.2410   -1.2130 n         1 HYH     -0.667000
      4 C4          2.0800   -0.0740    1.2720 c3        1 HYH      0.081100
      5 O           1.2460   -0.4150    2.3600 oh        1 HYH     -0.584800
      6 C3          2.7650    1.2730    1.4840 c3        1 HYH     -0.108400
      7 C2          3.7020    1.2220    2.6710 c3        1 HYH     -0.079400
      8 C1          4.3060    2.5810    2.9540 c3        1 HYH     -0.079400
      9 C           5.2540    2.5290    4.1240 c3        1 HYH     -0.093100
     10 H1          1.3300   -0.2200   -2.0500 hn        1 HYH      0.314000
     11 H2          2.8150   -0.4800   -1.2580 hn        1 HYH      0.314000
     12 H3          2.8380   -0.9050    1.2320 h1        1 HYH      0.084700
     13 H4          0.4480    0.1320    2.3050 ho        1 HYH      0.426000
     14 H5          1.9840    2.0600    1.6520 hc        1 HYH      0.052700
     15 H6          3.3340    1.5480    0.5580 hc        1 HYH      0.052700
     16 H7          4.5210    0.4800    2.4730 hc        1 HYH      0.049700
     17 H8          3.1360    0.8590    3.5700 hc        1 HYH      0.049700
     18 H9          4.8500    2.9460    2.0430 hc        1 HYH      0.038700
     19 H10         3.4860    3.3170    3.1650 hc        1 HYH      0.038700
     20 H11         5.6830    3.5410    4.3190 hc        1 HYH      0.034033
     21 H12         6.0940    1.8220    3.9210 hc        1 HYH      0.034033
     22 H13         4.7230    2.1870    5.0450 hc        1 HYH      0.034033
@<TRIPOS>BOND
     1    1    2 2   
     2    2    3 1   
     3    2    4 1   
     4    3   10 1   
     5    3   11 1   
     6    4    5 1   
     7    4    6 1   
     8    4   12 1   
     9    5   13 1   
    10    6    7 1   
    11    6   14 1   
    12    6   15 1   
    13    7    8 1   
    14    7   16 1   
    15    7   17 1   
    16    8    9 1   
    17    8   18 1   
    18    8   19 1   
    19    9   20 1   
    20    9   21 1   
    21    9   22 1   
@<TRIPOS>SUBSTRUCTURE
     1 HYH         1 TEMP              0 ****  ****    0 ROOT
