@<TRIPOS>MOLECULE
HYI
   32    30     1     0     0
SMALL
bcc


@<TRIPOS>ATOM
      1 O          -1.0580   -3.9410   -4.2210 o         1 HYI     -0.586000
      2 C          -0.3520   -4.2700   -3.2320 c1        1 HYI      0.295000
      3 OXT         0.7700   -4.8100   -3.4120 os        1 HYI     -0.597000
      4 CA         -0.8520   -4.0150   -1.8290 c3        1 HYI     -0.102000
      5 N          -0.9020   -5.2430   -1.1130 n3        1 HYI     -0.322000
      6 CB          0.0850   -3.0600   -1.1260 c3        1 HYI     -0.147000
      7 CG         -0.6420   -1.7660   -0.8300 c3        1 HYI     -0.258000
      8 SD          0.3670   -0.7460    0.2110 ss        1 HYI      0.024000
      9 C5         -0.2510    0.9160    0.1870 c3        1 HYI     -0.321000
     10 C4          0.3440    1.6920    1.3410 c3        1 HYI      0.043000
     11 O4         -0.1200    1.1550    2.5570 oh        1 HYI     -0.340000
     12 C3         -0.0690    3.1420    1.2400 c3        1 HYI     -0.027000
     13 O3         -1.3660    3.2980    1.7640 oh        1 HYI     -0.313000
     14 C2          0.8990    3.9980    2.0250 c2        1 HYI      0.220000
     15 O2          0.9330    3.9210    3.2370 o         1 HYI     -0.406000
     16 N1          1.7640    4.8950    1.3470 n         1 HYI     -0.211000
     17 O1          2.6380    5.6730    2.0590 oh        1 HYI     -0.232000
     18 HA         -1.7470   -3.6240   -1.8680 h1        1 HYI      0.092000
     19 HN1A       -1.4270   -5.8410   -1.5680 hn        1 HYI      0.132500
     20 HN2        -1.2570   -5.0970   -0.2810 hn        1 HYI      0.132500
     21 HB1         0.3900   -3.4610   -0.2880 hc        1 HYI      0.087000
     22 HB2         0.8550   -2.8770   -1.7000 hc        1 HYI      0.087000
     23 HG1        -1.4860   -1.9630   -0.3760 h1        1 HYI      0.115000
     24 HG2        -0.8250   -1.2960   -1.6690 h1        1 HYI      0.115000
     25 H51        -0.0030    1.3440   -0.6560 h1        1 HYI      0.134500
     26 H52        -1.2250    0.9030    0.2720 h1        1 HYI      0.134500
     27 H4          1.3190    1.6270    1.3080 h1        1 HYI      0.103000
     28 HO4         0.5380    0.7100    2.9550 ho        1 HYI      0.245000
     29 H3         -0.0610    3.4180    0.3020 h1        1 HYI      0.191000
     30 HO3        -1.7920    3.9370    1.3160 ho        1 HYI      0.202000
     31 HN1         1.7370    4.9550    0.4360 hn        1 HYI      0.304000
     32 HO1         2.7960    6.4260    1.6120 ho        1 HYI      0.206000
@<TRIPOS>BOND
     1    1    2 1   
     2    2    4 1   
     3    4    5 1   
     4    4    6 1   
     5    4   18 1   
     6    5   19 1   
     7    5   20 1   
     8    6    7 1   
     9    6   21 1   
    10    6   22 1   
    11    7    8 1   
    12    7   23 1   
    13    7   24 1   
    14    8    9 1   
    15    9   10 1   
    16    9   25 1   
    17    9   26 1   
    18   10   11 1   
    19   10   12 1   
    20   10   27 1   
    21   11   28 1   
    22   12   13 1   
    23   12   14 1   
    24   12   29 1   
    25   13   30 1   
    26   14   15 1   
    27   14   16 1   
    28   16   17 1   
    29   16   31 1   
    30   17   32 1   
@<TRIPOS>SUBSTRUCTURE
     1 HYI         1 TEMP              0 ****  ****    0 ROOT
