@<TRIPOS>MOLECULE
HYI
   32    31     1     0     0
SMALL
bcc


@<TRIPOS>ATOM
      1 O           6.3710    0.2110   -1.0610 o         1 HYI     -0.837300
      2 C           5.5710   -0.2490   -0.1990 c         1 HYI      0.890600
      3 OXT         5.7320   -1.3290    0.4320 o         1 HYI     -0.837300
      4 CA          4.2930    0.5950    0.1360 c3        1 HYI      0.017500
      5 N           4.1530    1.8170   -0.6470 n3        1 HYI     -0.894800
      6 CB          3.0760   -0.3280    0.0290 c3        1 HYI     -0.062400
      7 CG          1.8500    0.3090    0.6260 c3        1 HYI      0.027700
      8 SD          0.5200   -0.8740    0.5020 ss        1 HYI     -0.352200
      9 C5         -0.8640    0.0340    1.1170 c3        1 HYI     -0.059300
     10 C4         -2.0690   -0.2030    0.2210 c3        1 HYI      0.129100
     11 O4         -1.9030    0.3580   -1.0710 oh        1 HYI     -0.614800
     12 C3         -3.3150    0.4790    0.8220 c3        1 HYI      0.082100
     13 O3         -3.1910    1.8810    0.8090 oh        1 HYI     -0.574800
     14 C2         -4.5760    0.0690    0.0590 c         1 HYI      0.564100
     15 O2         -5.2220    0.8820   -0.6180 o         1 HYI     -0.554100
     16 N1         -5.0790   -1.2500    0.2910 n         1 HYI     -0.351400
     17 O1         -5.9790   -1.6710   -0.6040 oh        1 HYI     -0.440100
     18 HA          4.3990    0.9130    1.2140 h1        1 HYI      0.041700
     19 HN1A        5.0490    2.2760   -0.6400 hn        1 HYI      0.333800
     20 HN2         3.9800    1.5610   -1.6030 hn        1 HYI      0.333800
     21 HB1         2.8880   -0.5940   -1.0440 hc        1 HYI      0.064700
     22 HB2         3.3350   -1.2760    0.5750 hc        1 HYI      0.064700
     23 HG1         2.0220    0.5660    1.6980 h1        1 HYI      0.061200
     24 HG2         1.5740    1.2430    0.0820 h1        1 HYI      0.061200
     25 H51        -1.1010   -0.3100    2.1520 h1        1 HYI      0.079200
     26 H52        -0.6410    1.1290    1.1610 h1        1 HYI      0.079200
     27 H4         -2.2470   -1.3120    0.1180 h1        1 HYI      0.042700
     28 HO4        -0.9930    0.1610   -1.3470 ho        1 HYI      0.439000
     29 H3         -3.4140    0.2060    1.9110 h1        1 HYI      0.100700
     30 HO3        -3.1290    2.1550   -0.1190 ho        1 HYI      0.434000
     31 HN1        -4.3390   -1.9440    0.3210 hn        1 HYI      0.298500
     32 HO1        -6.7660   -1.1050   -0.4780 ho        1 HYI      0.431000
@<TRIPOS>BOND
     1    1    2 1   
     2    2    3 1   
     3    2    4 1   
     4    4    5 1   
     5    4    6 1   
     6    4   18 1   
     7    5   19 1   
     8    5   20 1   
     9    6    7 1   
    10    6   21 1   
    11    6   22 1   
    12    7    8 1   
    13    7   23 1   
    14    7   24 1   
    15    8    9 1   
    16    9   10 1   
    17    9   25 1   
    18    9   26 1   
    19   10   11 1   
    20   10   12 1   
    21   10   27 1   
    22   11   28 1   
    23   12   13 1   
    24   12   14 1   
    25   12   29 1   
    26   13   30 1   
    27   14   15 2   
    28   14   16 1   
    29   16   17 1   
    30   16   31 1   
    31   17   32 1   
@<TRIPOS>SUBSTRUCTURE
     1 HYI         1 TEMP              0 ****  ****    0 ROOT
