@<TRIPOS>MOLECULE
HYI
   34    33     1     0     0
SMALL
bcc


@<TRIPOS>ATOM
      1 O           4.6120   -2.6820    0.8890 o         1 HYI     -0.796800
      2 C           4.0250   -2.6860    1.9930 c         1 HYI      0.928600
      3 OXT         4.0180   -3.6450    2.8210 o         1 HYI     -0.796800
      4 CA          3.3060   -1.3540    2.4250 c3        1 HYI     -0.039500
      5 N           2.9050   -0.6060    1.1920 n4        1 HYI     -0.826600
      6 CB          2.1590   -1.5870    3.4010 c3        1 HYI     -0.095400
      7 CG          2.1800   -0.6560    4.5910 c3        1 HYI     -0.041300
      8 SD          3.7230   -0.4470    5.4290 ss        1 HYI     -0.263200
      9 C5          4.0350   -1.9340    6.3270 c3        1 HYI     -0.054300
     10 C4          4.6990   -2.9840    5.4530 c3        1 HYI      0.095100
     11 O4          3.9300   -4.1810    5.4230 oh        1 HYI     -0.646800
     12 C3          6.0900   -3.4190    5.9480 c3        1 HYI      0.110100
     13 O3          6.0790   -4.3200    7.0170 oh        1 HYI     -0.550800
     14 C2          6.8680   -4.0590    4.7820 c         1 HYI      0.503100
     15 O2          8.0180   -3.8370    4.4500 o         1 HYI     -0.407100
     16 N1          6.1210   -5.0880    3.9480 n4        1 HYI     -0.474300
     17 O1          6.9090   -6.0780    3.4800 oh        1 HYI     -0.359300
     18 HA          4.1080   -0.7370    2.9450 hx        1 HYI      0.122700
     19 HN1A        2.8790    0.3980    1.3640 hn        1 HYI      0.460133
     20 HN2         3.6080   -0.8280    0.4600 hn        1 HYI      0.460133
     21 HB1         1.1570   -1.5040    2.8990 hc        1 HYI      0.081700
     22 HB2         2.2350   -2.6520    3.7600 hc        1 HYI      0.081700
     23 HG1         1.3900   -0.9870    5.3120 h1        1 HYI      0.092200
     24 HG2         1.9280    0.3900    4.2740 h1        1 HYI      0.092200
     25 H51         4.7070   -1.6240    7.1690 h1        1 HYI      0.111200
     26 H52         3.1010   -2.3520    6.7790 h1        1 HYI      0.111200
     27 H4          4.8170   -2.5520    4.4150 h1        1 HYI      0.090700
     28 HO4         3.2650   -4.0960    4.7230 ho        1 HYI      0.465000
     29 H3          6.7080   -2.5340    6.2880 h1        1 HYI      0.142700
     30 HO3         5.2400   -4.8090    7.0240 ho        1 HYI      0.447000
     31 HN1         5.6110   -4.6080    3.1480 hn        1 HYI      0.512300
     32 HO1         7.7000   -5.6720    3.0520 ho        1 HYI      0.473000
     33 HN3         1.9890   -0.9220    0.8690 hn        1 HYI      0.460133
     34 H12         5.3940   -5.5460    4.5410 hn        1 HYI      0.512300
@<TRIPOS>BOND
     1    1    2 1   
     2    2    3 1   
     3    2    4 1   
     4    4    5 1   
     5    4    6 1   
     6    4   18 1   
     7    5   19 1   
     8    5   20 1   
     9    5   33 1   
    10    6    7 1   
    11    6   21 1   
    12    6   22 1   
    13    7    8 1   
    14    7   23 1   
    15    7   24 1   
    16    8    9 1   
    17    9   10 1   
    18    9   25 1   
    19    9   26 1   
    20   10   11 1   
    21   10   12 1   
    22   10   27 1   
    23   11   28 1   
    24   12   13 1   
    25   12   14 1   
    26   12   29 1   
    27   13   30 1   
    28   14   15 2   
    29   14   16 1   
    30   16   17 1   
    31   16   31 1   
    32   16   34 1   
    33   17   32 1   
@<TRIPOS>SUBSTRUCTURE
     1 HYI         1 TEMP              0 ****  ****    0 ROOT
