@<TRIPOS>MOLECULE
HYI
   34    33     1     0     0
SMALL
bcc


@<TRIPOS>ATOM
      1 O           4.4770   -2.7870    0.8750 o         1 HYI     -0.796800
      2 C           3.9350   -2.7530    2.0000 c         1 HYI      0.928600
      3 OXT         3.9600   -3.6830    2.8600 o         1 HYI     -0.796800
      4 CA          3.2340   -1.4050    2.4150 c3        1 HYI     -0.039500
      5 N           2.7860   -0.6990    1.1740 nz        1 HYI     -0.826600
      6 CB          2.1270   -1.6020    3.4420 c3        1 HYI     -0.095400
      7 CG          2.1960   -0.6310    4.5980 c3        1 HYI     -0.041300
      8 SD          3.7700   -0.3970    5.3670 ss        1 HYI     -0.263200
      9 C5          4.1170   -1.8540    6.3030 c3        1 HYI     -0.054300
     10 C4          4.7450   -2.9340    5.4390 c3        1 HYI      0.095100
     11 O4          3.9740   -4.1290    5.4810 oh        1 HYI     -0.646800
     12 C3          6.1540   -3.3550    5.8940 c3        1 HYI      0.110100
     13 O3          6.1840   -4.2190    6.9920 oh        1 HYI     -0.550800
     14 C2          6.8840   -4.0370    4.7200 c         1 HYI      0.503100
     15 O2          8.0210   -3.8290    4.3350 o         1 HYI     -0.407100
     16 N1          6.1040   -5.0910    3.9520 ny        1 HYI     -0.474300
     17 O1          6.8720   -6.0980    3.4870 oh        1 HYI     -0.359300
     18 HA          4.0570   -0.7730    2.8810 hx        1 HYI      0.122700
     19 HN1A        1.8570   -1.0240    0.8970 hn        1 HYI      0.460133
     20 HN2         3.4590   -0.9470    0.4220 hn        1 HYI      0.460133
     21 HB1         2.2160   -2.6550    3.8340 hc        1 HYI      0.081700
     22 HB2         1.1050   -1.5340    2.9770 hc        1 HYI      0.081700
     23 HG1         1.9320    0.4040    4.2560 h1        1 HYI      0.092200
     24 HG2         1.4350   -0.9360    5.3610 h1        1 HYI      0.092200
     25 H51         4.8220   -1.5170    7.1060 h1        1 HYI      0.111200
     26 H52         3.2010   -2.2540    6.8050 h1        1 HYI      0.111200
     27 H4          4.8220   -2.5380    4.3830 h1        1 HYI      0.090700
     28 HO4         3.2820   -4.0670    4.8040 ho        1 HYI      0.465000
     29 H3          6.7850   -2.4600    6.1780 h1        1 HYI      0.142700
     30 HO3         5.3450   -4.7060    7.0490 ho        1 HYI      0.447000
     31 HN1         5.5640   -4.6380    3.1570 hn        1 HYI      0.512300
     32 HO1         7.6460   -5.7090    3.0150 ho        1 HYI      0.473000
     33 HN3         2.7680    0.3100    1.3120 hn        1 HYI      0.460133
     34 H12         5.4010   -5.5270    4.5880 hn        1 HYI      0.512300
@<TRIPOS>BOND
     1    1    2 1   
     2    2    3 1   
     3    2    4 1   
     4    4    5 1   
     5    4    6 1   
     6    4   18 1   
     7    5   19 1   
     8    5   20 1   
     9    5   33 1   
    10    6    7 1   
    11    6   21 1   
    12    6   22 1   
    13    7    8 1   
    14    7   23 1   
    15    7   24 1   
    16    8    9 1   
    17    9   10 1   
    18    9   25 1   
    19    9   26 1   
    20   10   11 1   
    21   10   12 1   
    22   10   27 1   
    23   11   28 1   
    24   12   13 1   
    25   12   14 1   
    26   12   29 1   
    27   13   30 1   
    28   14   15 2   
    29   14   16 1   
    30   16   17 1   
    31   16   31 1   
    32   16   34 1   
    33   17   32 1   
@<TRIPOS>SUBSTRUCTURE
     1 HYI         1 TEMP              0 ****  ****    0 ROOT
