@<TRIPOS>MOLECULE
HYM
   29    26     1     0     0
SMALL
bcc


@<TRIPOS>ATOM
      1 CAI         0.3900   -1.1790   -1.7880 c3        1 HYM     -0.088300
      2 CAH         1.9250   -1.1920   -1.7630 c3        1 HYM      0.106000
      3 NAG         2.2900   -1.2110   -0.7210 n         1 HYM     -0.556900
      4 CAF         2.3700   -0.0610   -0.2620 c         1 HYM      0.695300
      5 OAK         2.1000    0.9150   -0.9330 o         1 HYM     -0.629100
      6 CAD         2.1170   -0.0940    0.9030 ce        1 HYM     -0.035700
      7 NAC         2.7060    0.0790    2.1480 ne        1 HYM     -0.482000
      8 CAA         1.8320   -0.3350    3.0840 c1        1 HYM      0.159400
      9 CLA         2.1160   -0.3750    4.8040 cl        1 HYM      0.061000
     10 CAB         0.7010   -0.7660    2.4450 c1        1 HYM     -0.098000
     11 CLB        -0.7410   -1.3750    3.2120 cl        1 HYM      0.061000
     12 CAE         0.8930   -0.6110    1.0920 c1        1 HYM      0.015100
     13 CAJ        -0.1520   -0.2680   -0.2890 c1        1 HYM      0.028900
     14 CAL        -1.2140    0.5600   -0.2480 cg        1 HYM     -0.077200
     15 NAP        -2.6670    0.1520   -0.3770 n2        1 HYM     -0.789100
     16 CAM        -1.2120    2.0950   -0.6320 ce        1 HYM      0.527500
     17 OAR        -0.2550    2.7310   -1.0250 o         1 HYM     -0.508300
     18 NAN        -2.5130    2.3610   -0.9060 nf        1 HYM     -0.492300
     19 CAO        -3.3120    1.3260   -0.7740 cf        1 HYM      0.842200
     20 NAQ        -4.6830    1.5220   -0.4630 nh        1 HYM     -0.883800
     21 HAI1       -0.0940   -0.8180   -2.5570 hc        1 HYM      0.064700
     22 HAI2        0.1010   -2.1140   -1.8070 hc        1 HYM      0.064700
     23 HAH1        2.2500   -1.9880   -2.2350 h1        1 HYM      0.047700
     24 HAH2        2.2630   -0.3880   -2.2110 h1        1 HYM      0.047700
     25 HAG         2.5590   -1.9670   -0.2790 hn        1 HYM      0.323500
     26 HAC         3.5450    0.4010    2.3030 DU        1 HYM      0.281000
     27 HAP        -3.0600   -0.5660    0.0270 hn        1 HYM      0.455400
     28 HAQ1       -5.1890    0.8220   -0.1650 hn        1 HYM      0.429800
     29 HAQ2       -5.0650    2.3440   -0.5840 hn        1 HYM      0.429800
@<TRIPOS>BOND
     1    1    2 1   
     2    1   13 1   
     3    1   21 1   
     4    1   22 1   
     5    2    3 1   
     6    2   23 1   
     7    2   24 1   
     8    3    4 1   
     9    3   25 1   
    10    4    5 2   
    11    4    6 1   
    12    6    7 1   
    13    6   12 2   
    14    7    8 2   
    15    8   10 2   
    16   10   12 2   
    17   13   14 3   
    18   14   16 1   
    19   15   19 2   
    20   15   27 1   
    21   16   17 1   
    22   16   18 2   
    23   18   19 1   
    24   19   20 1   
    25   20   28 1   
    26   20   29 1   
@<TRIPOS>SUBSTRUCTURE
     1 HYM         1 TEMP              0 ****  ****    0 ROOT
