@<TRIPOS>MOLECULE
HYM
   30    32     1     0     0
SMALL
bcc


@<TRIPOS>ATOM
      1 CAI         0.0970   -0.2160    0.3340 c3        1 HYM     -0.095200
      2 CAH         1.5440   -0.0400   -0.1310 c3        1 HYM      0.098000
      3 NAG         2.5080    0.0720    0.9240 n         1 HYM     -0.557900
      4 CAF         2.6620    1.2200    1.6660 c         1 HYM      0.719100
      5 OAK         3.5930    1.3630    2.4810 o         1 HYM     -0.608500
      6 CAD         1.6520    2.2910    1.4550 cc        1 HYM     -0.096900
      7 NAC         1.9800    3.6340    1.5240 na        1 HYM     -0.109100
      8 CAA         0.8320    4.3860    1.2860 cc        1 HYM     -0.010900
      9 CLA         0.8230    6.0550    1.2530 cl        1 HYM      0.026600
     10 CAB        -0.2530    3.5010    1.0840 cd        1 HYM     -0.047600
     11 CLB        -1.7960    3.9730    0.6750 cl        1 HYM     -0.019400
     12 CAE         0.2620    2.1610    1.2030 cd        1 HYM     -0.158800
     13 CAJ        -0.4540    0.9130    1.1330 cf        1 HYM      0.166600
     14 CAL        -1.6210    0.7220    1.8100 cc        1 HYM     -0.133200
     15 NAP        -2.3030    1.6940    2.6240 na        1 HYM     -0.642000
     16 CAM        -2.4570   -0.5310    1.8360 c         1 HYM      0.695700
     17 OAR        -2.3030   -1.5710    1.2100 o         1 HYM     -0.428100
     18 NAN        -3.5670   -0.2850    2.7720 nc        1 HYM     -0.578100
     19 CAO        -3.3710    0.9480    3.2210 cd        1 HYM      0.614100
     20 NAQ        -4.3000    1.6020    4.1680 n4        1 HYM     -0.783600
     21 HAI1       -0.5460   -0.3390   -0.5850 hc        1 HYM      0.101200
     22 HAI2       -0.0010   -1.1750    0.9200 hc        1 HYM      0.101200
     23 HAH1        1.8120   -0.9420   -0.7550 h1        1 HYM      0.073700
     24 HAH2        1.5990    0.8720   -0.7950 h1        1 HYM      0.073700
     25 HAG         3.1560   -0.6690    1.0680 hn        1 HYM      0.345500
     26 HAC         2.8850    3.9890    1.7310 hn        1 HYM      0.343700
     27 HAP        -1.7360    2.2990    3.1810 hn        1 HYM      0.450800
     28 HAQ1       -4.7210    2.4240    3.7120 hn        1 HYM      0.487133
     29 HAQ2       -3.7880    1.8930    5.0090 hn        1 HYM      0.487133
     30 HAQ3       -5.0450    0.9380    4.4320 hn        1 HYM      0.487133
@<TRIPOS>BOND
     1    1    2 1   
     2    1   13 1   
     3    1   21 1   
     4    1   22 1   
     5    2    3 1   
     6    2   23 1   
     7    2   24 1   
     8    3    4 1   
     9    3   25 1   
    10    4    5 2   
    11    4    6 1   
    12    6    7 1   
    13    6   12 2   
    14    7    8 1   
    15    7   26 1   
    16    8    9 1   
    17    8   10 2   
    18   10   11 1   
    19   10   12 1   
    20   12   13 1   
    21   13   14 2   
    22   14   15 1   
    23   14   16 1   
    24   15   19 1   
    25   15   27 1   
    26   16   17 2   
    27   16   18 1   
    28   18   19 2   
    29   19   20 1   
    30   20   28 1   
    31   20   29 1   
    32   20   30 1   
@<TRIPOS>SUBSTRUCTURE
     1 HYM         1 TEMP              0 ****  ****    0 ROOT
