@<TRIPOS>MOLECULE
HYM
   30    32     1     0     0
SMALL
bcc


@<TRIPOS>ATOM
      1 CAI         0.1000   -0.2130    0.3350 c3        1 HYM     -0.095200
      2 CAH         1.5470   -0.0380   -0.1280 c3        1 HYM      0.098000
      3 NAG         2.5100    0.0720    0.9290 n         1 HYM     -0.557900
      4 CAF         2.6640    1.2180    1.6730 c         1 HYM      0.719100
      5 OAK         3.5940    1.3580    2.4890 o         1 HYM     -0.608500
      6 CAD         1.6560    2.2910    1.4620 cc        1 HYM     -0.096900
      7 NAC         1.9860    3.6330    1.5330 na        1 HYM     -0.109100
      8 CAA         0.8390    4.3870    1.2940 cc        1 HYM     -0.010900
      9 CLA         0.8330    6.0560    1.2640 cl        1 HYM      0.026600
     10 CAB        -0.2460    3.5040    1.0900 cd        1 HYM     -0.047600
     11 CLB        -1.7890    3.9780    0.6780 cl        1 HYM     -0.019400
     12 CAE         0.2670    2.1630    1.2080 cd        1 HYM     -0.158800
     13 CAJ        -0.4510    0.9160    1.1350 cf        1 HYM      0.166600
     14 CAL        -1.6190    0.7250    1.8100 cc        1 HYM     -0.133200
     15 NAP        -2.3010    1.6980    2.6240 na        1 HYM     -0.642000
     16 CAM        -2.4570   -0.5260    1.8320 c         1 HYM      0.695700
     17 OAR        -2.3030   -1.5660    1.2060 o         1 HYM     -0.428100
     18 NAN        -3.5680   -0.2800    2.7670 nc        1 HYM     -0.578100
     19 CAO        -3.3710    0.9520    3.2180 cd        1 HYM      0.614100
     20 NAQ        -4.3000    1.6060    4.1650 n4        1 HYM     -0.783600
     21 HAI1       -0.5430   -0.3340   -0.5850 hc        1 HYM      0.101200
     22 HAI2       -0.0010   -1.1720    0.9190 hc        1 HYM      0.101200
     23 HAH1        1.8150   -0.9390   -0.7520 h1        1 HYM      0.073700
     24 HAH2        1.6050    0.8750   -0.7900 h1        1 HYM      0.073700
     25 HAG         3.1570   -0.6710    1.0730 hn        1 HYM      0.345500
     26 HAC         2.8920    3.9860    1.7420 hn        1 HYM      0.343700
     27 HAP        -1.7340    2.3010    3.1830 hn        1 HYM      0.450800
     28 HAQ1       -5.0460    0.9420    4.4270 hn        1 HYM      0.487133
     29 HAQ2       -4.7210    2.4290    3.7100 hn        1 HYM      0.487133
     30 HAQ3       -3.7890    1.8960    5.0060 hn        1 HYM      0.487133
@<TRIPOS>BOND
     1    1    2 1   
     2    1   13 1   
     3    1   21 1   
     4    1   22 1   
     5    2    3 1   
     6    2   23 1   
     7    2   24 1   
     8    3    4 1   
     9    3   25 1   
    10    4    5 2   
    11    4    6 1   
    12    6    7 1   
    13    6   12 2   
    14    7    8 1   
    15    7   26 1   
    16    8    9 1   
    17    8   10 2   
    18   10   11 1   
    19   10   12 1   
    20   12   13 1   
    21   13   14 2   
    22   14   15 1   
    23   14   16 1   
    24   15   19 1   
    25   15   27 1   
    26   16   17 2   
    27   16   18 1   
    28   18   19 2   
    29   19   20 1   
    30   20   28 1   
    31   20   29 1   
    32   20   30 1   
@<TRIPOS>SUBSTRUCTURE
     1 HYM         1 TEMP              0 ****  ****    0 ROOT
