@<TRIPOS>MOLECULE
HYM
   30    32     1     0     0
SMALL
bcc


@<TRIPOS>ATOM
      1 CAI         0.1090   -0.2210    0.3740 c3        1 HYM     -0.096200
      2 CAH         1.5400   -0.0380   -0.1320 c3        1 HYM      0.099000
      3 NAG         2.5370    0.0700    0.8920 ns        1 HYM     -0.557900
      4 CAF         2.7070    1.2080    1.6440 c         1 HYM      0.721100
      5 OAK         3.6600    1.3470    2.4320 o         1 HYM     -0.605500
      6 CAD         1.6910    2.2800    1.4680 cc        1 HYM     -0.089900
      7 NAC         2.0220    3.6240    1.5380 na        1 HYM     -0.110100
      8 CAA         0.8710    4.3790    1.3310 cc        1 HYM      0.005100
      9 ClA         0.8610    6.0490    1.3090 cl        1 HYM      0.028600
     10 CAB        -0.2160    3.4950    1.1480 cd        1 HYM     -0.065600
     11 ClB        -1.7770    3.9690    0.7850 cl        1 HYM     -0.041400
     12 CAE         0.2970    2.1530    1.2450 cd        1 HYM     -0.139800
     13 CAJ        -0.4280    0.9090    1.1840 cf        1 HYM      0.164600
     14 CAL        -1.5930    0.7200    1.8650 cc        1 HYM     -0.134200
     15 NAP        -2.1890    1.6270    2.8130 na        1 HYM     -0.643000
     16 CAM        -2.4500   -0.5200    1.8420 c         1 HYM      0.693700
     17 OAR        -2.2760   -1.5630    1.2260 o         1 HYM     -0.427100
     18 NAN        -3.5840   -0.2740    2.7480 nc        1 HYM     -0.577100
     19 CAO        -3.4030    0.9610    3.1950 cd        1 HYM      0.609100
     20 NAQ        -4.3120    1.5870    4.1790 nz        1 HYM     -0.783600
     21 HAI1        0.0350   -1.1730    0.9740 hc        1 HYM      0.100200
     22 HAI2       -0.5600   -0.3600   -0.5230 hc        1 HYM      0.100200
     23 HAH1        1.5740    0.8780   -0.7920 h1        1 HYM      0.072700
     24 HAH2        1.7910   -0.9360   -0.7690 h1        1 HYM      0.072700
     25 HAG         3.1770   -0.6800    1.0260 hn        1 HYM      0.346500
     26 HAC         2.9320    3.9760    1.7350 hn        1 HYM      0.345700
     27 HAP        -2.2270    2.5950    2.5480 hn        1 HYM      0.450800
     28 HAQ1       -3.7880    1.7760    5.0460 hn        1 HYM      0.486800
     29 HAQ2       -4.6820    2.4660    3.7980 hn        1 HYM      0.486800
     30 HAQ3       -5.0930    0.9450    4.3850 hn        1 HYM      0.486800
@<TRIPOS>BOND
     1    1    2 1   
     2    1   13 1   
     3    1   21 1   
     4    1   22 1   
     5    2    3 1   
     6    2   23 1   
     7    2   24 1   
     8    3    4 1   
     9    3   25 1   
    10    4    5 2   
    11    4    6 1   
    12    6    7 1   
    13    6   12 2   
    14    7    8 1   
    15    7   26 1   
    16    8    9 1   
    17    8   10 2   
    18   10   11 1   
    19   10   12 1   
    20   12   13 1   
    21   13   14 2   
    22   14   15 1   
    23   14   16 1   
    24   15   19 1   
    25   15   27 1   
    26   16   17 2   
    27   16   18 1   
    28   18   19 2   
    29   19   20 1   
    30   20   28 1   
    31   20   29 1   
    32   20   30 1   
@<TRIPOS>SUBSTRUCTURE
     1 HYM         1 TEMP              0 ****  ****    0 ROOT
