@<TRIPOS>MOLECULE
HYM
   29    31     1     0     0
SMALL
bcc


@<TRIPOS>ATOM
      1 CAI         1.1570   -1.8330    1.3480 c3        1 HYM     -0.070200
      2 CAH         0.0320   -2.8560    1.4790 c3        1 HYM      0.097000
      3 NAG        -0.3970   -3.4770    0.2580 n         1 HYM     -0.555900
      4 CAF        -1.1250   -2.8110   -0.7000 c         1 HYM      0.730100
      5 OAK        -1.5650   -3.3990   -1.7090 o         1 HYM     -0.643500
      6 CAD        -1.3930   -1.3740   -0.4560 cc        1 HYM     -0.139900
      7 NAC        -2.6000   -0.7800   -0.8040 na        1 HYM     -0.124100
      8 CAA        -2.5540    0.5580   -0.4300 cc        1 HYM     -0.022900
      9 CLA        -3.8300    1.6170   -0.6640 cl        1 HYM     -0.010400
     10 CAB        -1.2930    0.8230    0.1550 cd        1 HYM     -0.045600
     11 CLB        -0.8420    2.2850    0.8120 cl        1 HYM     -0.021400
     12 CAE        -0.5420   -0.4040    0.1250 cd        1 HYM     -0.079800
     13 CAJ         0.8270   -0.6330    0.5280 cf        1 HYM      0.015600
     14 CAL         1.8330    0.1930    0.1520 cc        1 HYM     -0.049200
     15 NAP         1.7260    1.3860   -0.6170 na        1 HYM     -0.703000
     16 CAM         3.3210    0.0540    0.4920 c         1 HYM      0.694700
     17 OAR         3.8020   -0.8000    1.2400 o         1 HYM     -0.522100
     18 NAN         4.0250    1.0920   -0.1930 nc        1 HYM     -0.714100
     19 CAO         3.0920    1.8000   -0.8760 cd        1 HYM      0.798100
     20 NAQ         3.3660    2.8300   -1.7640 nh        1 HYM     -0.887800
     21 HAI1        1.4330   -1.4890    2.3850 hc        1 HYM      0.085200
     22 HAI2        2.0770   -2.3290    0.9260 hc        1 HYM      0.085200
     23 HAH1        0.3880   -3.6740    2.1700 h1        1 HYM      0.059200
     24 HAH2       -0.8570   -2.3550    1.9620 h1        1 HYM      0.059200
     25 HAG        -0.0770   -4.3940    0.0480 hn        1 HYM      0.330500
     26 HAC        -3.3410   -1.2360   -1.2780 hn        1 HYM      0.328700
     27 HAP         1.0520    1.4230   -1.3470 hn        1 HYM      0.438800
     28 HAQ1        2.6410    3.4920   -1.9210 hn        1 HYM      0.433300
     29 HAQ2        4.2900    3.2020   -1.7200 hn        1 HYM      0.433300
@<TRIPOS>BOND
     1    1    2 1   
     2    1   13 1   
     3    1   21 1   
     4    1   22 1   
     5    2    3 1   
     6    2   23 1   
     7    2   24 1   
     8    3    4 1   
     9    3   25 1   
    10    4    5 2   
    11    4    6 1   
    12    6    7 1   
    13    6   12 2   
    14    7    8 1   
    15    7   26 1   
    16    8    9 1   
    17    8   10 2   
    18   10   11 1   
    19   10   12 1   
    20   12   13 1   
    21   13   14 2   
    22   14   15 1   
    23   14   16 1   
    24   15   19 1   
    25   15   27 1   
    26   16   17 2   
    27   16   18 1   
    28   18   19 2   
    29   19   20 1   
    30   20   28 1   
    31   20   29 1   
@<TRIPOS>SUBSTRUCTURE
     1 HYM         1 TEMP              0 ****  ****    0 ROOT
