@<TRIPOS>MOLECULE
HYN
   11    11     1     0     0
SMALL
bcc


@<TRIPOS>ATOM
      1 O          -0.0320    0.0600    0.0270 o         1 HYN     -0.572500
      2 C           1.1980    0.0200    0.0110 c         1 HYN      0.691500
      3 C1          2.1510   -0.0440    1.2280 c3        1 HYN     -0.025000
      4 N           3.4830   -0.1890    0.6500 n         1 HYN     -0.524900
      5 N1          2.0090    0.0260   -1.1350 n         1 HYN     -0.614500
      6 C2          3.3830   -0.0480   -0.7670 c         1 HYN      0.779500
      7 O1          4.3290   -0.0320   -1.5680 o         1 HYN     -0.598500
      8 H1          1.9120   -0.9480    1.8510 h1        1 HYN      0.090200
      9 H1A         2.0330    0.8820    1.8520 h1        1 HYN      0.090200
     10 HN          4.2430    0.2720    1.0950 hn        1 HYN      0.321500
     11 HN1         1.6960    0.0000   -2.0720 hn        1 HYN      0.360500
@<TRIPOS>BOND
     1    1    2 2   
     2    2    3 1   
     3    2    5 1   
     4    3    4 1   
     5    3    8 1   
     6    3    9 1   
     7    4    6 1   
     8    4   10 1   
     9    5    6 1   
    10    5   11 1   
    11    6    7 2   
@<TRIPOS>SUBSTRUCTURE
     1 HYN         1 TEMP              0 ****  ****    0 ROOT
