@<TRIPOS>MOLECULE
HYN
   11    11     1     0     0
SMALL
bcc


@<TRIPOS>ATOM
      1 O          -2.3400   -0.5120    0.0590 o         1 HYN     -0.572500
      2 C          -1.1680   -0.1390    0.0200 c         1 HYN      0.691500
      3 C1         -0.6480    1.3170   -0.0470 c3        1 HYN     -0.025000
      4 N           0.7990    1.1890   -0.1890 n         1 HYN     -0.524900
      5 N1         -0.0360   -0.9700    0.0320 n         1 HYN     -0.614500
      6 C2          1.1510   -0.1870   -0.0430 c         1 HYN      0.779500
      7 O1          2.3020   -0.6490   -0.0230 o         1 HYN     -0.598500
      8 H1         -1.0700    1.8290   -0.9540 h1        1 HYN      0.090200
      9 H1A        -0.9590    1.8740    0.8760 h1        1 HYN      0.090200
     10 HN          1.3790    1.8520    0.2700 hn        1 HYN      0.321500
     11 HN1        -0.0370   -1.9580    0.0090 hn        1 HYN      0.360500
@<TRIPOS>BOND
     1    1    2 2   
     2    2    3 1   
     3    2    5 1   
     4    3    4 1   
     5    3    8 1   
     6    3    9 1   
     7    4    6 1   
     8    4   10 1   
     9    5    6 1   
    10    5   11 1   
    11    6    7 2   
@<TRIPOS>SUBSTRUCTURE
     1 HYN         1 TEMP              0 ****  ****    0 ROOT
