@<TRIPOS>MOLECULE
HYN
   11    11     1     0     0
SMALL
bcc


@<TRIPOS>ATOM
      1 O          -0.0290   -0.0490    0.0090 o         1 HYN     -0.572500
      2 C           1.2020   -0.0150   -0.0040 c         1 HYN      0.691500
      3 C1          2.1530    0.0440    1.2150 c3        1 HYN     -0.025000
      4 N           3.4870    0.1820    0.6390 ns        1 HYN     -0.524900
      5 N1          2.0150   -0.0260   -1.1490 ns        1 HYN     -0.614500
      6 C2          3.3880    0.0410   -0.7780 c         1 HYN      0.779500
      7 O1          4.3360    0.0200   -1.5780 o         1 HYN     -0.598500
      8 H1          2.0290   -0.8810    1.8380 h1        1 HYN      0.090200
      9 H1A         1.9170    0.9490    1.8360 h1        1 HYN      0.090200
     10 HN          4.2440   -0.2820    1.0850 hn        1 HYN      0.321500
     11 HN1         1.7040    0.0010   -2.0860 hn        1 HYN      0.360500
@<TRIPOS>BOND
     1    1    2 2   
     2    2    3 1   
     3    2    5 1   
     4    3    4 1   
     5    3    8 1   
     6    3    9 1   
     7    4    6 1   
     8    4   10 1   
     9    5    6 1   
    10    5   11 1   
    11    6    7 2   
@<TRIPOS>SUBSTRUCTURE
     1 HYN         1 TEMP              0 ****  ****    0 ROOT
