@<TRIPOS>MOLECULE
HYN
   11    10     1     0     0
SMALL
bcc


@<TRIPOS>ATOM
      1 O          -2.3750   -0.0260   -0.0960 o         1 HYN     -0.530500
      2 C          -1.1600   -0.0260   -0.0960 c1        1 HYN      0.532500
      3 C1         -0.2730   -0.0260    1.1250 c2        1 HYN      0.167400
      4 N           1.0470   -0.0260    0.5730 n         1 HYN     -0.487500
      5 N1         -0.3320   -0.0260   -1.2350 n         1 HYN     -0.547500
      6 C2          0.9300   -0.0260   -0.8500 c         1 HYN      0.743100
      7 O1          1.7980    0.2940   -1.6370 o         1 HYN     -0.562100
      8 H1         -0.4460    0.7770    1.6520 h4        1 HYN      0.000300
      9 H1A        -0.3950   -0.8610    1.6160 h4        1 HYN      0.000300
     10 HN          1.8260   -0.0260    1.0470 hn        1 HYN      0.321500
     11 HN1        -0.6210   -0.0260   -2.0990 hn        1 HYN      0.360500
@<TRIPOS>BOND
     1    1    2 2   
     2    2    5 2   
     3    3    4 2   
     4    3    8 1   
     5    3    9 1   
     6    4    6 1   
     7    4   10 1   
     8    5    6 1   
     9    5   11 1   
    10    6    7 2   
@<TRIPOS>SUBSTRUCTURE
     1 HYN         1 TEMP              0 ****  ****    0 ROOT
