@<TRIPOS>MOLECULE
HYP
   17    17     1     0     0
SMALL
bcc


@<TRIPOS>ATOM
      1 N           0.3030    1.0070   -1.1070 n3        1 HYP     -0.749200
      2 CA         -0.4280   -0.1620   -0.5900 c3        1 HYP      0.021500
      3 C          -1.6740    0.2510    0.2670 c         1 HYP      0.934600
      4 O          -1.4860    0.6820    1.4360 o         1 HYP     -0.838800
      5 CB          0.5430   -1.0070    0.2650 c3        1 HYP     -0.085400
      6 CG          1.7620   -0.1120    0.5150 c3        1 HYP      0.106100
      7 CD          1.4430    1.2160   -0.2220 c3        1 HYP      0.116800
      8 OD1         2.9100   -0.7590   -0.0240 oh        1 HYP     -0.618800
      9 OXT        -2.8010    0.0720   -0.2680 o         1 HYP     -0.838800
     10 H           0.6450    0.7830   -2.0270 hn        1 HYP      0.309800
     11 HA         -0.8140   -0.7730   -1.4520 h1        1 HYP      0.039700
     12 HB2         0.0590   -1.2740    1.2360 hc        1 HYP      0.052700
     13 HB3         0.8470   -1.9420   -0.2640 hc        1 HYP      0.052700
     14 HG          1.9290    0.0710    1.6090 h1        1 HYP      0.037700
     15 HD22        2.3390    1.5950   -0.7790 h1        1 HYP      0.040200
     16 HD23        1.1310    1.9820    0.5390 h1        1 HYP      0.040200
     17 HD1         3.6320   -0.1230    0.0290 ho        1 HYP      0.378000
@<TRIPOS>BOND
     1    1    2 1   
     2    1    7 1   
     3    1   10 1   
     4    2    3 1   
     5    2    5 1   
     6    2   11 1   
     7    3    4 1   
     8    3    9 1   
     9    5    6 1   
    10    5   12 1   
    11    5   13 1   
    12    6    7 1   
    13    6    8 1   
    14    6   14 1   
    15    7   15 1   
    16    7   16 1   
    17    8   17 1   
@<TRIPOS>SUBSTRUCTURE
     1 HYP         1 TEMP              0 ****  ****    0 ROOT
