@<TRIPOS>MOLECULE
HYQ
   44    48     1     0     0
SMALL
bcc


@<TRIPOS>ATOM
      1 C1         -2.9770   -0.9620    0.8020 c3        1 HYQ     -0.134700
      2 C4         -1.5090   -0.8020    1.2000 c         1 HYQ      0.711500
      3 O10        -1.0640   -0.7420    2.3480 o         1 HYQ     -0.564500
      4 N9         -0.7130   -0.7580    0.0260 n         1 HYQ     -0.459600
      5 C14         0.7040   -0.7040    0.0260 ca        1 HYQ      0.113600
      6 C16         1.4310   -1.8850    0.0850 ca        1 HYQ     -0.134000
      7 C19         2.8360   -1.8640    0.0960 ca        1 HYQ     -0.053000
      8 C20         3.5180   -0.6600    0.0580 ca        1 HYQ     -0.151200
      9 N23         5.0070   -0.7250    0.1000 no        1 HYQ      0.310200
     10 O26         5.6400    0.1550    0.6170 o         1 HYQ     -0.206000
     11 O25         5.5430   -1.6930   -0.3730 o         1 HYQ     -0.206000
     12 C17         2.8190    0.5860   -0.0230 ca        1 HYQ      0.011000
     13 C21         3.4780    1.8440   -0.1110 ca        1 HYQ     -0.120000
     14 C24         2.7630    3.0150   -0.1890 ca        1 HYQ     -0.109000
     15 C22         1.3510    2.9900   -0.1860 ca        1 HYQ     -0.119000
     16 C18         0.6870    1.7910   -0.1120 ca        1 HYQ     -0.110000
     17 C15         1.3940    0.5580   -0.0350 ca        1 HYQ     -0.029000
     18 C6         -1.5080   -0.8580   -1.1470 c         1 HYQ      0.711500
     19 O13        -1.0620   -0.8480   -2.2950 o         1 HYQ     -0.564500
     20 C2         -2.9750   -1.0040   -0.7420 c3        1 HYQ     -0.134700
     21 C5         -3.8580    0.1160   -1.2890 c3        1 HYQ     -0.049700
     22 C12        -5.2730   -0.1000   -0.7540 c3        1 HYQ     -0.080400
     23 C8         -5.2700   -0.0500    0.7690 c3        1 HYQ     -0.080400
     24 C3         -3.8520    0.1920    1.2850 c3        1 HYQ     -0.049700
     25 C7         -3.3410    1.5140    0.7180 c3        1 HYQ     -0.080400
     26 C11        -3.3500    1.4710   -0.8040 c3        1 HYQ     -0.080400
     27 H1         -3.3490   -1.9270    1.2350 hc        1 HYQ      0.094700
     28 H16         0.9270   -2.8650    0.1250 ha        1 HYQ      0.155000
     29 H19         3.3820   -2.8250    0.1340 ha        1 HYQ      0.172000
     30 H21         4.5790    1.8930   -0.1090 ha        1 HYQ      0.168000
     31 H24         3.2850    3.9820   -0.2550 ha        1 HYQ      0.143000
     32 H22         0.7940    3.9370   -0.2450 ha        1 HYQ      0.140000
     33 H18        -0.4150    1.7840   -0.1140 ha        1 HYQ      0.139000
     34 H2         -3.3410   -1.9940   -1.1220 hc        1 HYQ      0.094700
     35 H5         -3.8520    0.0830   -2.4100 hc        1 HYQ      0.076700
     36 H121       -5.6630   -1.0870   -1.1090 hc        1 HYQ      0.050200
     37 H122       -5.9450    0.6950   -1.1670 hc        1 HYQ      0.050200
     38 H81        -5.6660   -1.0090    1.1910 hc        1 HYQ      0.050200
     39 H82        -5.9360    0.7750    1.1310 hc        1 HYQ      0.050200
     40 H3         -3.8410    0.2260    2.4060 hc        1 HYQ      0.076700
     41 H71        -3.9910    2.3470    1.0870 hc        1 HYQ      0.050200
     42 H72        -2.3040    1.7060    1.0990 hc        1 HYQ      0.050200
     43 H111       -2.3190    1.6490   -1.2080 hc        1 HYQ      0.050200
     44 H112       -4.0110    2.2770   -1.2110 hc        1 HYQ      0.050200
@<TRIPOS>BOND
     1    1    2 1   
     2    1   20 1   
     3    1   24 1   
     4    1   27 1   
     5    2    3 2   
     6    2    4 1   
     7    4    5 1   
     8    4   18 1   
     9    5    6 ar  
    10    5   17 ar  
    11    6    7 ar  
    12    6   28 1   
    13    7    8 ar  
    14    7   29 1   
    15    8    9 1   
    16    8   12 ar  
    17    9   10 1   
    18    9   11 1   
    19   12   13 ar  
    20   12   17 ar  
    21   13   14 ar  
    22   13   30 1   
    23   14   15 ar  
    24   14   31 1   
    25   15   16 ar  
    26   15   32 1   
    27   16   17 ar  
    28   16   33 1   
    29   18   19 2   
    30   18   20 1   
    31   20   21 1   
    32   20   34 1   
    33   21   22 1   
    34   21   26 1   
    35   21   35 1   
    36   22   23 1   
    37   22   36 1   
    38   22   37 1   
    39   23   24 1   
    40   23   38 1   
    41   23   39 1   
    42   24   25 1   
    43   24   40 1   
    44   25   26 1   
    45   25   41 1   
    46   25   42 1   
    47   26   43 1   
    48   26   44 1   
@<TRIPOS>SUBSTRUCTURE
     1 HYQ         1 TEMP              0 ****  ****    0 ROOT
