@<TRIPOS>MOLECULE
HYQ
   44    48     1     0     0
SMALL
bcc


@<TRIPOS>ATOM
      1 C1          0.0040   -0.0820    0.0060 c3        1 HYQ     -0.134700
      2 C4          1.5320   -0.1010   -0.0390 c         1 HYQ      0.711500
      3 O10         2.2360   -0.0660   -1.0500 o         1 HYQ     -0.564500
      4 N9          2.0330   -0.1400    1.2890 n         1 HYQ     -0.459600
      5 C14         3.4100   -0.0790    1.6220 ca        1 HYQ      0.113600
      6 C16         4.0190    1.1600    1.7760 ca        1 HYQ     -0.134000
      7 C19         5.3840    1.2540    2.0970 ca        1 HYQ     -0.053000
      8 C20         6.1460    0.1090    2.2560 ca        1 HYQ     -0.151200
      9 N23         7.5910    0.2970    2.5700 no        1 HYQ      0.310200
     10 O26         8.4050   -0.4990    2.1880 o         1 HYQ     -0.206000
     11 O25         7.9110    1.2790    3.1870 o         1 HYQ     -0.206000
     12 C17         5.5640   -1.1920    2.1280 ca        1 HYQ      0.011000
     13 C21         6.2970   -2.3950    2.3280 ca        1 HYQ     -0.120000
     14 C24         5.6950   -3.6230    2.1970 ca        1 HYQ     -0.109000
     15 C22         4.3260   -3.7130    1.8610 ca        1 HYQ     -0.119000
     16 C18         3.5900   -2.5700    1.6700 ca        1 HYQ     -0.110000
     17 C15         4.1800   -1.2820    1.8030 ca        1 HYQ     -0.029000
     18 C6          0.9810   -0.1660    2.2420 c         1 HYQ      0.711500
     19 O13         1.1460   -0.1980    3.4630 o         1 HYQ     -0.564500
     20 C2         -0.3590   -0.1190    1.5070 c3        1 HYQ     -0.134700
     21 C5         -1.2380   -1.3340    1.7940 c3        1 HYQ     -0.049700
     22 C12        -2.5030   -1.2080    0.9460 c3        1 HYQ     -0.080400
     23 C8         -2.1410   -1.1780   -0.5340 c3        1 HYQ     -0.080400
     24 C3         -0.6260   -1.2760   -0.7060 c3        1 HYQ     -0.049700
     25 C7         -0.1420   -2.5790   -0.0760 c3        1 HYQ     -0.080400
     26 C11        -0.5090   -2.6160    1.4010 c3        1 HYQ     -0.080400
     27 H1         -0.3440    0.8710   -0.4730 hc        1 HYQ      0.094700
     28 H16         3.4500    2.0960    1.6500 ha        1 HYQ      0.155000
     29 H19         5.8330    2.2570    2.2210 ha        1 HYQ      0.172000
     30 H21         7.3690   -2.3540    2.5850 ha        1 HYQ      0.168000
     31 H24         6.2740   -4.5460    2.3520 ha        1 HYQ      0.143000
     32 H22         3.8600   -4.7040    1.7550 ha        1 HYQ      0.140000
     33 H18         2.5230   -2.6520    1.4120 ha        1 HYQ      0.139000
     34 H2         -0.8920    0.8170    1.8190 hc        1 HYQ      0.094700
     35 H5         -1.4960   -1.3590    2.8850 hc        1 HYQ      0.076700
     36 H121       -3.0540   -0.2750    1.2300 hc        1 HYQ      0.050200
     37 H122       -3.1770   -2.0750    1.1630 hc        1 HYQ      0.050200
     38 H81        -2.5140   -0.2340   -1.0060 hc        1 HYQ      0.050200
     39 H82        -2.6270   -2.0350   -1.0680 hc        1 HYQ      0.050200
     40 H3         -0.3510   -1.2510   -1.7930 hc        1 HYQ      0.076700
     41 H71         0.9680   -2.6670   -0.2070 hc        1 HYQ      0.050200
     42 H72        -0.6110   -3.4430   -0.6140 hc        1 HYQ      0.050200
     43 H111        0.4110   -2.7300    2.0320 hc        1 HYQ      0.050200
     44 H112       -1.1700   -3.4940    1.6150 hc        1 HYQ      0.050200
@<TRIPOS>BOND
     1    1    2 1   
     2    1   20 1   
     3    1   24 1   
     4    1   27 1   
     5    2    3 2   
     6    2    4 1   
     7    4    5 1   
     8    4   18 1   
     9    5    6 ar  
    10    5   17 ar  
    11    6    7 ar  
    12    6   28 1   
    13    7    8 ar  
    14    7   29 1   
    15    8    9 1   
    16    8   12 ar  
    17    9   10 1   
    18    9   11 1   
    19   12   13 ar  
    20   12   17 ar  
    21   13   14 ar  
    22   13   30 1   
    23   14   15 ar  
    24   14   31 1   
    25   15   16 ar  
    26   15   32 1   
    27   16   17 ar  
    28   16   33 1   
    29   18   19 2   
    30   18   20 1   
    31   20   21 1   
    32   20   34 1   
    33   21   22 1   
    34   21   26 1   
    35   21   35 1   
    36   22   23 1   
    37   22   36 1   
    38   22   37 1   
    39   23   24 1   
    40   23   38 1   
    41   23   39 1   
    42   24   25 1   
    43   24   40 1   
    44   25   26 1   
    45   25   41 1   
    46   25   42 1   
    47   26   43 1   
    48   26   44 1   
@<TRIPOS>SUBSTRUCTURE
     1 HYQ         1 TEMP              0 ****  ****    0 ROOT
