@<TRIPOS>MOLECULE
HYQ
   44    48     1     0     0
SMALL
bcc


@<TRIPOS>ATOM
      1 C1          0.0030   -0.0830    0.0060 c3        1 HYQ     -0.134700
      2 C4          1.5310   -0.1000   -0.0380 c         1 HYQ      0.711500
      3 O10         2.2350   -0.0640   -1.0490 o         1 HYQ     -0.564500
      4 N9          2.0320   -0.1400    1.2890 n         1 HYQ     -0.459600
      5 C14         3.4090   -0.0770    1.6220 ca        1 HYQ      0.113600
      6 C16         4.0160    1.1620    1.7780 ca        1 HYQ     -0.134000
      7 C19         5.3820    1.2570    2.0990 ca        1 HYQ     -0.053000
      8 C20         6.1450    0.1120    2.2570 ca        1 HYQ     -0.151200
      9 N23         7.5900    0.3010    2.5710 no        1 HYQ      0.310200
     10 O26         8.4050   -0.4940    2.1880 o         1 HYQ     -0.206000
     11 O25         7.9090    1.2830    3.1890 o         1 HYQ     -0.206000
     12 C17         5.5640   -1.1890    2.1270 ca        1 HYQ      0.011000
     13 C21         6.2980   -2.3920    2.3260 ca        1 HYQ     -0.120000
     14 C24         5.6970   -3.6200    2.1930 ca        1 HYQ     -0.109000
     15 C22         4.3290   -3.7110    1.8570 ca        1 HYQ     -0.119000
     16 C18         3.5920   -2.5680    1.6680 ca        1 HYQ     -0.110000
     17 C15         4.1800   -1.2800    1.8020 ca        1 HYQ     -0.029000
     18 C6          0.9800   -0.1670    2.2430 c         1 HYQ      0.711500
     19 O13         1.1460   -0.1990    3.4630 o         1 HYQ     -0.564500
     20 C2         -0.3600   -0.1210    1.5080 c3        1 HYQ     -0.134700
     21 C5         -1.2370   -1.3370    1.7940 c3        1 HYQ     -0.049700
     22 C12        -2.5030   -1.2120    0.9470 c3        1 HYQ     -0.080400
     23 C8         -2.1420   -1.1810   -0.5330 c3        1 HYQ     -0.080400
     24 C3         -0.6260   -1.2780   -0.7060 c3        1 HYQ     -0.049700
     25 C7         -0.1410   -2.5810   -0.0770 c3        1 HYQ     -0.080400
     26 C11        -0.5070   -2.6180    1.4010 c3        1 HYQ     -0.080400
     27 H1         -0.3470    0.8700   -0.4710 hc        1 HYQ      0.094700
     28 H16         3.4470    2.0970    1.6530 ha        1 HYQ      0.155000
     29 H19         5.8300    2.2600    2.2240 ha        1 HYQ      0.172000
     30 H21         7.3700   -2.3500    2.5830 ha        1 HYQ      0.168000
     31 H24         6.2770   -4.5430    2.3480 ha        1 HYQ      0.143000
     32 H22         3.8640   -4.7020    1.7500 ha        1 HYQ      0.140000
     33 H18         2.5240   -2.6520    1.4090 ha        1 HYQ      0.139000
     34 H2         -0.8940    0.8140    1.8210 hc        1 HYQ      0.094700
     35 H5         -1.4950   -1.3630    2.8860 hc        1 HYQ      0.076700
     36 H121       -3.1760   -2.0800    1.1640 hc        1 HYQ      0.050200
     37 H122       -3.0550   -0.2800    1.2320 hc        1 HYQ      0.050200
     38 H81        -2.5150   -0.2370   -1.0050 hc        1 HYQ      0.050200
     39 H82        -2.6260   -2.0380   -1.0680 hc        1 HYQ      0.050200
     40 H3         -0.3520   -1.2520   -1.7930 hc        1 HYQ      0.076700
     41 H71        -0.6090   -3.4450   -0.6150 hc        1 HYQ      0.050200
     42 H72         0.9690   -2.6670   -0.2080 hc        1 HYQ      0.050200
     43 H111       -1.1670   -3.4980    1.6140 hc        1 HYQ      0.050200
     44 H112        0.4130   -2.7320    2.0310 hc        1 HYQ      0.050200
@<TRIPOS>BOND
     1    1    2 1   
     2    1   20 1   
     3    1   24 1   
     4    1   27 1   
     5    2    3 2   
     6    2    4 1   
     7    4    5 1   
     8    4   18 1   
     9    5    6 ar  
    10    5   17 ar  
    11    6    7 ar  
    12    6   28 1   
    13    7    8 ar  
    14    7   29 1   
    15    8    9 1   
    16    8   12 ar  
    17    9   10 1   
    18    9   11 1   
    19   12   13 ar  
    20   12   17 ar  
    21   13   14 ar  
    22   13   30 1   
    23   14   15 ar  
    24   14   31 1   
    25   15   16 ar  
    26   15   32 1   
    27   16   17 ar  
    28   16   33 1   
    29   18   19 2   
    30   18   20 1   
    31   20   21 1   
    32   20   34 1   
    33   21   22 1   
    34   21   26 1   
    35   21   35 1   
    36   22   23 1   
    37   22   36 1   
    38   22   37 1   
    39   23   24 1   
    40   23   38 1   
    41   23   39 1   
    42   24   25 1   
    43   24   40 1   
    44   25   26 1   
    45   25   41 1   
    46   25   42 1   
    47   26   43 1   
    48   26   44 1   
@<TRIPOS>SUBSTRUCTURE
     1 HYQ         1 TEMP              0 ****  ****    0 ROOT
