@<TRIPOS>MOLECULE
HYQ
   44    48     1     0     0
SMALL
bcc


@<TRIPOS>ATOM
      1 C1          0.0030   -0.0860    0.0040 c3        1 HYQ     -0.134700
      2 C4          1.5320   -0.1050   -0.0400 c         1 HYQ      0.711500
      3 O10         2.2360   -0.0730   -1.0500 o         1 HYQ     -0.564500
      4 N9          2.0310   -0.1400    1.2880 n         1 HYQ     -0.459600
      5 C14         3.4080   -0.0770    1.6220 ca        1 HYQ      0.113600
      6 C16         4.0150    1.1620    1.7800 ca        1 HYQ     -0.134000
      7 C19         5.3800    1.2580    2.1020 ca        1 HYQ     -0.053000
      8 C20         6.1440    0.1140    2.2570 ca        1 HYQ     -0.151200
      9 N23         7.5890    0.3040    2.5720 no        1 HYQ      0.310200
     10 O26         8.4040   -0.4900    2.1880 o         1 HYQ     -0.206000
     11 O25         7.9070    1.2850    3.1920 o         1 HYQ     -0.206000
     12 C17         5.5650   -1.1880    2.1260 ca        1 HYQ      0.011000
     13 C21         6.3000   -2.3900    2.3230 ca        1 HYQ     -0.120000
     14 C24         5.7000   -3.6180    2.1890 ca        1 HYQ     -0.109000
     15 C22         4.3310   -3.7100    1.8530 ca        1 HYQ     -0.119000
     16 C18         3.5930   -2.5680    1.6650 ca        1 HYQ     -0.110000
     17 C15         4.1810   -1.2790    1.8010 ca        1 HYQ     -0.029000
     18 C6          0.9800   -0.1630    2.2410 c         1 HYQ      0.711500
     19 O13         1.1440   -0.1910    3.4620 o         1 HYQ     -0.564500
     20 C2         -0.3600   -0.1200    1.5050 c3        1 HYQ     -0.134700
     21 C5         -1.2380   -1.3350    1.7950 c3        1 HYQ     -0.049700
     22 C12        -2.5030   -1.2120    0.9470 c3        1 HYQ     -0.080400
     23 C8         -2.1420   -1.1850   -0.5330 c3        1 HYQ     -0.080400
     24 C3         -0.6260   -1.2830   -0.7050 c3        1 HYQ     -0.049700
     25 C7         -0.1420   -2.5840   -0.0720 c3        1 HYQ     -0.080400
     26 C11        -0.5080   -2.6170    1.4060 c3        1 HYQ     -0.080400
     27 H1         -0.3450    0.8650   -0.4770 hc        1 HYQ      0.094700
     28 H16         3.4440    2.0970    1.6560 ha        1 HYQ      0.155000
     29 H19         5.8270    2.2610    2.2280 ha        1 HYQ      0.172000
     30 H21         7.3720   -2.3470    2.5800 ha        1 HYQ      0.168000
     31 H24         6.2800   -4.5410    2.3420 ha        1 HYQ      0.143000
     32 H22         3.8670   -4.7020    1.7450 ha        1 HYQ      0.140000
     33 H18         2.5260   -2.6520    1.4070 ha        1 HYQ      0.139000
     34 H2         -0.8950    0.8160    1.8150 hc        1 HYQ      0.094700
     35 H5         -1.4960   -1.3570    2.8870 hc        1 HYQ      0.076700
     36 H121       -3.0560   -0.2800    1.2290 hc        1 HYQ      0.050200
     37 H122       -3.1760   -2.0800    1.1660 hc        1 HYQ      0.050200
     38 H81        -2.5140   -0.2410   -1.0070 hc        1 HYQ      0.050200
     39 H82        -2.6260   -2.0420   -1.0660 hc        1 HYQ      0.050200
     40 H3         -0.3510   -1.2600   -1.7920 hc        1 HYQ      0.076700
     41 H71        -0.6100   -3.4500   -0.6070 hc        1 HYQ      0.050200
     42 H72         0.9680   -2.6720   -0.2030 hc        1 HYQ      0.050200
     43 H111       -1.1680   -3.4960    1.6230 hc        1 HYQ      0.050200
     44 H112        0.4130   -2.7280    2.0360 hc        1 HYQ      0.050200
@<TRIPOS>BOND
     1    1    2 1   
     2    1   20 1   
     3    1   24 1   
     4    1   27 1   
     5    2    3 2   
     6    2    4 1   
     7    4    5 1   
     8    4   18 1   
     9    5    6 ar  
    10    5   17 ar  
    11    6    7 ar  
    12    6   28 1   
    13    7    8 ar  
    14    7   29 1   
    15    8    9 1   
    16    8   12 ar  
    17    9   10 1   
    18    9   11 1   
    19   12   13 ar  
    20   12   17 ar  
    21   13   14 ar  
    22   13   30 1   
    23   14   15 ar  
    24   14   31 1   
    25   15   16 ar  
    26   15   32 1   
    27   16   17 ar  
    28   16   33 1   
    29   18   19 2   
    30   18   20 1   
    31   20   21 1   
    32   20   34 1   
    33   21   22 1   
    34   21   26 1   
    35   21   35 1   
    36   22   23 1   
    37   22   36 1   
    38   22   37 1   
    39   23   24 1   
    40   23   38 1   
    41   23   39 1   
    42   24   25 1   
    43   24   40 1   
    44   25   26 1   
    45   25   41 1   
    46   25   42 1   
    47   26   43 1   
    48   26   44 1   
@<TRIPOS>SUBSTRUCTURE
     1 HYQ         1 TEMP              0 ****  ****    0 ROOT
