@<TRIPOS>MOLECULE
HYZ
   60    55     1     0     0
SMALL
bcc


@<TRIPOS>ATOM
      1 C1          5.0190   -7.0920   -3.9480 c1        1 HYZ     -0.155000
      2 C2          5.2550   -5.7880   -4.3930 c1        1 HYZ     -0.120250
      3 C3          4.8630   -4.7000   -3.6100 c1        1 HYZ     -0.120250
      4 N6         -2.4740    5.2240   -0.1940 n3        1 HYZ     -0.349000
      5 C7          3.8560   -3.7240   -1.4990 c3        1 HYZ      0.036000
      6 C8          1.1150   -3.0830   -3.5420 c1        1 HYZ     -0.139000
      7 C9          0.7450   -2.1760   -2.5680 c1        1 HYZ     -0.118000
      8 C10         1.6460   -2.2630   -1.5550 c1        1 HYZ     -0.013000
      9 C11         1.5090   -1.4400   -0.4170 c1        1 HYZ     -0.120250
     10 C12         0.4530   -0.5430   -0.3340 c1        1 HYZ     -0.120250
     11 C13        -0.4640   -0.4570   -1.3680 c1        1 HYZ      0.022000
     12 C14        -0.3280   -1.2640   -2.4830 c1        1 HYZ     -0.039000
     13 C15        -2.0080    4.1700   -1.0710 c2        1 HYZ      0.207000
     14 C16        -1.9790    2.8710   -0.6200 c2        1 HYZ     -0.322000
     15 C19        -2.7060    2.5030    0.7040 c3        1 HYZ     -0.027000
     16 C20        -3.8160    3.4840    5.1560 c3        1 HYZ     -0.154500
     17 C21        -3.5500    3.9230    3.7250 c3        1 HYZ     -0.082000
     18 C22        -1.4350    2.6280    3.7170 c3        1 HYZ     -0.082000
     19 C24        -2.5710    3.1630    5.8850 c3        1 HYZ     -0.158000
     20 C4          4.2330   -4.9140   -2.3820 c1        1 HYZ     -0.092000
     21 C5          3.9970   -6.2140   -1.9370 c1        1 HYZ     -0.152000
     22 C6          4.3910   -7.3070   -2.7230 c1        1 HYZ      0.086000
     23 F1          4.1610   -8.5480   -2.3010 f         1 HYZ     -0.107000
     24 N1          2.5750   -3.2190   -1.8950 n2        1 HYZ     -0.154000
     25 N2          2.2400   -3.7190   -3.1180 n2        1 HYZ     -0.045000
     26 N3         -1.5300    0.4690   -1.0160 n3        1 HYZ     -0.246000
     27 N4         -1.5250    4.4730   -2.3020 n1        1 HYZ     -0.269000
     28 C17        -1.4510    1.8600   -1.4350 c2        1 HYZ      0.186000
     29 N5         -0.9830    2.1590   -2.6300 n2        1 HYZ     -0.259000
     30 C18        -1.0160    3.4990   -3.0890 c1        1 HYZ      0.038000
     31 N7         -2.3720    3.4770    1.7230 n3        1 HYZ     -0.221000
     32 N8         -2.6870    2.9590    2.9870 n3        1 HYZ     -0.187000
     33 C23        -1.6920    2.1860    5.1220 c3        1 HYZ     -0.154500
     34 H1          5.3000   -7.8720   -4.5100 ha        1 HYZ      0.150000
     35 H2          5.6850   -5.6410   -5.2330 ha        1 HYZ      0.140250
     36 H3          5.0320   -3.7810   -3.9240 ha        1 HYZ      0.140250
     37 HN6        -2.1380    6.0950   -0.2890 hn        1 HYZ      0.234000
     38 HN6A       -3.1630    5.0560    0.4070 hn        1 HYZ      0.234000
     39 H7          4.5280   -3.0190   -1.5970 h1        1 HYZ      0.114000
     40 H7A         3.8170   -4.0160   -0.5450 h1        1 HYZ      0.114000
     41 H8          0.6390   -3.2450   -4.4080 DU        1 HYZ      0.186000
     42 H11         2.1480   -1.5010    0.3010 ha        1 HYZ      0.140250
     43 H12         0.3590    0.0120    0.4310 ha        1 HYZ      0.140250
     44 H14        -0.9540   -1.2040   -3.1880 ha        1 HYZ      0.161000
     45 H19        -2.4220    1.6100    0.9990 h1        1 HYZ      0.095500
     46 H19A       -3.6460    2.5060    0.5590 h1        1 HYZ      0.095500
     47 H20        -4.2900    4.2190    5.6350 hc        1 HYZ      0.089000
     48 H20A       -4.4040    2.6710    5.1430 hc        1 HYZ      0.089000
     49 H21        -3.1010    4.8170    3.7380 h1        1 HYZ      0.072750
     50 H21A       -4.4180    4.0070    3.2480 h1        1 HYZ      0.072750
     51 H22        -0.8790    3.3980    3.7370 h1        1 HYZ      0.072750
     52 H22A       -0.9680    1.9110    3.2380 h1        1 HYZ      0.072750
     53 H24        -2.8050    2.7670    6.7530 hc        1 HYZ      0.081500
     54 H24A       -2.0480    4.0280    6.0460 hc        1 HYZ      0.081500
     55 H5          3.5520   -6.3650   -1.0700 ha        1 HYZ      0.146000
     56 HN3        -2.2190    0.1910   -0.4750 hn        1 HYZ      0.218000
     57 H18        -0.6690    3.7210   -3.9770 ha        1 HYZ      0.188000
     58 HN7        -1.4600    3.6640    1.6830 hn        1 HYZ      0.126000
     59 H23        -2.1490    1.2820    5.1020 hc        1 HYZ      0.089000
     60 H23A       -0.7980    2.0950    5.6080 hc        1 HYZ      0.089000
@<TRIPOS>BOND
     1    1   22 1   
     2    1   34 1   
     3    2    3 1   
     4    2   35 1   
     5    3   36 1   
     6    4   13 1   
     7    4   37 1   
     8    4   38 1   
     9    5   20 1   
    10    5   24 1   
    11    5   39 1   
    12    5   40 1   
    13    6    7 1   
    14    6   25 1   
    15    7    8 1   
    16    9   10 1   
    17    9   42 1   
    18   10   43 1   
    19   11   12 1   
    20   11   26 1   
    21   12   44 1   
    22   13   14 1   
    23   13   27 1   
    24   14   15 1   
    25   14   28 1   
    26   15   31 1   
    27   15   45 1   
    28   15   46 1   
    29   16   17 1   
    30   16   19 1   
    31   16   47 1   
    32   16   48 1   
    33   17   32 1   
    34   17   49 1   
    35   17   50 1   
    36   18   32 1   
    37   18   33 1   
    38   18   51 1   
    39   18   52 1   
    40   19   33 1   
    41   19   53 1   
    42   19   54 1   
    43   20   21 1   
    44   21   55 1   
    45   22   23 1   
    46   24   25 1   
    47   26   28 1   
    48   26   56 1   
    49   28   29 1   
    50   29   30 1   
    51   30   57 1   
    52   31   32 1   
    53   31   58 1   
    54   33   59 1   
    55   33   60 1   
@<TRIPOS>SUBSTRUCTURE
     1 HYZ         1 TEMP              0 ****  ****    0 ROOT
