@<TRIPOS>MOLECULE
HYZ
   61    58     1     0     0
SMALL
bcc


@<TRIPOS>ATOM
      1 C1          2.8380    0.2580   -0.4130 c1        1 HYZ     -0.079800
      2 C2          3.6520   -0.0780    0.5750 c2        1 HYZ     -0.138300
      3 C3          3.1140    0.3200    1.9210 c3        1 HYZ     -0.032000
      4 C8          2.1530    2.2200    5.7060 cc        1 HYZ      0.334200
      5 C9          0.9070    2.8910    5.3540 cc        1 HYZ     -0.285100
      6 C10         0.3220    2.0420    4.3870 cd        1 HYZ     -0.074300
      7 C11        -2.4300    3.9770    3.8580 c1        1 HYZ     -0.108500
      8 C12        -1.6190    4.3520    4.6570 ch        1 HYZ     -0.194300
      9 C13        -0.6650    4.8050    5.5990 cf        1 HYZ      0.014200
     10 C14         0.4720    4.1190    5.9140 ce        1 HYZ      0.021800
     11 C15         0.0750    9.6410    6.2630 ce        1 HYZ      0.503600
     12 C16        -0.7340    8.4520    6.5120 cf        1 HYZ     -0.395300
     13 C19        -1.9150    8.5300    7.2600 ch        1 HYZ      0.339500
     14 C20        -4.6840    5.3360   13.1210 c3        1 HYZ     -0.057000
     15 C21        -4.5400    3.0080   10.0160 c3        1 HYZ     -0.115800
     16 C22        -5.0960    8.8580    9.3780 c1        1 HYZ      0.663300
     17 C24        -4.0560    6.6170   13.1000 c1        1 HYZ     -0.091100
     18 C4          1.6120    0.1330    1.9280 c2        1 HYZ     -0.127400
     19 C5          0.8500    0.1620    0.8080 ce        1 HYZ     -0.134000
     20 C6          1.5330    0.5560   -0.4480 ce        1 HYZ      0.123400
     21 F1          0.8550    1.2260   -1.3890 f         1 HYZ     -0.133500
     22 N1          1.1850    0.9610    4.2280 na        1 HYZ      0.095400
     23 N2          2.2850    1.0750    5.0030 nd        1 HYZ     -0.496800
     24 N4          1.2440    9.5520    5.5520 ne        1 HYZ     -0.659000
     25 C17        -0.2760    7.1980    5.9830 cf        1 HYZ      0.441100
     26 N5          0.9080    7.2060    5.2680 nh        1 HYZ     -0.324500
     27 C18         1.6450    8.3770    5.0730 c1        1 HYZ      0.257400
     28 N7         -2.8930    8.6100    7.8930 n1        1 HYZ     -0.592800
     29 N8         -4.6450    8.3570   10.3150 n1        1 HYZ     -0.569200
     30 C23        -3.5230    7.6940   13.0880 c1        1 HYZ     -0.234500
     31 H1          4.5630   -0.6790    0.5000 ha        1 HYZ      0.165000
     32 H2          3.3510    1.3810    2.1990 hc        1 HYZ      0.089200
     33 H3          3.5820   -0.3450    2.6960 hc        1 HYZ      0.089200
     34 HN6        -1.1910   10.9330    7.2310 hn        1 HYZ      0.448300
     35 HN6A        0.2040   11.6670    6.5720 hn        1 HYZ      0.448300
     36 H7          1.4230   -1.0660    3.6980 h1        1 HYZ      0.083700
     37 H7A        -0.1290   -0.2540    3.1600 h1        1 HYZ      0.083700
     38 H8          2.9030    2.5520    6.4270 h4        1 HYZ      0.055100
     39 H11        -0.6160    2.1360    3.8370 h4        1 HYZ      0.190000
     40 H12        -3.1420    3.6460    3.1430 ha        1 HYZ      0.179500
     41 H14         1.1610    4.5380    6.6770 ha        1 HYZ      0.148000
     42 H19        -3.4270    4.7720    8.1030 ha        1 HYZ      0.001000
     43 H19A       -3.4360    5.4470    8.0490 ha        1 HYZ      0.001000
     44 H20        -4.1180    1.9970   10.2070 hc        1 HYZ      0.029200
     45 H20A       -4.4650    4.7630   12.1790 hc        1 HYZ      0.078367
     46 H21        -3.7590    3.7770   10.2120 hc        1 HYZ      0.029200
     47 H21A       -4.2960    4.7390   13.9910 hc        1 HYZ      0.078367
     48 H22        -2.9430    6.0410   10.8220 ha        1 HYZ      0.001000
     49 H22A       -5.4100    3.1770   10.6880 hc        1 HYZ      0.029200
     50 H24        -5.7950    5.4350   13.2340 hc        1 HYZ      0.078367
     51 H24A       -3.0110    8.6200   13.1880 ha        1 HYZ      0.182500
     52 H5         -0.2360    0.0120    0.7940 ha        1 HYZ      0.150000
     53 HN3        -1.9230    6.1290    6.5550 hn        1 HYZ      0.289700
     54 H18         1.2560    6.3630    4.8590 hn        1 HYZ      0.318700
     55 HN7        -4.8690    3.0760    8.9560 hc        1 HYZ      0.029200
     56 H23        -2.6970    5.7820   10.2450 ha        1 HYZ      0.001000
     57 H23A       -5.5050    9.3250    8.4850 ha        1 HYZ      0.294500
     58 C7          0.9860   -0.1160    3.2680 c3        1 HYZ      0.090500
     59 H72        -4.2340    7.9220   11.1240 hn        1 HYZ      0.569400
     60 N3         -0.9740    6.0320    6.2610 nh        1 HYZ     -0.335300
     61 N6         -0.3330   10.8500    6.7500 nh        1 HYZ     -0.841600
@<TRIPOS>BOND
     1    1    2 2   
     2    1   20 2   
     3    2    3 1   
     4    2   31 1   
     5    3   18 1   
     6    3   32 1   
     7    3   33 1   
     8    4    5 1   
     9    4   23 2   
    10    4   38 1   
    11    5    6 2   
    12    5   10 1   
    13    6   22 1   
    14    6   39 1   
    15    7    8 3   
    16    7   40 1   
    17    8    9 1   
    18    9   10 2   
    19    9   60 1   
    20   10   41 1   
    21   11   12 2   
    22   11   24 1   
    23   11   61 1   
    24   12   13 1   
    25   12   25 1   
    26   13   28 3   
    27   14   17 1   
    28   14   45 1   
    29   14   47 1   
    30   14   50 1   
    31   15   44 1   
    32   15   46 1   
    33   15   49 1   
    34   15   55 1   
    35   16   29 3   
    36   16   57 1   
    37   17   30 3   
    38   18   19 2   
    39   18   58 1   
    40   19   20 1   
    41   19   52 1   
    42   20   21 1   
    43   22   23 1   
    44   22   58 1   
    45   24   27 2   
    46   25   26 1   
    47   25   60 2   
    48   26   27 2   
    49   26   54 1   
    50   29   59 1   
    51   30   51 1   
    52   34   61 1   
    53   35   61 1   
    54   36   58 1   
    55   37   58 1   
    56   42   43 1   
    57   48   56 1   
    58   53   60 1   
@<TRIPOS>SUBSTRUCTURE
     1 HYZ         1 TEMP              0 ****  ****    0 ROOT
