@<TRIPOS>MOLECULE
HYZ
   61    61     1     0     0
SMALL
bcc


@<TRIPOS>ATOM
      1 C1          1.3910    0.2190   -0.2420 c2        1 HYZ     -0.250000
      2 C2          2.5190   -0.1700    0.5170 c1        1 HYZ     -0.064000
      3 C3          2.4060   -0.2760    1.9650 c3        1 HYZ     -0.206000
      4 C8          2.8030    2.5940    5.5720 c2        1 HYZ     -0.134000
      5 C9          1.4750    3.1790    5.7090 ca        1 HYZ     -0.132000
      6 C10         0.5900    2.1650    5.1730 ca        1 HYZ      0.019000
      7 C11        -0.7980    2.3740    5.1470 ca        1 HYZ     -0.116000
      8 C12        -1.2870    3.5700    5.6370 ca        1 HYZ     -0.092000
      9 C13        -0.4200    4.5710    6.1610 ca        1 HYZ     -0.075000
     10 C14         0.9690    4.3720    6.2050 ca        1 HYZ     -0.052000
     11 C15        -0.9550    9.5160    6.1620 c2        1 HYZ      0.286000
     12 C16        -1.2350    8.2100    6.8290 c2        1 HYZ     -0.225000
     13 C19        -1.9190    8.1390    7.9770 c1        1 HYZ      0.050000
     14 C20        -3.1330    5.2100    8.8070 c1        1 HYZ      0.081000
     15 C21        -5.4460    4.8770    9.6130 c3        1 HYZ     -0.158000
     16 C22        -3.8120    7.5470   10.9450 c3        1 HYZ     -0.077000
     17 C24        -4.0440    5.3570    9.7510 c2        1 HYZ     -0.345000
     18 C4          1.0900    0.0390    2.5740 c2        1 HYZ     -0.088000
     19 C5          0.0360    0.4000    1.8090 c2        1 HYZ     -0.186000
     20 C6          0.1820    0.4900    0.3610 c2        1 HYZ      0.184000
     21 F1         -0.9110    0.8500   -0.3380 f         1 HYZ     -0.085000
     22 N1          1.4080    1.0850    4.8030 na        1 HYZ     -0.143000
     23 N2          2.7120    1.3740    5.0170 n2        1 HYZ     -0.009000
     24 N4         -0.0990    9.5740    5.1040 n2        1 HYZ     -0.304000
     25 C17        -0.6790    6.9920    6.1920 c2        1 HYZ      0.273000
     26 N5          0.1740    7.1950    5.1260 n7        1 HYZ     -0.257000
     27 C18         0.4550    8.4680    4.6090 c1        1 HYZ      0.109000
     28 N7         -2.7480    8.0600    8.8810 n2        1 HYZ      0.008000
     29 N8         -2.7240    8.2030   10.2020 n7        1 HYZ     -0.154000
     30 C23        -3.7240    6.0260   11.0500 c3        1 HYZ     -0.136000
     31 H1          1.5000    0.2950   -1.3360 ha        1 HYZ      0.172000
     32 H2          3.2070    0.3900    2.4100 hc        1 HYZ      0.177500
     33 H3          2.7120   -1.3330    2.2370 hc        1 HYZ      0.177500
     34 HN6        -2.1920   10.5920    7.3930 hn        1 HYZ      0.263000
     35 HN6A       -1.3780   11.5180    6.2070 hn        1 HYZ      0.263000
     36 H7          1.5670   -0.9730    4.4130 h1        1 HYZ      0.124500
     37 H7A        -0.1190   -0.2540    4.3500 h1        1 HYZ      0.124500
     38 H8          3.7590    3.0360    5.8620 h4        1 HYZ      0.203000
     39 H11        -1.4810    1.6110    4.7440 ha        1 HYZ      0.158000
     40 H12        -2.3750    3.7480    5.6200 ha        1 HYZ      0.150000
     41 H14         1.6530    5.1250    6.6260 ha        1 HYZ      0.154000
     42 H19        -0.6170    6.6790   11.8460 ha        1 HYZ      0.007000
     43 H19A       -0.3450    7.0790   12.3210 ha        1 HYZ      0.007000
     44 H20        -6.1530    5.7200    9.8190 hc        1 HYZ      0.103333
     45 H20A       -1.0430    5.7720    9.8210 ha        1 HYZ      0.007000
     46 H21        -1.8210    7.9750   10.6190 hn        1 HYZ      0.200000
     47 H21A       -0.9080    5.1050    9.8000 ha        1 HYZ      0.007000
     48 H22        -4.8040    7.8400   10.4970 h1        1 HYZ      0.143000
     49 H22A       -5.6350    4.0600   10.3550 hc        1 HYZ      0.103333
     50 H24        -5.6520    4.4810    8.5880 hc        1 HYZ      0.103333
     51 H24A       -4.4660    5.6930   11.8280 hc        1 HYZ      0.122000
     52 H5         -0.9540    0.6330    2.2310 ha        1 HYZ      0.144000
     53 HN3        -1.7100    5.6510    7.3940 hn        1 HYZ      0.304000
     54 H18         0.5900    6.4120    4.6580 hn        1 HYZ      0.283000
     55 HN7        -4.1460    4.5230    6.8790 ha        1 HYZ      0.007000
     56 H23        -2.7060    5.7120   11.4120 hc        1 HYZ      0.122000
     57 H23A       -3.7390    8.0000   11.9770 h1        1 HYZ      0.143000
     58 C7          0.9600   -0.0860    4.0650 c3        1 HYZ      0.024000
     59 H72        -4.0560    3.9050    7.1510 ha        1 HYZ      0.007000
     60 N3         -0.9930    5.7680    6.6830 nu        1 HYZ     -0.220000
     61 N6         -1.5540   10.6330    6.6350 n8        1 HYZ     -0.305000
@<TRIPOS>BOND
     1    1    2 1   
     2    1   20 1   
     3    1   31 1   
     4    2    3 1   
     5    3   18 1   
     6    3   32 1   
     7    3   33 1   
     8    4    5 1   
     9    4   23 1   
    10    4   38 1   
    11    5    6 1   
    12    5   10 1   
    13    6    7 1   
    14    6   22 1   
    15    7    8 1   
    16    7   39 1   
    17    8    9 1   
    18    8   40 1   
    19    9   10 1   
    20    9   60 1   
    21   10   41 1   
    22   11   12 1   
    23   11   24 1   
    24   11   61 1   
    25   12   13 1   
    26   12   25 1   
    27   13   28 1   
    28   14   17 1   
    29   15   17 1   
    30   15   44 1   
    31   15   49 1   
    32   15   50 1   
    33   16   29 1   
    34   16   30 1   
    35   16   48 1   
    36   16   57 1   
    37   17   30 1   
    38   18   19 1   
    39   18   58 1   
    40   19   20 1   
    41   19   52 1   
    42   20   21 1   
    43   22   23 1   
    44   22   58 1   
    45   24   27 1   
    46   25   26 1   
    47   25   60 1   
    48   26   27 1   
    49   26   54 1   
    50   28   29 1   
    51   29   46 1   
    52   30   51 1   
    53   30   56 1   
    54   34   61 1   
    55   35   61 1   
    56   36   58 1   
    57   37   58 1   
    58   42   43 1   
    59   45   47 1   
    60   53   60 1   
    61   55   59 1   
@<TRIPOS>SUBSTRUCTURE
     1 HYZ         1 TEMP              0 ****  ****    0 ROOT
