@<TRIPOS>MOLECULE
HYZ
   60    64     1     0     0
SMALL
bcc


@<TRIPOS>ATOM
      1 C1         -6.9320   -0.9180    2.2990 ca        1 HYZ     -0.155000
      2 C2         -7.2490    0.1230    1.4310 ca        1 HYZ     -0.108000
      3 C3         -6.6870    0.1830    0.1570 ca        1 HYZ     -0.117000
      4 C8         -3.4840    2.3480   -1.8090 cc        1 HYZ      0.361800
      5 C9         -2.3310    1.5040   -1.5030 ca        1 HYZ     -0.202900
      6 C10        -2.8700    0.1670   -1.5190 ca        1 HYZ     -0.059200
      7 C11        -2.0410   -0.9340   -1.2760 ca        1 HYZ     -0.123000
      8 C12        -0.7040   -0.6920   -1.0100 ca        1 HYZ     -0.130000
      9 C13        -0.1590    0.6240   -0.9980 ca        1 HYZ      0.105600
     10 C14        -0.9850    1.7320   -1.2550 ca        1 HYZ     -0.044000
     11 C15         3.7040    2.4070    1.4650 ca        1 HYZ      0.694200
     12 C16         3.1990    1.5890    0.4050 ca        1 HYZ     -0.450900
     13 C19         4.1010    0.7460   -0.4340 c3        1 HYZ      0.224100
     14 C20         6.1110   -3.5030   -1.3070 c3        1 HYZ     -0.075900
     15 C21         4.9380   -2.7610   -0.6720 c3        1 HYZ      0.155800
     16 C22         6.4610   -1.2610    0.4760 c3        1 HYZ      0.155800
     17 C24         7.3490   -3.4160   -0.4420 c3        1 HYZ     -0.079400
     18 C4         -5.7930   -0.8070   -0.2620 ca        1 HYZ     -0.098300
     19 C5         -5.4570   -1.8570    0.5940 ca        1 HYZ     -0.151000
     20 C6         -6.0320   -1.9140    1.8760 ca        1 HYZ      0.120900
     21 F1         -5.7130   -2.9340    2.7100 f         1 HYZ     -0.140900
     22 N1         -4.2360    0.2860   -1.8830 na        1 HYZ      0.089900
     23 N2         -4.5800    1.5950   -1.9820 nd        1 HYZ     -0.514100
     24 N4          2.8770    3.2680    2.1580 nb        1 HYZ     -0.789000
     25 C17         1.7800    1.6080    0.1820 ca        1 HYZ      0.722200
     26 N5          0.9630    2.4570    0.8940 nb        1 HYZ     -0.780000
     27 C18         1.5730    3.2320    1.8160 ca        1 HYZ      0.699900
     28 N7          4.1550   -0.6460    0.0570 n3        1 HYZ     -0.582000
     29 N8          5.2660   -1.3470   -0.3920 n3        1 HYZ     -0.507400
     30 C23         7.6690   -1.9710   -0.1270 c3        1 HYZ     -0.075900
     31 H1         -7.3720   -0.9730    3.3050 ha        1 HYZ      0.149000
     32 H2         -7.9500    0.9060    1.7570 ha        1 HYZ      0.140000
     33 H3         -6.9430    1.0120   -0.5210 ha        1 HYZ      0.153000
     34 HN6         5.6820    2.0140    1.1920 hn        1 HYZ      0.415800
     35 HN6A        5.3580    3.0050    2.5060 hn        1 HYZ      0.415800
     36 H7         -4.6940   -1.7360   -1.8790 h1        1 HYZ      0.073700
     37 H7A        -6.0560   -0.6190   -2.3850 h1        1 HYZ      0.073700
     38 H8         -3.4960    3.4350   -1.9020 h4        1 HYZ      0.055800
     39 H11        -2.4360   -1.9590   -1.2840 ha        1 HYZ      0.138000
     40 H12        -0.0460   -1.5520   -0.8040 ha        1 HYZ      0.136000
     41 H14        -0.5880    2.7580   -1.2590 ha        1 HYZ      0.159000
     42 H19         3.7310    0.6990   -1.4990 h1        1 HYZ      0.048200
     43 H19A        5.1210    1.2260   -0.5150 h1        1 HYZ      0.048200
     44 H20         5.8120   -4.5740   -1.4440 hc        1 HYZ      0.048450
     45 H20A        6.3280   -3.0750   -2.3200 hc        1 HYZ      0.048450
     46 H21         4.0690   -2.7830   -1.3890 h1        1 HYZ      0.034700
     47 H21A        4.6270   -3.3110    0.2640 h1        1 HYZ      0.034700
     48 H22         6.7150   -0.1710    0.6090 h1        1 HYZ      0.034700
     49 H22A        6.2650   -1.6940    1.5010 h1        1 HYZ      0.034700
     50 H24         7.1840   -3.9820    0.5120 hc        1 HYZ      0.041200
     51 H24A        8.2170   -3.8910   -0.9690 hc        1 HYZ      0.041200
     52 H5         -4.7480   -2.6380    0.2820 ha        1 HYZ      0.146000
     53 HN3         1.7750   -0.0330   -1.0120 hn        1 HYZ      0.448800
     54 H18         0.9080    3.9270    2.3750 h5        1 HYZ      0.052100
     55 HN7         4.1200   -0.6260    1.0720 hn        1 HYZ      0.342800
     56 H23         7.9920   -1.4430   -1.0620 hc        1 HYZ      0.048450
     57 H23A        8.5140   -1.9130    0.6070 hc        1 HYZ      0.048450
     58 C7         -5.2130   -0.7610   -1.6470 c3        1 HYZ      0.102600
     59 N3          1.2350    0.7820   -0.8040 nh        1 HYZ     -0.725300
     60 N6          5.0290    2.3000    1.8830 nh        1 HYZ     -0.935500
@<TRIPOS>BOND
     1    1    2 ar  
     2    1   20 ar  
     3    1   31 1   
     4    2    3 ar  
     5    2   32 1   
     6    3   18 ar  
     7    3   33 1   
     8    4    5 1   
     9    4   23 2   
    10    4   38 1   
    11    5    6 ar  
    12    5   10 ar  
    13    6    7 ar  
    14    6   22 1   
    15    7    8 ar  
    16    7   39 1   
    17    8    9 ar  
    18    8   40 1   
    19    9   10 ar  
    20    9   59 1   
    21   10   41 1   
    22   11   12 ar  
    23   11   24 ar  
    24   11   60 1   
    25   12   13 1   
    26   12   25 ar  
    27   13   28 1   
    28   13   42 1   
    29   13   43 1   
    30   14   15 1   
    31   14   17 1   
    32   14   44 1   
    33   14   45 1   
    34   15   29 1   
    35   15   46 1   
    36   15   47 1   
    37   16   29 1   
    38   16   30 1   
    39   16   48 1   
    40   16   49 1   
    41   17   30 1   
    42   17   50 1   
    43   17   51 1   
    44   18   19 ar  
    45   18   58 1   
    46   19   20 ar  
    47   19   52 1   
    48   20   21 1   
    49   22   23 1   
    50   22   58 1   
    51   24   27 ar  
    52   25   26 ar  
    53   25   59 1   
    54   26   27 ar  
    55   27   54 1   
    56   28   29 1   
    57   28   55 1   
    58   30   56 1   
    59   30   57 1   
    60   34   60 1   
    61   35   60 1   
    62   36   58 1   
    63   37   58 1   
    64   53   59 1   
@<TRIPOS>SUBSTRUCTURE
     1 HYZ         1 TEMP              0 ****  ****    0 ROOT
