@<TRIPOS>MOLECULE
HZ3
   47    50     1     0     0
SMALL
bcc


@<TRIPOS>ATOM
      1 CAK        -0.6160   -3.0040    0.0480 ca        1 HZ3     -0.075000
      2 CAG        -1.4520   -4.0490    0.4140 ca        1 HZ3     -0.189250
      3 CAV        -2.8450   -3.8650    0.3570 ca        1 HZ3      0.135100
      4 OAC        -3.6210   -4.9370    0.7280 oh        1 HZ3     -0.494100
      5 CAH        -3.3890   -2.6420   -0.0580 ca        1 HZ3     -0.189250
      6 CAL        -2.5360   -1.6030   -0.4150 ca        1 HZ3     -0.075000
      7 CAX        -1.1430   -1.7680   -0.3700 ca        1 HZ3     -0.082800
      8 CAR        -0.2610   -0.7040   -0.7690 ce        1 HZ3     -0.066900
      9 CBB         1.1360   -0.9860   -1.3740 c3        1 HZ3      0.202500
     10 OAQ         1.2110    0.1180   -2.3440 os        1 HZ3     -0.396600
     11 CAT         2.1500   -0.4590   -0.3280 ce        1 HZ3     -0.106400
     12 CAZ         3.0680   -1.3110    0.4090 c         1 HZ3      0.652800
     13 OAO         2.7010   -2.6350    0.4060 os        1 HZ3     -0.437400
     14 CAA         3.5660   -3.5330    1.1070 c3        1 HZ3      0.126200
     15 OAE         4.1120   -1.0040    0.9880 o         1 HZ3     -0.503500
     16 CAU         2.0020    0.8920   -0.3270 cf        1 HZ3     -0.106400
     17 CBA         2.6350    1.9310    0.4760 c         1 HZ3      0.652800
     18 OAP         3.0590    2.9980   -0.2730 os        1 HZ3     -0.437400
     19 CAB         3.7070    4.0540    0.4400 c3        1 HZ3      0.126200
     20 OAF         2.7940    1.9730    1.6960 o         1 HZ3     -0.503500
     21 CBC         0.9180    1.1970   -1.3890 c3        1 HZ3      0.202500
     22 CAS        -0.3940    0.6570   -0.7740 cf        1 HZ3     -0.066900
     23 CAY        -1.4360    1.5420   -0.3200 ca        1 HZ3     -0.082800
     24 CAM        -1.7710    2.6820   -1.0720 ca        1 HZ3     -0.075000
     25 CAI        -2.7560    3.5580   -0.6380 ca        1 HZ3     -0.189250
     26 CAW        -3.4160    3.2990    0.5760 ca        1 HZ3      0.135100
     27 OAD        -4.3780    4.2040    0.9560 oh        1 HZ3     -0.494100
     28 CAJ        -3.0950    2.1670    1.3390 ca        1 HZ3     -0.189250
     29 CAN        -2.1110    1.2960    0.8850 ca        1 HZ3     -0.075000
     30 HAK         0.4790   -3.1400    0.0930 ha        1 HZ3      0.147000
     31 HAG        -1.0460   -5.0150    0.7460 ha        1 HZ3      0.145500
     32 HOAC       -4.5500   -4.6810    0.6320 ho        1 HZ3      0.421500
     33 HAH        -4.4790   -2.5050   -0.1030 ha        1 HZ3      0.145500
     34 HAL        -2.9560   -0.6360   -0.7400 ha        1 HZ3      0.147000
     35 HBB         1.3320   -1.9570   -1.8540 h1        1 HZ3      0.129700
     36 HAA1        3.0670   -4.5250    0.9820 h1        1 HZ3      0.055200
     37 HAA2        4.5810   -3.5210    0.6420 h1        1 HZ3      0.055200
     38 HAA3        3.6320   -3.2370    2.1810 h1        1 HZ3      0.055200
     39 HAB1        3.9850    4.7790   -0.3640 h1        1 HZ3      0.055200
     40 HAB2        2.9980    4.5050    1.1750 h1        1 HZ3      0.055200
     41 HAB3        4.6090    3.6600    0.9680 h1        1 HZ3      0.055200
     42 HBC         0.9350    2.1820   -1.8810 h1        1 HZ3      0.129700
     43 HAM        -1.2520    2.8780   -2.0230 ha        1 HZ3      0.147000
     44 HAI        -3.0260    4.4490   -1.2230 ha        1 HZ3      0.145500
     45 HOAD       -4.7360    3.9210    1.8100 ho        1 HZ3      0.421500
     46 HAJ        -3.6130    1.9730    2.2880 ha        1 HZ3      0.145500
     47 HAN        -1.8550    0.4020    1.4770 ha        1 HZ3      0.147000
@<TRIPOS>BOND
     1    1    2 ar  
     2    1    7 ar  
     3    1   30 1   
     4    2    3 ar  
     5    2   31 1   
     6    3    4 1   
     7    3    5 ar  
     8    4   32 1   
     9    5    6 ar  
    10    5   33 1   
    11    6    7 ar  
    12    6   34 1   
    13    7    8 1   
    14    8    9 1   
    15    8   22 2   
    16    9   10 1   
    17    9   11 1   
    18    9   35 1   
    19   10   21 1   
    20   11   12 1   
    21   11   16 2   
    22   12   13 1   
    23   12   15 2   
    24   13   14 1   
    25   14   36 1   
    26   14   37 1   
    27   14   38 1   
    28   16   17 1   
    29   16   21 1   
    30   17   18 1   
    31   17   20 2   
    32   18   19 1   
    33   19   39 1   
    34   19   40 1   
    35   19   41 1   
    36   21   22 1   
    37   21   42 1   
    38   22   23 1   
    39   23   24 ar  
    40   23   29 ar  
    41   24   25 ar  
    42   24   43 1   
    43   25   26 ar  
    44   25   44 1   
    45   26   27 1   
    46   26   28 ar  
    47   27   45 1   
    48   28   29 ar  
    49   28   46 1   
    50   29   47 1   
@<TRIPOS>SUBSTRUCTURE
     1 HZ3         1 TEMP              0 ****  ****    0 ROOT
