@<TRIPOS>MOLECULE
HZ3
   47    40     1     0     0
SMALL
bcc


@<TRIPOS>ATOM
      1 CAK         2.3550   -0.5480   -2.3440 c1        1 HZ3     -0.079000
      2 CAG         3.7410   -0.5670   -2.3460 c1        1 HZ3     -0.191000
      3 CAV         4.4380   -0.4050   -1.1590 c1        1 HZ3      0.089500
      4 OAC         5.8410   -0.5050   -1.1490 oh        1 HZ3     -0.248000
      5 CAH         3.7490   -0.2250    0.0310 c1        1 HZ3     -0.143500
      6 CAL         2.3630   -0.2070    0.0320 c1        1 HZ3     -0.143500
      7 CAX         1.6650   -0.3680   -1.1550 c1        1 HZ3     -0.068000
      8 CAR         0.1550   -0.4630   -1.1360 c1        1 HZ3     -0.085000
      9 CBB        -0.6620    0.5230   -1.8920 c2        1 HZ3      0.083000
     10 OAQ        -1.7560    0.0300   -1.7400 os        1 HZ3     -0.253000
     11 CAT        -0.7770    1.7210   -0.9160 c1        1 HZ3     -0.075000
     12 CAZ        -1.1560    3.0890   -1.4410 c1        1 HZ3      0.357000
     13 OAO        -2.4340    3.3020   -1.9880 o         1 HZ3     -0.271000
     14 CAA        -2.6510    4.6210   -2.4350 c3        1 HZ3     -0.063000
     15 OAE        -0.3530    3.9980   -1.4010 o         1 HZ3     -0.321000
     16 CAU        -1.3390    1.2500    0.2570 c1        1 HZ3     -0.092000
     17 CBA        -0.8850    1.8040    1.5900 c1        1 HZ3      0.361000
     18 OAP        -1.4500    2.9910    2.0870 os        1 HZ3     -0.253000
     19 CAB        -1.4700    3.0670    3.4950 c3        1 HZ3     -0.063000
     20 OAF        -0.0100    1.2390    2.2160 o         1 HZ3     -0.347000
     21 CBC        -1.5150   -0.0360    0.1100 c3        1 HZ3      0.081000
     22 CAS        -0.5250   -0.7400    0.0800 c2        1 HZ3     -0.063000
     23 CAY        -0.5890   -2.1570    0.6030 c2        1 HZ3     -0.078000
     24 CAM        -0.4330   -2.4010    1.9590 c2        1 HZ3     -0.080000
     25 CAI        -0.5960   -3.6840    2.4560 c1        1 HZ3     -0.158000
     26 CAW        -0.9150   -4.7240    1.5970 c1        1 HZ3      0.089500
     27 OAD        -1.0700   -6.0290    2.1000 oh        1 HZ3     -0.248000
     28 CAJ        -1.0710   -4.4810    0.2420 c1        1 HZ3     -0.191000
     29 CAN        -0.9080   -3.1980   -0.2550 c1        1 HZ3     -0.069000
     30 HAK         1.8640   -0.6620   -3.1800 ha        1 HZ3      0.139000
     31 HAG         4.2260   -0.6940   -3.1830 ha        1 HZ3      0.145000
     32 HOAC        6.1950    0.3030   -1.0380 ho        1 HZ3      0.220000
     33 HAH         4.2400   -0.1120    0.8670 ha        1 HZ3      0.143500
     34 HAL         1.8770   -0.0800    0.8700 ha        1 HZ3      0.143500
     35 HBB        -0.3900    0.7180   -2.8110 h4        1 HZ3      0.170000
     36 HAA1       -2.0710    4.8040   -3.2050 h1        1 HZ3      0.093667
     37 HAA2       -2.4420    5.2500   -1.7110 h1        1 HZ3      0.093667
     38 HAA3       -3.5910    4.7270   -2.7000 h1        1 HZ3      0.093667
     39 HAB1       -0.6150    3.4270    3.8150 h1        1 HZ3      0.095000
     40 HAB2       -1.6090    2.1710    3.8690 h1        1 HZ3      0.095000
     41 HAB3       -2.2010    3.6580    3.7800 h1        1 HZ3      0.095000
     42 HBC        -2.2830   -0.4120    0.5870 h1        1 HZ3      0.169000
     43 HAM        -0.2090   -1.6680    2.5640 ha        1 HZ3      0.163000
     44 HAI        -0.4860   -3.8560    3.4110 ha        1 HZ3      0.156000
     45 HOAD       -1.9350   -6.2300    2.1410 ho        1 HZ3      0.220000
     46 HAJ        -1.2950   -5.2140   -0.3630 ha        1 HZ3      0.145000
     47 HAN        -1.0180   -3.0260   -1.2100 ha        1 HZ3      0.145000
@<TRIPOS>BOND
     1    1    7 1   
     2    1   30 1   
     3    2    3 1   
     4    2   31 1   
     5    3    4 1   
     6    4   32 1   
     7    5    6 1   
     8    5   33 1   
     9    6   34 1   
    10    8   22 1   
    11    9   10 1   
    12    9   11 1   
    13    9   35 1   
    14   10   21 1   
    15   11   16 1   
    16   12   15 1   
    17   13   14 1   
    18   14   36 1   
    19   14   37 1   
    20   14   38 1   
    21   16   21 1   
    22   17   18 1   
    23   17   20 1   
    24   18   19 1   
    25   19   39 1   
    26   19   40 1   
    27   19   41 1   
    28   21   22 1   
    29   21   42 1   
    30   22   23 1   
    31   23   24 1   
    32   23   29 1   
    33   24   25 1   
    34   24   43 1   
    35   25   44 1   
    36   26   27 1   
    37   26   28 1   
    38   27   45 1   
    39   28   46 1   
    40   29   47 1   
@<TRIPOS>SUBSTRUCTURE
     1 HZ3         1 TEMP              0 ****  ****    0 ROOT
