@<TRIPOS>MOLECULE
HZ3
   47    50     1     0     0
SMALL
bcc


@<TRIPOS>ATOM
      1 CAK        -0.0570   -0.8950    0.0310 ca        1 HZ3     -0.075000
      2 CAG         1.3140   -1.1060   -0.0110 ca        1 HZ3     -0.189250
      3 CAV         2.1240   -0.5540    0.9970 ca        1 HZ3      0.135100
      4 OAC         3.4730   -0.8010    0.9050 oh        1 HZ3     -0.494100
      5 CAH         1.5610    0.2060    2.0320 ca        1 HZ3     -0.189250
      6 CAL         0.1860    0.4130    2.0550 ca        1 HZ3     -0.075000
      7 CAX        -0.6400   -0.1330    1.0600 ca        1 HZ3     -0.082800
      8 CAR        -2.0660    0.0550    1.1000 ce        1 HZ3     -0.066900
      9 CBB        -3.0440   -0.9910    0.5100 c3        1 HZ3      0.202500
     10 OAQ        -4.1430   -0.8750    1.4820 os        1 HZ3     -0.396600
     11 CAT        -3.7130   -0.2910   -0.6980 ce        1 HZ3     -0.106400
     12 CAZ        -3.5340   -0.7110   -2.0780 c         1 HZ3      0.652800
     13 OAO        -2.4300   -1.5080   -2.2630 os        1 HZ3     -0.437400
     14 CAA        -2.1970   -1.9650   -3.5970 c3        1 HZ3      0.126200
     15 OAE        -4.2420   -0.4720   -3.0580 o         1 HZ3     -0.503500
     16 CAU        -4.4850    0.6940   -0.1670 cf        1 HZ3     -0.106400
     17 CBA        -5.3100    1.7190   -0.7950 c         1 HZ3      0.652800
     18 OAP        -6.5470    1.8340   -0.2150 os        1 HZ3     -0.437400
     19 CAB        -7.4240    2.8080   -0.7870 c3        1 HZ3      0.126200
     20 OAF        -5.0230    2.4780   -1.7200 o         1 HZ3     -0.503500
     21 CBC        -4.3110    0.5820    1.3680 c3        1 HZ3      0.202500
     22 CAS        -2.8560    1.0370    1.6290 cf        1 HZ3     -0.066900
     23 CAY        -2.5620    2.2850    2.2850 ca        1 HZ3     -0.082800
     24 CAM        -3.3290    2.7020    3.3860 ca        1 HZ3     -0.075000
     25 CAI        -3.0750    3.9140    4.0150 ca        1 HZ3     -0.189250
     26 CAW        -2.0390    4.7320    3.5320 ca        1 HZ3      0.135100
     27 OAD        -1.8380    5.9210    4.1920 oh        1 HZ3     -0.494100
     28 CAJ        -1.2640    4.3320    2.4340 ca        1 HZ3     -0.189250
     29 CAN        -1.5270    3.1120    1.8210 ca        1 HZ3     -0.075000
     30 HAK        -0.6980   -1.3230   -0.7590 ha        1 HZ3      0.147000
     31 HAG         1.7760   -1.6960   -0.8150 ha        1 HZ3      0.145500
     32 HOAC        3.9070   -0.3780    1.6600 ho        1 HZ3      0.421500
     33 HAH         2.1990    0.6320    2.8190 ha        1 HZ3      0.145500
     34 HAL        -0.2650    1.0120    2.8630 ha        1 HZ3      0.147000
     35 HBB        -2.7160   -2.0360    0.3980 h1        1 HZ3      0.129700
     36 HAA1       -2.0610   -1.0930   -4.2810 h1        1 HZ3      0.055200
     37 HAA2       -3.0550   -2.5910   -3.9390 h1        1 HZ3      0.055200
     38 HAA3       -1.2590   -2.5670   -3.5060 h1        1 HZ3      0.055200
     39 HAB1       -6.9800    3.8270   -0.6800 h1        1 HZ3      0.055200
     40 HAB2       -7.6010    2.5770   -1.8650 h1        1 HZ3      0.055200
     41 HAB3       -8.3600    2.7010   -0.1840 h1        1 HZ3      0.055200
     42 HBC        -5.1290    0.9420    2.0110 h1        1 HZ3      0.129700
     43 HAM        -4.1380    2.0570    3.7620 ha        1 HZ3      0.147000
     44 HAI        -3.6680    4.2440    4.8800 ha        1 HZ3      0.145500
     45 HOAD       -1.1170    6.3910    3.7480 ho        1 HZ3      0.421500
     46 HAJ        -0.4570    4.9780    2.0590 ha        1 HZ3      0.145500
     47 HAN        -0.9200    2.7890    0.9600 ha        1 HZ3      0.147000
@<TRIPOS>BOND
     1    1    2 ar  
     2    1    7 ar  
     3    1   30 1   
     4    2    3 ar  
     5    2   31 1   
     6    3    4 1   
     7    3    5 ar  
     8    4   32 1   
     9    5    6 ar  
    10    5   33 1   
    11    6    7 ar  
    12    6   34 1   
    13    7    8 1   
    14    8    9 1   
    15    8   22 2   
    16    9   10 1   
    17    9   11 1   
    18    9   35 1   
    19   10   21 1   
    20   11   12 1   
    21   11   16 2   
    22   12   13 1   
    23   12   15 2   
    24   13   14 1   
    25   14   36 1   
    26   14   37 1   
    27   14   38 1   
    28   16   17 1   
    29   16   21 1   
    30   17   18 1   
    31   17   20 2   
    32   18   19 1   
    33   19   39 1   
    34   19   40 1   
    35   19   41 1   
    36   21   22 1   
    37   21   42 1   
    38   22   23 1   
    39   23   24 ar  
    40   23   29 ar  
    41   24   25 ar  
    42   24   43 1   
    43   25   26 ar  
    44   25   44 1   
    45   26   27 1   
    46   26   28 ar  
    47   27   45 1   
    48   28   29 ar  
    49   28   46 1   
    50   29   47 1   
@<TRIPOS>SUBSTRUCTURE
     1 HZ3         1 TEMP              0 ****  ****    0 ROOT
