@<TRIPOS>MOLECULE
HZ3
   47    50     1     0     0
SMALL
bcc


@<TRIPOS>ATOM
      1 CAK        -0.0430   -0.8690    0.0990 ca        1 HZ3     -0.075000
      2 CAG         1.3330   -1.0700    0.0760 ca        1 HZ3     -0.189250
      3 CAV         2.1280   -0.5090    1.0870 ca        1 HZ3      0.135100
      4 OAC         3.4930   -0.6660    1.1320 oh        1 HZ3     -0.494100
      5 CAH         1.5490    0.2540    2.1150 ca        1 HZ3     -0.189250
      6 CAL         0.1750    0.4510    2.1190 ca        1 HZ3     -0.075000
      7 CAX        -0.6390   -0.1060    1.1160 ca        1 HZ3     -0.082800
      8 CAR        -2.0660    0.0770    1.1400 ce        1 HZ3     -0.066400
      9 CBB        -3.0340   -0.9780    0.5520 c3        1 HZ3      0.202000
     10 OAQ        -4.1440   -0.8550    1.5100 os        1 HZ3     -0.396600
     11 CAT        -3.6920   -0.2950   -0.6720 ce        1 HZ3     -0.106400
     12 CAZ        -3.4990   -0.7320   -2.0450 c         1 HZ3      0.652800
     13 OAO        -2.3900   -1.5250   -2.2110 os        1 HZ3     -0.437900
     14 CAA        -2.1470   -2.0010   -3.5370 c3        1 HZ3      0.126200
     15 OAE        -4.2000   -0.5090   -3.0330 o         1 HZ3     -0.503500
     16 CAU        -4.4730    0.6930   -0.1600 cf        1 HZ3     -0.106400
     17 CBA        -5.2950    1.7080   -0.8090 c         1 HZ3      0.652800
     18 OAP        -6.5330    1.8370   -0.2350 os        1 HZ3     -0.437900
     19 CAB        -7.4050    2.8030   -0.8250 c3        1 HZ3      0.126200
     20 OAF        -5.0040    2.4500   -1.7480 o         1 HZ3     -0.503500
     21 CBC        -4.3150    0.6000    1.3770 c3        1 HZ3      0.202000
     22 CAS        -2.8660    1.0630    1.6500 cf        1 HZ3     -0.066400
     23 CAY        -2.5820    2.3190    2.2940 ca        1 HZ3     -0.082800
     24 CAM        -3.3750    2.7550    3.3710 ca        1 HZ3     -0.075000
     25 CAI        -3.1300    3.9740    3.9890 ca        1 HZ3     -0.189250
     26 CAW        -2.0780    4.7800    3.5210 ca        1 HZ3      0.135100
     27 OAD        -1.8880    5.9770    4.1690 oh        1 HZ3     -0.494100
     28 CAJ        -1.2780    4.3620    2.4480 ca        1 HZ3     -0.189250
     29 CAN        -1.5320    3.1350    1.8450 ca        1 HZ3     -0.075000
     30 HAK        -0.6710   -1.3060   -0.6960 ha        1 HZ3      0.147000
     31 HAG         1.7940   -1.6630   -0.7260 ha        1 HZ3      0.145750
     32 HOAC        3.7570   -1.2120    0.3770 ho        1 HZ3      0.421500
     33 HAH         2.1890    0.6820    2.9000 ha        1 HZ3      0.145750
     34 HAL        -0.2900    1.0500    2.9190 ha        1 HZ3      0.147000
     35 HBB        -2.7010   -2.0230    0.4550 h1        1 HZ3      0.129200
     36 HAA1       -1.2090   -2.6000   -3.4320 h1        1 HZ3      0.054700
     37 HAA2       -3.0030   -2.6330   -3.8770 h1        1 HZ3      0.054700
     38 HAA3       -2.0080   -1.1380   -4.2320 h1        1 HZ3      0.054700
     39 HAB1       -7.5800    2.5530   -1.8990 h1        1 HZ3      0.054700
     40 HAB2       -6.9580    3.8220   -0.7360 h1        1 HZ3      0.054700
     41 HAB3       -8.3420    2.7090   -0.2230 h1        1 HZ3      0.054700
     42 HBC        -5.1420    0.9630    2.0070 h1        1 HZ3      0.129200
     43 HAM        -4.1950    2.1180    3.7360 ha        1 HZ3      0.147000
     44 HAI        -3.7420    4.3180    4.8350 ha        1 HZ3      0.145750
     45 HOAD       -1.1460    6.4330    3.7450 ho        1 HZ3      0.421500
     46 HAJ        -0.4580    4.9980    2.0860 ha        1 HZ3      0.145750
     47 HAN        -0.9050    2.7960    1.0050 ha        1 HZ3      0.147000
@<TRIPOS>BOND
     1    1    2 ar  
     2    1    7 ar  
     3    1   30 1   
     4    2    3 ar  
     5    2   31 1   
     6    3    4 1   
     7    3    5 ar  
     8    4   32 1   
     9    5    6 ar  
    10    5   33 1   
    11    6    7 ar  
    12    6   34 1   
    13    7    8 1   
    14    8    9 1   
    15    8   22 2   
    16    9   10 1   
    17    9   11 1   
    18    9   35 1   
    19   10   21 1   
    20   11   12 1   
    21   11   16 2   
    22   12   13 1   
    23   12   15 2   
    24   13   14 1   
    25   14   36 1   
    26   14   37 1   
    27   14   38 1   
    28   16   17 1   
    29   16   21 1   
    30   17   18 1   
    31   17   20 2   
    32   18   19 1   
    33   19   39 1   
    34   19   40 1   
    35   19   41 1   
    36   21   22 1   
    37   21   42 1   
    38   22   23 1   
    39   23   24 ar  
    40   23   29 ar  
    41   24   25 ar  
    42   24   43 1   
    43   25   26 ar  
    44   25   44 1   
    45   26   27 1   
    46   26   28 ar  
    47   27   45 1   
    48   28   29 ar  
    49   28   46 1   
    50   29   47 1   
@<TRIPOS>SUBSTRUCTURE
     1 HZ3         1 TEMP              0 ****  ****    0 ROOT
