@<TRIPOS>MOLECULE
HZH
   27    27     1     0     0
SMALL
bcc


@<TRIPOS>ATOM
      1 F2          0.4000   -0.3350   -1.8720 f         1 HZH     -0.226633
      2 C11         1.6210    0.2530   -2.0570 c3        1 HZH      0.523900
      3 F1          2.5280   -0.7680   -1.9230 f         1 HZH     -0.226633
      4 F3          1.6610    0.5880   -3.3850 f         1 HZH     -0.226633
      5 C10         1.8870    1.4640   -1.0890 c         1 HZH      0.552100
      6 O1          0.9310    1.9790   -0.5270 o         1 HZH     -0.433100
      7 C9          3.3140    1.8560   -0.9210 c3        1 HZH     -0.134300
      8 S           3.7570    3.2490   -1.9010 ss        1 HZH     -0.232200
      9 C8          4.4300    2.5220   -3.3690 c3        1 HZH     -0.025300
     10 C7          4.8600    3.6680   -4.2540 c3        1 HZH     -0.026100
     11 C6          5.4410    3.1710   -5.5330 ca        1 HZH     -0.085300
     12 C4          4.6080    2.6260   -6.5170 ca        1 HZH     -0.124000
     13 C2          5.1460    2.1700   -7.7190 ca        1 HZH     -0.127000
     14 C1          6.5200    2.2560   -7.9480 ca        1 HZH     -0.127000
     15 C3          7.3530    2.7990   -6.9710 ca        1 HZH     -0.127000
     16 C5          6.8170    3.2550   -5.7670 ca        1 HZH     -0.124000
     17 H9          3.9830    0.9830   -1.1270 h1        1 HZH      0.114200
     18 H9A         3.4720    2.1740    0.1450 h1        1 HZH      0.114200
     19 H8          5.3000    1.8680   -3.1190 h1        1 HZH      0.073200
     20 H8A         3.6660    1.8920   -3.8880 h1        1 HZH      0.073200
     21 H7          3.9730    4.3220   -4.4800 hc        1 HZH      0.064200
     22 H7A         5.6130    4.3010   -3.7100 hc        1 HZH      0.064200
     23 H4          3.5240    2.5590   -6.3380 ha        1 HZH      0.133500
     24 H2          4.4860    1.7420   -8.4880 ha        1 HZH      0.133500
     25 H1          6.9430    1.8960   -8.8970 ha        1 HZH      0.133000
     26 H3          8.4370    2.8700   -7.1490 ha        1 HZH      0.133500
     27 H5          7.4800    3.6850   -5.0010 ha        1 HZH      0.133500
@<TRIPOS>BOND
     1    1    2 1   
     2    2    3 1   
     3    2    4 1   
     4    2    5 1   
     5    5    6 2   
     6    5    7 1   
     7    7    8 1   
     8    7   17 1   
     9    7   18 1   
    10    8    9 1   
    11    9   10 1   
    12    9   19 1   
    13    9   20 1   
    14   10   11 1   
    15   10   21 1   
    16   10   22 1   
    17   11   12 ar  
    18   11   16 ar  
    19   12   13 ar  
    20   12   23 1   
    21   13   14 ar  
    22   13   24 1   
    23   14   15 ar  
    24   14   25 1   
    25   15   16 ar  
    26   15   26 1   
    27   16   27 1   
@<TRIPOS>SUBSTRUCTURE
     1 HZH         1 TEMP              0 ****  ****    0 ROOT
