@<TRIPOS>MOLECULE
HZH
   27    27     1     0     0
SMALL
bcc


@<TRIPOS>ATOM
      1 F2          2.3360   -1.9510   -0.1090 f         1 HZH     -0.226633
      2 C11         2.4030   -0.8760   -0.9590 c3        1 HZH      0.523900
      3 F1          3.4080   -1.1830   -1.8350 f         1 HZH     -0.226633
      4 F3          1.2510   -0.9390   -1.6980 f         1 HZH     -0.226633
      5 C10         2.6100    0.4990   -0.2230 c         1 HZH      0.552100
      6 O1          3.4040    1.2980   -0.6990 o         1 HZH     -0.433100
      7 C9          1.8260    0.6860    1.0300 c3        1 HZH     -0.134300
      8 S           0.3790    1.6560    0.7880 ss        1 HZH     -0.232200
      9 C8         -0.8860    0.4470    0.5190 c3        1 HZH     -0.025300
     10 C7         -2.1760    1.2140    0.3290 c3        1 HZH     -0.026100
     11 C6         -3.3180    0.2900    0.0860 ca        1 HZH     -0.085300
     12 C4         -4.2850    0.0810    1.0760 ca        1 HZH     -0.124000
     13 C2         -5.3590   -0.7760    0.8380 ca        1 HZH     -0.127000
     14 C1         -5.4760   -1.4290   -0.3890 ca        1 HZH     -0.127000
     15 C3         -4.5150   -1.2230   -1.3790 ca        1 HZH     -0.127000
     16 C5         -3.4410   -0.3670   -1.1450 ca        1 HZH     -0.124000
     17 H9          1.5810   -0.3070    1.4860 h1        1 HZH      0.114200
     18 H9A         2.4580    1.2600    1.7610 h1        1 HZH      0.114200
     19 H8         -0.6620   -0.1710   -0.3850 h1        1 HZH      0.073200
     20 H8A        -0.9630   -0.2420    1.3950 h1        1 HZH      0.073200
     21 H7         -2.3760    1.8430    1.2390 hc        1 HZH      0.064200
     22 H7A        -2.0710    1.9120   -0.5460 hc        1 HZH      0.064200
     23 H4         -4.1990    0.5950    2.0450 ha        1 HZH      0.133500
     24 H2         -6.1160   -0.9350    1.6200 ha        1 HZH      0.133500
     25 H1         -6.3230   -2.1040   -0.5760 ha        1 HZH      0.133000
     26 H3         -4.6050   -1.7360   -2.3490 ha        1 HZH      0.133500
     27 H5         -2.6850   -0.2040   -1.9270 ha        1 HZH      0.133500
@<TRIPOS>BOND
     1    1    2 1   
     2    2    3 1   
     3    2    4 1   
     4    2    5 1   
     5    5    6 2   
     6    5    7 1   
     7    7    8 1   
     8    7   17 1   
     9    7   18 1   
    10    8    9 1   
    11    9   10 1   
    12    9   19 1   
    13    9   20 1   
    14   10   11 1   
    15   10   21 1   
    16   10   22 1   
    17   11   12 ar  
    18   11   16 ar  
    19   12   13 ar  
    20   12   23 1   
    21   13   14 ar  
    22   13   24 1   
    23   14   15 ar  
    24   14   25 1   
    25   15   16 ar  
    26   15   26 1   
    27   16   27 1   
@<TRIPOS>SUBSTRUCTURE
     1 HZH         1 TEMP              0 ****  ****    0 ROOT
