@<TRIPOS>MOLECULE
HZH
   27    27     1     0     0
SMALL
bcc


@<TRIPOS>ATOM
      1 F2          2.7580   -0.7470   -1.7360 f         1 HZH     -0.226633
      2 C11         3.2290    0.2450   -0.9140 c3        1 HZH      0.523900
      3 F1          3.4540   -0.3690    0.2870 f         1 HZH     -0.226633
      4 F3          4.4750    0.5450   -1.4020 f         1 HZH     -0.226633
      5 C10         2.2720    1.4890   -0.8130 c         1 HZH      0.552100
      6 O1          2.0910    1.9950    0.2860 o         1 HZH     -0.433100
      7 C9          1.6370    1.9220   -2.0900 c3        1 HZH     -0.134300
      8 S           2.4530    3.2970   -2.8230 ss        1 HZH     -0.232200
      9 C8          3.5740    2.5470   -3.9700 c3        1 HZH     -0.025300
     10 C7          4.2970    3.6790   -4.6640 c3        1 HZH     -0.026100
     11 C6          5.2810    3.1600   -5.6540 ca        1 HZH     -0.085300
     12 C4          5.0310    3.2690   -7.0270 ca        1 HZH     -0.124000
     13 C2          5.9620    2.7930   -7.9490 ca        1 HZH     -0.127000
     14 C1          7.1470    2.2040   -7.5090 ca        1 HZH     -0.127000
     15 C3          7.4010    2.0940   -6.1410 ca        1 HZH     -0.127000
     16 C5          6.4730    2.5700   -5.2170 ca        1 HZH     -0.124000
     17 H9          0.5930    2.2740   -1.8660 h1        1 HZH      0.114200
     18 H9A         1.5700    1.0600   -2.8010 h1        1 HZH      0.114200
     19 H8          4.3030    1.8850   -3.4390 h1        1 HZH      0.073200
     20 H8A         3.0180    1.9210   -4.7090 h1        1 HZH      0.073200
     21 H7          3.5490    4.3440   -5.1760 hc        1 HZH      0.064200
     22 H7A         4.8350    4.3050   -3.9000 hc        1 HZH      0.064200
     23 H4          4.0980    3.7340   -7.3800 ha        1 HZH      0.133500
     24 H2          5.7590    2.8820   -9.0270 ha        1 HZH      0.133500
     25 H1          7.8800    1.8290   -8.2380 ha        1 HZH      0.133000
     26 H3          8.3360    1.6320   -5.7910 ha        1 HZH      0.133500
     27 H5          6.6750    2.4850   -4.1390 ha        1 HZH      0.133500
@<TRIPOS>BOND
     1    1    2 1   
     2    2    3 1   
     3    2    4 1   
     4    2    5 1   
     5    5    6 2   
     6    5    7 1   
     7    7    8 1   
     8    7   17 1   
     9    7   18 1   
    10    8    9 1   
    11    9   10 1   
    12    9   19 1   
    13    9   20 1   
    14   10   11 1   
    15   10   21 1   
    16   10   22 1   
    17   11   12 ar  
    18   11   16 ar  
    19   12   13 ar  
    20   12   23 1   
    21   13   14 ar  
    22   13   24 1   
    23   14   15 ar  
    24   14   25 1   
    25   15   16 ar  
    26   15   26 1   
    27   16   27 1   
@<TRIPOS>SUBSTRUCTURE
     1 HZH         1 TEMP              0 ****  ****    0 ROOT
