@<TRIPOS>MOLECULE
HZN
    6     5     1     0     0
SMALL
bcc


@<TRIPOS>ATOM
      1 N2          0.6590   -0.2010   -0.2110 n3        1 HZN     -0.688600
      2 N1         -0.6590    0.2010   -0.2120 n3        1 HZN     -0.688600
      3 H1          1.1050    0.2170   -1.0200 hn        1 HZN      0.344800
      4 H2          1.1040    0.2180    0.5990 hn        1 HZN      0.344800
      5 H3         -1.1040   -0.2180   -1.0210 hn        1 HZN      0.344800
      6 H4         -1.1050   -0.2170    0.5980 hn        1 HZN      0.344800
@<TRIPOS>BOND
     1    1    2 1   
     2    1    3 1   
     3    1    4 1   
     4    2    5 1   
     5    2    6 1   
@<TRIPOS>SUBSTRUCTURE
     1 HZN         1 TEMP              0 ****  ****    0 ROOT
