@<TRIPOS>MOLECULE
HZN
    8     7     1     0     0
SMALL
bcc


@<TRIPOS>ATOM
      1 N2          0.0170    0.0000    0.0000 n4        1 HZN     -0.669400
      2 N1          1.4370   -0.0000   -0.0000 n4        1 HZN     -0.669400
      3 H1         -0.3540   -0.0000    0.9890 hn        1 HZN      0.556800
      4 H2         -0.3550   -0.8560   -0.4930 hn        1 HZN      0.556800
      5 H3          1.8080    0.0000   -0.9890 hn        1 HZN      0.556800
      6 H4          1.8090    0.8560    0.4930 hn        1 HZN      0.556800
      7 H23        -0.3550    0.8560   -0.4930 hn        1 HZN      0.556800
      8 H13         1.8090   -0.8560    0.4930 hn        1 HZN      0.556800
@<TRIPOS>BOND
     1    1    2 1   
     2    1    3 1   
     3    1    4 1   
     4    1    7 1   
     5    2    5 1   
     6    2    6 1   
     7    2    8 1   
@<TRIPOS>SUBSTRUCTURE
     1 HZN         1 TEMP              0 ****  ****    0 ROOT
