@<TRIPOS>MOLECULE
HZN
    6     5     1     0     0
SMALL
bcc


@<TRIPOS>ATOM
      1 N2         -0.6950    0.0000    0.0000 n3        1 HZN     -0.688600
      2 N1          0.6950    0.0000    0.0000 n3        1 HZN     -0.688600
      3 H1         -0.9990    0.0000    0.8600 hn        1 HZN      0.344800
      4 H2         -0.9990    0.7450   -0.4300 hn        1 HZN      0.344800
      5 H3          0.9990    0.0000   -0.8600 hn        1 HZN      0.344800
      6 H4          0.9990   -0.7450    0.4300 hn        1 HZN      0.344800
@<TRIPOS>BOND
     1    1    2 1   
     2    1    3 1   
     3    1    4 1   
     4    2    5 1   
     5    2    6 1   
@<TRIPOS>SUBSTRUCTURE
     1 HZN         1 TEMP              0 ****  ****    0 ROOT
