@<TRIPOS>MOLECULE
HZP
   17    17     1     0     0
SMALL
bcc


@<TRIPOS>ATOM
      1 OXT         2.4630   -0.1250    0.6840 o         1 HZP     -0.840300
      2 N          -0.2020   -1.3130   -0.9600 n3        1 HZP     -0.757200
      3 CA          0.4620   -0.0350   -0.6570 c3        1 HZP      0.019500
      4 C           1.2060   -0.0710    0.7190 c         1 HZP      0.937600
      5 O           0.5160    0.0070    1.7770 o         1 HZP     -0.840300
      6 CB         -0.6230    1.0620   -0.6170 c3        1 HZP     -0.128400
      7 CG         -1.9170    0.3140   -0.2660 c3        1 HZP      0.139100
      8 CD         -1.5990   -1.1820   -0.5550 c3        1 HZP      0.109800
      9 OD1        -2.2860    0.4960    1.0830 oh        1 HZP     -0.644800
     10 HA          1.2290    0.1920   -1.4460 h1        1 HZP      0.040700
     11 HB         -0.3800    1.8230    0.1640 hc        1 HZP      0.041700
     12 HBA        -0.7190    1.5720   -1.6050 hc        1 HZP      0.041700
     13 HG         -2.7960    0.6710   -0.8610 h1        1 HZP      0.034700
     14 HD         -2.2990   -1.5890   -1.3310 h1        1 HZP      0.036700
     15 HDA        -1.7340   -1.7720    0.3920 h1        1 HZP      0.036700
     16 HOD1       -1.4900    0.3060    1.6190 ho        1 HZP      0.463000
     17 HN         -0.1630   -1.4610   -1.9550 hn        1 HZP      0.307800
@<TRIPOS>BOND
     1    1    4 1   
     2    2    3 1   
     3    2    8 1   
     4    2   17 1   
     5    3    4 1   
     6    3    6 1   
     7    3   10 1   
     8    4    5 1   
     9    6    7 1   
    10    6   11 1   
    11    6   12 1   
    12    7    8 1   
    13    7    9 1   
    14    7   13 1   
    15    8   14 1   
    16    8   15 1   
    17    9   16 1   
@<TRIPOS>SUBSTRUCTURE
     1 HZP         1 TEMP              0 ****  ****    0 ROOT
