@<TRIPOS>MOLECULE
O04
   36    37     1     0     0
SMALL
bcc


@<TRIPOS>ATOM
      1 C1          0.2200   -0.1430    0.0310 ce        1 O04      0.640800
      2 N1          1.0270    1.1660    0.1110 nz        1 O04     -0.895600
      3 O1         -5.1450   -0.5870    5.6850 os        1 O04     -0.167300
      4 C2         -0.6750   -0.2380    1.2040 ca        1 O04     -0.231900
      5 N2         -4.5270   -0.4460    4.5360 n2        1 O04     -0.367200
      6 O2         -6.5000    1.1520    5.8190 os        1 O04     -0.436600
      7 C3         -2.0590   -0.2810    1.0090 ca        1 O04     -0.087000
      8 N3          0.3050   -0.9930   -0.9000 n2        1 O04     -0.674100
      9 C4         -2.9080   -0.3880    2.1090 ca        1 O04     -0.108000
     10 C5         -2.3820   -0.4610    3.4070 ca        1 O04     -0.039900
     11 C6         -3.2240   -0.5660    4.5990 ce        1 O04      0.345800
     12 C7         -6.5620   -0.2550    5.6640 c3        1 O04      0.350900
     13 C8         -7.7610    1.7420    6.1350 c3        1 O04      0.137400
     14 C9         -8.3920    1.1220    7.3680 c3        1 O04     -0.118400
     15 C10        -8.5070   -0.3790    7.2100 c3        1 O04     -0.079400
     16 C11        -7.1610   -0.9810    6.8650 c3        1 O04     -0.109400
     17 C12        -0.9860   -0.4390    3.5870 ca        1 O04     -0.108000
     18 C13        -0.1350   -0.3290    2.4950 ca        1 O04     -0.087000
     19 HN1         1.4430    1.2340    1.0450 hn        1 O04      0.455800
     20 HN1A        1.7670    1.2250   -0.5910 hn        1 O04      0.455800
     21 H3         -2.4830   -0.2430   -0.0080 ha        1 O04      0.144500
     22 HN3         0.8980   -0.9050   -1.6950 hn        1 O04      0.463400
     23 H4         -3.9990   -0.4190    1.9460 ha        1 O04      0.172000
     24 H6         -2.6850   -0.7500    5.5520 h4        1 O04      0.021800
     25 H7         -7.0540   -0.5270    4.6930 h2        1 O04      0.068700
     26 H8         -8.4420    1.6430    5.2480 h1        1 O04      0.054200
     27 H8A        -7.5080    2.8230    6.3030 h1        1 O04      0.054200
     28 H9         -9.4060    1.5720    7.5270 hc        1 O04      0.062200
     29 H9A        -7.7660    1.3590    8.2670 hc        1 O04      0.062200
     30 H10        -9.2480   -0.6200    6.4020 hc        1 O04      0.054700
     31 H10A       -8.8860   -0.8360    8.1610 hc        1 O04      0.054700
     32 H11        -6.4630   -0.8870    7.7380 hc        1 O04      0.070200
     33 H11A       -7.2650   -2.0680    6.6200 hc        1 O04      0.070200
     34 H12        -0.5640   -0.5160    4.6030 ha        1 O04      0.172000
     35 H13         0.9540   -0.3490    2.6530 ha        1 O04      0.144500
     36 H131        0.3820    1.9520   -0.0130 hn        1 O04      0.455800
@<TRIPOS>BOND
     1    1    2 1   
     2    1    4 1   
     3    1    8 2   
     4    2   19 1   
     5    2   20 1   
     6    2   36 1   
     7    3    5 1   
     8    3   12 1   
     9    4    7 ar  
    10    4   18 ar  
    11    5   11 2   
    12    6   12 1   
    13    6   13 1   
    14    7    9 ar  
    15    7   21 1   
    16    8   22 1   
    17    9   10 ar  
    18    9   23 1   
    19   10   11 1   
    20   10   17 ar  
    21   11   24 1   
    22   12   16 1   
    23   12   25 1   
    24   13   14 1   
    25   13   26 1   
    26   13   27 1   
    27   14   15 1   
    28   14   28 1   
    29   14   29 1   
    30   15   16 1   
    31   15   30 1   
    32   15   31 1   
    33   16   32 1   
    34   16   33 1   
    35   17   18 ar  
    36   17   34 1   
    37   18   35 1   
@<TRIPOS>SUBSTRUCTURE
     1 O04         1 TEMP              0 ****  ****    0 ROOT
