@<TRIPOS>MOLECULE
O04
   35    31     1     0     0
SMALL
bcc


@<TRIPOS>ATOM
      1 C1          1.1100    1.1100   -5.0850 c1        1 O04      0.126000
      2 N1          0.2260    1.7260   -6.0590 n3        1 O04     -0.397000
      3 O1         -0.0860   -0.0820    1.2090 os        1 O04     -0.209000
      4 C2          0.7270    1.1070   -3.5800 c1        1 O04     -0.047000
      5 N2          1.2710   -0.3540    1.3270 n2        1 O04     -0.036000
      6 O2          0.1870   -0.7900    3.4030 os        1 O04     -0.286000
      7 C3          0.3230   -0.1270   -3.0770 c1        1 O04     -0.118000
      8 N3          2.2410    0.5520   -5.4780 n1        1 O04     -0.293000
      9 C4          0.7170   -0.5240   -1.8030 c1        1 O04     -0.102000
     10 C5          1.5160    0.3150   -1.0300 c1        1 O04     -0.064000
     11 C6          2.0760   -0.1800    0.2870 c1        1 O04     -0.091000
     12 C7         -0.6890   -0.0990    2.4810 c3        1 O04      0.164000
     13 C8         -0.4250   -1.0110    4.7080 c3        1 O04     -0.014000
     14 C9         -1.7840   -1.6740    4.6070 c3        1 O04     -0.196000
     15 C10        -2.6750   -0.9750    3.6800 c3        1 O04     -0.157000
     16 C11        -2.0500   -0.7570    2.3690 c3        1 O04     -0.189000
     17 C12         1.9190    1.5480   -1.5340 c2        1 O04     -0.118000
     18 C13         1.5220    1.9420   -2.8110 c1        1 O04     -0.098000
     19 HN1        -0.3560    2.3880   -5.7980 hn        1 O04      0.194500
     20 HN1A        0.2660    1.4700   -6.9480 hn        1 O04      0.194500
     21 H3         -0.2330   -0.7110   -3.6160 ha        1 O04      0.145000
     22 HN3         2.4680    0.5530   -6.3640 DU        1 O04      0.138000
     23 H4          0.4340   -1.3870   -1.4520 ha        1 O04      0.160000
     24 H6          3.0310   -0.3710    0.3710 ha        1 O04      0.160000
     25 H7         -0.8080    0.8230    2.7890 h2        1 O04      0.106000
     26 H8          0.1660   -1.5820    5.2410 h1        1 O04      0.089000
     27 H8A        -0.5250   -0.1500    5.1600 h1        1 O04      0.089000
     28 H9         -2.1970   -1.6860    5.4950 hc        1 O04      0.093500
     29 H9A        -1.6660   -2.5980    4.2980 hc        1 O04      0.093500
     30 H10        -3.4900   -1.5090    3.5580 hc        1 O04      0.086000
     31 H10A       -2.9170   -0.1080    4.0640 hc        1 O04      0.086000
     32 H11        -2.6350   -0.1830    1.8300 hc        1 O04      0.103500
     33 H11A       -1.9480   -1.6200    1.9180 hc        1 O04      0.103500
     34 H12         2.4790    2.1370   -0.9940 ha        1 O04      0.135000
     35 H13         1.8040    2.8060   -3.1640 ha        1 O04      0.149000
@<TRIPOS>BOND
     1    1    2 1   
     2    1    8 1   
     3    2   19 1   
     4    2   20 1   
     5    3    5 1   
     6    3   12 1   
     7    4    7 1   
     8    5   11 1   
     9    6   12 1   
    10    6   13 1   
    11    7   21 1   
    12    9   10 1   
    13    9   23 1   
    14   10   17 1   
    15   11   24 1   
    16   12   16 1   
    17   12   25 1   
    18   13   14 1   
    19   13   26 1   
    20   13   27 1   
    21   14   15 1   
    22   14   28 1   
    23   14   29 1   
    24   15   16 1   
    25   15   30 1   
    26   15   31 1   
    27   16   32 1   
    28   16   33 1   
    29   17   18 1   
    30   17   34 1   
    31   18   35 1   
@<TRIPOS>SUBSTRUCTURE
     1 O04         1 TEMP              0 ****  ****    0 ROOT
