@<TRIPOS>MOLECULE
O04
   36    37     1     0     0
SMALL
bcc


@<TRIPOS>ATOM
      1 C1          0.2010   -0.1780    0.0130 ce        1 O04      0.640800
      2 N1          1.0260    1.1200    0.0880 n4        1 O04     -0.895600
      3 O1         -5.1370   -0.5680    5.6960 os        1 O04     -0.167300
      4 C2         -0.6880   -0.2610    1.1910 ca        1 O04     -0.231900
      5 N2         -4.5250   -0.4370    4.5430 n2        1 O04     -0.367200
      6 O2         -6.4950    1.1710    5.8180 os        1 O04     -0.436600
      7 C3         -2.0750   -0.2870    1.0040 ca        1 O04     -0.087000
      8 N3          0.2690   -1.0290   -0.9190 n2        1 O04     -0.674100
      9 C4         -2.9180   -0.3830    2.1090 ca        1 O04     -0.108000
     10 C5         -2.3850   -0.4630    3.4040 ca        1 O04     -0.039900
     11 C6         -3.2220   -0.5570    4.6010 ce        1 O04      0.345800
     12 C7         -6.5550   -0.2390    5.6790 c3        1 O04      0.350900
     13 C8         -7.7550    1.7610    6.1340 c3        1 O04      0.137400
     14 C9         -8.3800    1.1540    7.3760 c3        1 O04     -0.118400
     15 C10        -8.4930   -0.3500    7.2350 c3        1 O04     -0.079400
     16 C11        -7.1470   -0.9530    6.8910 c3        1 O04     -0.109400
     17 C12        -0.9880   -0.4580    3.5760 ca        1 O04     -0.108000
     18 C13        -0.1420   -0.3590    2.4790 ca        1 O04     -0.087000
     19 HN1         1.7620    1.1690   -0.6180 hn        1 O04      0.455800
     20 HN1A        0.3910    1.9140   -0.0320 hn        1 O04      0.455800
     21 H3         -2.5040   -0.2440   -0.0100 ha        1 O04      0.144500
     22 HN3         0.8590   -0.9490   -1.7170 hn        1 O04      0.463400
     23 H4         -4.0100   -0.4000    1.9520 ha        1 O04      0.172000
     24 H6         -2.6790   -0.7320    5.5530 h4        1 O04      0.021800
     25 H7         -7.0520   -0.5210    4.7130 h2        1 O04      0.068700
     26 H8         -7.5050    2.8450    6.2890 h1        1 O04      0.054200
     27 H8A        -8.4410    1.6510    5.2510 h1        1 O04      0.054200
     28 H9         -7.7500    1.4010    8.2700 hc        1 O04      0.062200
     29 H9A        -9.3940    1.6030    7.5350 hc        1 O04      0.062200
     30 H10        -9.2370   -0.6000    6.4340 hc        1 O04      0.054700
     31 H10A       -8.8660   -0.7970    8.1930 hc        1 O04      0.054700
     32 H11        -7.2500   -2.0430    6.6580 hc        1 O04      0.070200
     33 H11A       -6.4440   -0.8480    7.7580 hc        1 O04      0.070200
     34 H12        -0.5610   -0.5400    4.5900 ha        1 O04      0.172000
     35 H13         0.9470   -0.3930    2.6310 ha        1 O04      0.144500
     36 H131        1.4480    1.1820    1.0200 hn        1 O04      0.455800
@<TRIPOS>BOND
     1    1    2 1   
     2    1    4 1   
     3    1    8 2   
     4    2   19 1   
     5    2   20 1   
     6    2   36 1   
     7    3    5 1   
     8    3   12 1   
     9    4    7 ar  
    10    4   18 ar  
    11    5   11 2   
    12    6   12 1   
    13    6   13 1   
    14    7    9 ar  
    15    7   21 1   
    16    8   22 1   
    17    9   10 ar  
    18    9   23 1   
    19   10   11 1   
    20   10   17 ar  
    21   11   24 1   
    22   12   16 1   
    23   12   25 1   
    24   13   14 1   
    25   13   26 1   
    26   13   27 1   
    27   14   15 1   
    28   14   28 1   
    29   14   29 1   
    30   15   16 1   
    31   15   30 1   
    32   15   31 1   
    33   16   32 1   
    34   16   33 1   
    35   17   18 ar  
    36   17   34 1   
    37   18   35 1   
@<TRIPOS>SUBSTRUCTURE
     1 O04         1 TEMP              0 ****  ****    0 ROOT
