@<TRIPOS>MOLECULE
O04
   35    36     1     0     0
SMALL
bcc


@<TRIPOS>ATOM
      1 C1         -5.4850    0.4440    0.1320 ce        1 O04      0.649800
      2 N1         -6.1490    0.1040   -1.0680 nh        1 O04     -0.957800
      3 O1          2.2680   -0.7510    0.4600 os        1 O04     -0.180300
      4 C2         -4.0330    0.0750    0.1550 ca        1 O04     -0.132900
      5 N2          1.0670   -0.1890    0.4700 n2        1 O04     -0.417200
      6 O2          3.5440    0.4450   -0.8830 os        1 O04     -0.429600
      7 C3         -3.0850    1.0100    0.5790 ca        1 O04     -0.106500
      8 N3         -6.0080    0.9660    1.2000 n2        1 O04     -0.824100
      9 C4         -1.7310    0.6740    0.5970 ca        1 O04     -0.112000
     10 C5         -1.3150   -0.6020    0.1980 ca        1 O04     -0.116900
     11 C6          0.0910   -1.0130    0.1950 ce        1 O04      0.400800
     12 C7          3.3620    0.1890    0.5040 c3        1 O04      0.348900
     13 C8          4.7360    1.1720   -1.1610 c3        1 O04      0.136400
     14 C9          5.9720    0.4700   -0.6250 c3        1 O04     -0.117400
     15 C10         5.8260    0.1890    0.8560 c3        1 O04     -0.077400
     16 C11         4.5380   -0.5580    1.1310 c3        1 O04     -0.110400
     17 C12        -2.2750   -1.5410   -0.2130 ca        1 O04     -0.112000
     18 C13        -3.6250   -1.2050   -0.2350 ca        1 O04     -0.106500
     19 HN1        -6.9910    0.5920   -1.2660 hn        1 O04      0.398300
     20 HN1A       -5.5610   -0.0330   -1.8570 hn        1 O04      0.398300
     21 H3         -3.4050    2.0100    0.9100 ha        1 O04      0.147500
     22 HN3        -6.9770    1.2000    1.1530 hn        1 O04      0.382400
     23 H4         -0.9950    1.4220    0.9310 ha        1 O04      0.144000
     24 H6          0.2700   -2.0810   -0.0550 h4        1 O04      0.004800
     25 H7          3.1110    1.1370    1.0490 h2        1 O04      0.065700
     26 H8          4.7560    1.2330   -2.2820 h1        1 O04      0.049200
     27 H8A         4.6510    2.2040   -0.7270 h1        1 O04      0.049200
     28 H9          6.1190   -0.4950   -1.1760 hc        1 O04      0.054700
     29 H9A         6.8710    1.1120   -0.8090 hc        1 O04      0.054700
     30 H10         6.6950   -0.4190    1.2170 hc        1 O04      0.046200
     31 H10A        5.8310    1.1560    1.4250 hc        1 O04      0.046200
     32 H11         4.3630   -0.6530    2.2320 hc        1 O04      0.065200
     33 H11A        4.5890   -1.5900    0.6980 hc        1 O04      0.065200
     34 H12        -1.9600   -2.5500   -0.5190 ha        1 O04      0.144000
     35 H13        -4.3700   -1.9540   -0.5480 ha        1 O04      0.147500
@<TRIPOS>BOND
     1    1    2 1   
     2    1    4 1   
     3    1    8 2   
     4    2   19 1   
     5    2   20 1   
     6    3    5 1   
     7    3   12 1   
     8    4    7 ar  
     9    4   18 ar  
    10    5   11 2   
    11    6   12 1   
    12    6   13 1   
    13    7    9 ar  
    14    7   21 1   
    15    8   22 1   
    16    9   10 ar  
    17    9   23 1   
    18   10   11 1   
    19   10   17 ar  
    20   11   24 1   
    21   12   16 1   
    22   12   25 1   
    23   13   14 1   
    24   13   26 1   
    25   13   27 1   
    26   14   15 1   
    27   14   28 1   
    28   14   29 1   
    29   15   16 1   
    30   15   30 1   
    31   15   31 1   
    32   16   32 1   
    33   16   33 1   
    34   17   18 ar  
    35   17   34 1   
    36   18   35 1   
@<TRIPOS>SUBSTRUCTURE
     1 O04         1 TEMP              0 ****  ****    0 ROOT
