@<TRIPOS>MOLECULE
O04
   36    37     1     0     0
SMALL
bcc


@<TRIPOS>ATOM
      1 C1          0.2170   -0.1690    0.0290 ce        1 O04      0.640800
      2 N1          1.0090    1.1500    0.0860 n4        1 O04     -0.895600
      3 O1         -5.1380   -0.5730    5.6950 os        1 O04     -0.167300
      4 C2         -0.6760   -0.2540    1.2040 ca        1 O04     -0.231900
      5 N2         -4.5220   -0.4430    4.5440 n2        1 O04     -0.367200
      6 O2         -6.5030    1.1610    5.8090 os        1 O04     -0.436600
      7 C3         -2.0610   -0.3150    1.0110 ca        1 O04     -0.087000
      8 N3          0.3100   -1.0340   -0.8880 n2        1 O04     -0.674100
      9 C4         -2.9070   -0.4130    2.1140 ca        1 O04     -0.108000
     10 C5         -2.3790   -0.4590    3.4120 ca        1 O04     -0.039900
     11 C6         -3.2190   -0.5540    4.6070 ce        1 O04      0.345800
     12 C7         -6.5570   -0.2490    5.6720 c3        1 O04      0.350900
     13 C8         -7.7670    1.7470    6.1180 c3        1 O04      0.137400
     14 C9         -8.3930    1.1400    7.3600 c3        1 O04     -0.118400
     15 C10        -8.5000   -0.3640    7.2220 c3        1 O04     -0.079400
     16 C11        -7.1510   -0.9630    6.8840 c3        1 O04     -0.109400
     17 C12        -0.9830   -0.4190    3.5910 ca        1 O04     -0.108000
     18 C13        -0.1340   -0.3180    2.4960 ca        1 O04     -0.087000
     19 HN1         1.4250    1.2380    1.0190 hn        1 O04      0.455800
     20 HN1A        1.7480    1.2050   -0.6170 hn        1 O04      0.455800
     21 H3         -2.4860   -0.2990   -0.0050 ha        1 O04      0.144500
     22 HN3         0.9020   -0.9530   -1.6850 hn        1 O04      0.463400
     23 H4         -3.9980   -0.4590    1.9530 ha        1 O04      0.172000
     24 H6         -2.6780   -0.7210    5.5620 h4        1 O04      0.021800
     25 H7         -7.0490   -0.5360    4.7050 h2        1 O04      0.068700
     26 H8         -7.5210    2.8320    6.2720 h1        1 O04      0.054200
     27 H8A        -8.4490    1.6320    5.2340 h1        1 O04      0.054200
     28 H9         -9.4090    1.5860    7.5150 hc        1 O04      0.062200
     29 H9A        -7.7670    1.3920    8.2550 hc        1 O04      0.062200
     30 H10        -8.8750   -0.8100    8.1790 hc        1 O04      0.054700
     31 H10A       -9.2400   -0.6190    6.4190 hc        1 O04      0.054700
     32 H11        -7.2480   -2.0540    6.6530 hc        1 O04      0.070200
     33 H11A       -6.4510   -0.8540    7.7540 hc        1 O04      0.070200
     34 H12        -0.5590   -0.4740    4.6070 ha        1 O04      0.172000
     35 H13         0.9550   -0.3240    2.6530 ha        1 O04      0.144500
     36 H131        0.3550    1.9260   -0.0510 hn        1 O04      0.455800
@<TRIPOS>BOND
     1    1    2 1   
     2    1    4 1   
     3    1    8 2   
     4    2   19 1   
     5    2   20 1   
     6    2   36 1   
     7    3    5 1   
     8    3   12 1   
     9    4    7 ar  
    10    4   18 ar  
    11    5   11 2   
    12    6   12 1   
    13    6   13 1   
    14    7    9 ar  
    15    7   21 1   
    16    8   22 1   
    17    9   10 ar  
    18    9   23 1   
    19   10   11 1   
    20   10   17 ar  
    21   11   24 1   
    22   12   16 1   
    23   12   25 1   
    24   13   14 1   
    25   13   26 1   
    26   13   27 1   
    27   14   15 1   
    28   14   28 1   
    29   14   29 1   
    30   15   16 1   
    31   15   30 1   
    32   15   31 1   
    33   16   32 1   
    34   16   33 1   
    35   17   18 ar  
    36   17   34 1   
    37   18   35 1   
@<TRIPOS>SUBSTRUCTURE
     1 O04         1 TEMP              0 ****  ****    0 ROOT
