@<TRIPOS>MOLECULE
O09
   26    26     1     0     0
SMALL
bcc


@<TRIPOS>ATOM
      1 C1          4.9400    0.3460    0.1310 ce        1 O09      0.657800
      2 N1          5.3050    1.4880   -0.6220 nh        1 O09     -0.958800
      3 O1         -2.8700   -0.2910    0.0410 os        1 O09     -0.146300
      4 C2          3.4700    0.0700    0.1520 ca        1 O09     -0.165900
      5 N2         -1.6450    0.1550    0.0940 n2        1 O09     -0.396200
      6 O2         -6.1360    0.2110    0.6420 o         1 O09     -0.819800
      7 C3          3.0030   -1.2290   -0.0720 ca        1 O09     -0.105000
      8 N3          5.7370   -0.4150    0.8210 n2        1 O09     -0.833100
      9 O3         -5.3750   -0.6410   -1.2870 o         1 O09     -0.819800
     10 C4          1.6350   -1.4830   -0.0880 ca        1 O09     -0.131500
     11 C5          0.7110   -0.4460    0.1260 ca        1 O09     -0.067900
     12 C6         -0.7150   -0.7680    0.0800 ce        1 O09      0.315800
     13 C7         -3.8920    0.7490    0.0270 c3        1 O09      0.008400
     14 C8         -5.2430    0.0220   -0.2270 c         1 O09      0.919600
     15 C9          1.1900    0.8490    0.3740 ca        1 O09     -0.131500
     16 C10         2.5590    1.1050    0.3880 ca        1 O09     -0.105000
     17 HN1         6.2290    1.5010   -0.9860 hn        1 O09      0.393300
     18 HN1A        4.6140    1.8060   -1.2620 hn        1 O09      0.393300
     19 H3          3.7160   -2.0520   -0.2310 ha        1 O09      0.136000
     20 HN3         6.7100   -0.1970    0.7670 hn        1 O09      0.370400
     21 H4          1.2720   -2.5060   -0.2700 ha        1 O09      0.145000
     22 H6         -0.9560   -1.8490    0.0220 h4        1 O09      0.001800
     23 H7         -3.8950    1.2670    1.0160 h1        1 O09      0.029700
     24 H7A        -3.6920    1.4740   -0.7990 h1        1 O09      0.029700
     25 H9          0.4830    1.6720    0.5600 ha        1 O09      0.145000
     26 H10         2.9170    2.1240    0.5960 ha        1 O09      0.136000
@<TRIPOS>BOND
     1    1    2 1   
     2    1    4 1   
     3    1    8 2   
     4    2   17 1   
     5    2   18 1   
     6    3    5 1   
     7    3   13 1   
     8    4    7 ar  
     9    4   16 ar  
    10    5   12 2   
    11    6   14 1   
    12    7   10 ar  
    13    7   19 1   
    14    8   20 1   
    15    9   14 1   
    16   10   11 ar  
    17   10   21 1   
    18   11   12 1   
    19   11   15 ar  
    20   12   22 1   
    21   13   14 1   
    22   13   23 1   
    23   13   24 1   
    24   15   16 ar  
    25   15   25 1   
    26   16   26 1   
@<TRIPOS>SUBSTRUCTURE
     1 O09         1 TEMP              0 ****  ****    0 ROOT
