@<TRIPOS>MOLECULE
O09
   26    20     1     0     0
SMALL
bcc


@<TRIPOS>ATOM
      1 C1          1.1990    0.5700   -3.3780 c1        1 O09      0.513600
      2 N1          0.7740    1.4170   -4.5160 n3        1 O09     -0.862400
      3 O1         -0.4390   -1.0570    2.5520 os        1 O09     -0.290800
      4 C2          0.4360    0.6080   -2.0840 c1        1 O09     -0.056000
      5 N2         -1.5300   -0.2020    2.6340 n1        1 O09     -0.326800
      6 O2          0.5090   -0.7020    5.5110 o         1 O09     -0.835300
      7 C3          0.8230    1.4360   -1.0190 c1        1 O09     -0.032500
      8 N3          2.2760   -0.2400   -3.5060 n1        1 O09     -0.621800
      9 O3          1.8310   -2.0960    4.4530 o         1 O09     -0.835300
     10 C4          0.1060    1.4010    0.1980 c1        1 O09     -0.032500
     11 C5         -0.9930    0.5370    0.3400 c1        1 O09     -0.056000
     12 C6         -1.8380    0.5790    1.6090 c1        1 O09      0.245300
     13 C7         -0.4300   -1.9420    3.6680 c3        1 O09      0.018400
     14 C8          0.6990   -1.5670    4.5950 c         1 O09      0.900600
     15 C9         -1.3810   -0.2940   -0.7320 c1        1 O09     -0.084000
     16 C10        -0.6720   -0.2600   -1.9370 c1        1 O09     -0.084000
     17 HN1         0.1460    2.1000   -4.3840 hn        1 O09      0.389300
     18 HN1A        1.0940    1.2430   -5.3640 hn        1 O09      0.389300
     19 H3          1.5810    2.0560   -1.1270 ha        1 O09      0.132000
     20 HN3         2.7400   -0.2620   -4.2950 DU        1 O09      0.122000
     21 H4          0.3730    1.9760    0.9410 ha        1 O09      0.132000
     22 H6         -2.6310    1.2000    1.6680 ha        1 O09      0.076500
     23 H7         -1.2730   -1.8750    4.1430 h1        1 O09      0.043200
     24 H7A        -0.3010   -2.8870    3.3460 h1        1 O09      0.043200
     25 H9         -2.1500   -0.8990   -0.6310 ha        1 O09      0.056500
     26 H10        -0.9480   -0.8420   -2.6870 ha        1 O09      0.056500
@<TRIPOS>BOND
     1    1    2 1   
     2    1    8 3   
     3    2   17 1   
     4    2   18 1   
     5    3    5 1   
     6    3   13 1   
     7    4   16 3   
     8    5   12 3   
     9    6   14 1   
    10    7   10 3   
    11    7   19 1   
    12    9   14 1   
    13   10   21 1   
    14   11   15 3   
    15   12   22 1   
    16   13   14 1   
    17   13   23 1   
    18   13   24 1   
    19   15   25 1   
    20   16   26 1   
@<TRIPOS>SUBSTRUCTURE
     1 O09         1 TEMP              0 ****  ****    0 ROOT
