@<TRIPOS>MOLECULE
O09
   27    27     1     0     0
SMALL
bcc


@<TRIPOS>ATOM
      1 C1         -0.2150    0.4900    0.3670 ce        1 O09      0.660800
      2 N1          1.2480    0.6050    0.8570 n4        1 O09     -0.901600
      3 O1         -2.8120   -1.1090    7.2920 os        1 O09     -0.185300
      4 C2         -1.0610    0.1410    1.5210 ca        1 O09     -0.253900
      5 N2         -2.2990   -1.0390    6.1010 n2        1 O09     -0.332200
      6 O2          0.0450    0.8490    8.2440 o         1 O09     -0.832300
      7 C3         -1.8730   -0.9970    1.4720 ca        1 O09     -0.102500
      8 N3         -0.5850    0.6560   -0.8320 n2        1 O09     -0.705100
      9 O3         -1.6110    1.5270    6.9100 o         1 O09     -0.832300
     10 C4         -2.5760   -1.3880    2.6120 ca        1 O09     -0.108500
     11 C5         -2.4560   -0.6530    3.7930 ca        1 O09     -0.021900
     12 C6         -3.0880   -1.0480    5.0600 ce        1 O09      0.293800
     13 C7         -1.9620   -0.4440    8.2950 c3        1 O09      0.021400
     14 C8         -1.1150    0.7390    7.7670 c         1 O09      0.911600
     15 C9         -1.6960    0.5400    3.8150 ca        1 O09     -0.108500
     16 C10        -1.0110    0.9390    2.6790 ca        1 O09     -0.102500
     17 HN1         1.2800    1.3040    1.6090 hn        1 O09      0.453467
     18 HN1A        1.5180   -0.2990    1.2560 hn        1 O09      0.453467
     19 H3         -1.9500   -1.5870    0.5470 ha        1 O09      0.134500
     20 HN3         0.0400    0.8570   -1.5790 hn        1 O09      0.445400
     21 H4         -3.2070   -2.2900    2.5850 ha        1 O09      0.203000
     22 H6         -4.1780   -1.2100    5.0580 h4        1 O09      0.013800
     23 H7         -2.7240   -0.0840    9.0290 h1        1 O09      0.051700
     24 H7A        -1.3080   -1.2360    8.7360 h1        1 O09      0.051700
     25 H9         -1.6350    1.1350    4.7620 ha        1 O09      0.203000
     26 H10        -0.4580    1.8900    2.6970 ha        1 O09      0.134500
     27 H13         1.9040    0.8650    0.1240 hn        1 O09      0.453467
@<TRIPOS>BOND
     1    1    2 1   
     2    1    4 1   
     3    1    8 2   
     4    2   17 1   
     5    2   18 1   
     6    2   27 1   
     7    3    5 1   
     8    3   13 1   
     9    4    7 ar  
    10    4   16 ar  
    11    5   12 2   
    12    6   14 1   
    13    7   10 ar  
    14    7   19 1   
    15    8   20 1   
    16    9   14 1   
    17   10   11 ar  
    18   10   21 1   
    19   11   12 1   
    20   11   15 ar  
    21   12   22 1   
    22   13   14 1   
    23   13   23 1   
    24   13   24 1   
    25   15   16 ar  
    26   15   25 1   
    27   16   26 1   
@<TRIPOS>SUBSTRUCTURE
     1 O09         1 TEMP              0 ****  ****    0 ROOT
