@<TRIPOS>MOLECULE
O09
   27    27     1     0     0
SMALL
bcc


@<TRIPOS>ATOM
      1 C1         -0.0330   -0.7050    1.4930 ce        1 O09      0.622800
      2 N1          0.1340   -1.5510    2.7250 n4        1 O09     -0.916600
      3 O1         -2.4050    0.3020    6.8030 os        1 O09     -0.167300
      4 C2         -0.9570    0.4090    1.8260 ca        1 O09     -0.197900
      5 N2         -2.1470    0.9280    5.6880 n2        1 O09     -0.416200
      6 O2          0.3680   -1.0950    5.4090 o         1 O09     -0.851800
      7 C3         -2.3400    0.1830    1.7700 ca        1 O09     -0.090000
      8 N3          0.5130   -0.8940    0.3570 n2        1 O09     -0.715100
      9 O3         -1.5790   -1.9420    4.8400 o         1 O09     -0.851800
     10 C4         -3.1630    0.8580    2.6650 ca        1 O09     -0.106000
     11 C5         -2.5670    1.7140    3.6110 ca        1 O09     -0.085900
     12 C6         -3.0580    1.5610    5.0030 ce        1 O09      0.379800
     13 C7         -1.4530   -0.8080    6.9920 c3        1 O09      0.066400
     14 C8         -0.8530   -1.3200    5.6810 c         1 O09      0.910600
     15 C9         -1.2740    2.2120    3.3790 ca        1 O09     -0.106000
     16 C10        -0.4490    1.5360    2.4830 ca        1 O09     -0.090000
     17 HN1         0.5790   -1.0060    3.5090 hn        1 O09      0.481800
     18 HN1A        0.6770   -2.3920    2.5610 hn        1 O09      0.481800
     19 H3         -2.7550   -0.5870    1.1030 ha        1 O09      0.146500
     20 HN3         1.1230   -1.6720    0.2190 hn        1 O09      0.416400
     21 H4         -4.2350    0.6230    2.7260 ha        1 O09      0.155500
     22 H6         -4.0990    1.7920    5.2690 h4        1 O09      0.016800
     23 H7         -0.6520   -0.4300    7.6730 h1        1 O09      0.065700
     24 H7A        -2.0880   -1.5890    7.4780 h1        1 O09      0.065700
     25 H9         -0.8730    3.0250    4.0010 ha        1 O09      0.155500
     26 H10         0.6080    1.8190    2.3780 ha        1 O09      0.146500
     27 H13        -0.8040   -1.8170    3.1390 hn        1 O09      0.481800
@<TRIPOS>BOND
     1    1    2 1   
     2    1    4 1   
     3    1    8 2   
     4    2   17 1   
     5    2   18 1   
     6    2   27 1   
     7    3    5 1   
     8    3   13 1   
     9    4    7 ar  
    10    4   16 ar  
    11    5   12 2   
    12    6   14 1   
    13    7   10 ar  
    14    7   19 1   
    15    8   20 1   
    16    9   14 1   
    17   10   11 ar  
    18   10   21 1   
    19   11   12 1   
    20   11   15 ar  
    21   12   22 1   
    22   13   14 1   
    23   13   23 1   
    24   13   24 1   
    25   15   16 ar  
    26   15   25 1   
    27   16   26 1   
@<TRIPOS>SUBSTRUCTURE
     1 O09         1 TEMP              0 ****  ****    0 ROOT
