@<TRIPOS>MOLECULE
O09
   27    27     1     0     0
SMALL
bcc


@<TRIPOS>ATOM
      1 C1          0.0290   -0.6450    1.5110 ce        1 O09      0.622800
      2 N1          0.1730   -1.5160    2.7280 nz        1 O09     -0.916600
      3 O1         -2.4850    0.2250    6.7790 os        1 O09     -0.167300
      4 C2         -0.9140    0.4520    1.8440 ca        1 O09     -0.197900
      5 N2         -2.2050    0.8770    5.6850 n2        1 O09     -0.416200
      6 O2          0.3360   -1.1160    5.4260 o         1 O09     -0.851800
      7 C3         -2.2930    0.2140    1.7480 ca        1 O09     -0.090000
      8 N3          0.6050   -0.8050    0.3850 n2        1 O09     -0.715100
      9 O3         -1.5880   -1.9680    4.7910 o         1 O09     -0.851800
     10 C4         -3.1440    0.8630    2.6360 ca        1 O09     -0.106000
     11 C5         -2.5810    1.7040    3.6150 ca        1 O09     -0.085900
     12 C6         -3.1050    1.5170    4.9900 ce        1 O09      0.379800
     13 C7         -1.5260   -0.8790    6.9680 c3        1 O09      0.066400
     14 C8         -0.8890   -1.3580    5.6620 c         1 O09      0.910600
     15 C9         -1.2870    2.2190    3.4250 ca        1 O09     -0.106000
     16 C10        -0.4330    1.5700    2.5370 ca        1 O09     -0.090000
     17 HN1         0.5930   -0.9840    3.5340 hn        1 O09      0.481800
     18 HN1A       -0.7720   -1.8000    3.1130 hn        1 O09      0.481800
     19 H3         -2.6830   -0.5440    1.0550 ha        1 O09      0.146500
     20 HN3         1.2260   -1.5740    0.2460 hn        1 O09      0.416400
     21 H4         -4.2150    0.6160    2.6660 ha        1 O09      0.155500
     22 H6         -4.1540    1.7320    5.2350 h4        1 O09      0.016800
     23 H7         -0.7460   -0.5090    7.6780 h1        1 O09      0.065700
     24 H7A        -2.1660   -1.6770    7.4210 h1        1 O09      0.065700
     25 H9         -0.9100    3.0220    4.0750 ha        1 O09      0.155500
     26 H10         0.6230    1.8650    2.4640 ha        1 O09      0.146500
     27 H13         0.7280   -2.3490    2.5600 hn        1 O09      0.481800
@<TRIPOS>BOND
     1    1    2 1   
     2    1    4 1   
     3    1    8 2   
     4    2   17 1   
     5    2   18 1   
     6    2   27 1   
     7    3    5 1   
     8    3   13 1   
     9    4    7 ar  
    10    4   16 ar  
    11    5   12 2   
    12    6   14 1   
    13    7   10 ar  
    14    7   19 1   
    15    8   20 1   
    16    9   14 1   
    17   10   11 ar  
    18   10   21 1   
    19   11   12 1   
    20   11   15 ar  
    21   12   22 1   
    22   13   14 1   
    23   13   23 1   
    24   13   24 1   
    25   15   16 ar  
    26   15   25 1   
    27   16   26 1   
@<TRIPOS>SUBSTRUCTURE
     1 O09         1 TEMP              0 ****  ****    0 ROOT
