@<TRIPOS>MOLECULE
O11
   69    63     1     0     0
SMALL
bcc


@<TRIPOS>ATOM
      1 C14        -0.0980    1.0430    0.3420 c1        1 O11     -0.092000
      2 C13         1.3280    1.0930    0.3030 c1        1 O11     -0.098000
      3 C1         -1.6340   -2.5870   -8.4040 c3        1 O11     -0.058000
      4 C6          0.8560    1.6250   -3.2250 c1        1 O11     -0.149500
      5 C5          0.0300    1.1600   -4.3220 c1        1 O11     -0.149500
      6 C4         -0.4280   -0.1330   -4.3350 c1        1 O11      0.078000
      7 C3         -1.1160   -1.4780   -6.2220 c3        1 O11     -0.024000
      8 C2         -2.0110   -1.4380   -7.4030 c3        1 O11      0.032000
      9 C7          1.1800    0.7670   -2.1970 c1        1 O11     -0.093000
     10 O01        -2.3410   -2.3970   -9.6270 oh        1 O11     -0.341000
     11 O02        -1.8750   -0.1810   -8.0580 oh        1 O11     -0.331000
     12 O03        -1.4360   -0.3930   -5.3510 o         1 O11     -0.219000
     13 C9         -0.0950   -1.0110   -3.2800 c1        1 O11     -0.157000
     14 C8          0.7050   -0.5630   -2.2160 c1        1 O11     -0.095000
     15 C10         2.1290    1.0970   -1.0040 c2        1 O11      0.041000
     16 C11         2.7620    2.4950   -1.2200 c3        1 O11     -0.148500
     17 C25         1.8820    3.5080   -0.6910 c3        1 O11     -0.215500
     18 C12         3.2490    0.0270   -0.9260 c3        1 O11     -0.148500
     19 C26         4.3620    0.3330   -2.0320 c3        1 O11     -0.215500
     20 C15        -0.7810    1.0510    1.6040 c1        1 O11     -0.159000
     21 C18         2.0690    1.1510    1.5050 c2        1 O11     -0.095000
     22 C17         1.3870    1.1590    2.7610 c1        1 O11     -0.205000
     23 C16        -0.0470    1.1080    2.8030 c1        1 O11      0.081000
     24 O04        -0.7140    1.2530    4.0170 os        1 O11     -0.229000
     25 C19        -0.7670    0.0210    4.8160 c3        1 O11     -0.062000
     26 C20        -1.8020    0.1570    5.8710 c3        1 O11      0.039000
     27 O05        -1.5110    1.2930    6.6680 oh        1 O11     -0.327000
     28 C21        -1.8020   -1.0900    6.7400 c3        1 O11     -0.047000
     29 C22        -3.0330   -1.0530    7.7330 c3        1 O11     -0.206333
     30 C23        -1.9020   -2.2480    5.9150 c3        1 O11     -0.206333
     31 C24        -0.5110   -1.1480    7.5360 c3        1 O11     -0.206333
     32 H1         -0.5970    1.0030   -0.4720 ha        1 O11      0.145000
     33 H2         -0.6830   -2.5650   -8.5760 h1        1 O11      0.081500
     34 H3         -1.8950   -3.5170   -7.9890 h1        1 O11      0.081500
     35 H4          1.2100    2.6190   -3.2130 ha        1 O11      0.138000
     36 H5         -0.2070    1.7770   -5.0680 ha        1 O11      0.138000
     37 H6         -1.2410   -2.3310   -5.7420 h1        1 O11      0.095000
     38 H7         -0.1420   -1.3970   -6.5240 h1        1 O11      0.095000
     39 H8         -2.9130   -1.5520   -7.1180 h1        1 O11      0.105000
     40 H9         -2.2990   -3.1060  -10.0920 ho        1 O11      0.209000
     41 H10        -2.7150    0.1360   -8.3000 ho        1 O11      0.224000
     42 H11        -0.4310   -1.9590   -3.2900 ha        1 O11      0.149000
     43 H12         0.9260   -1.1530   -1.5120 ha        1 O11      0.143000
     44 H13         3.6330    2.5400   -0.7560 hc        1 O11      0.081750
     45 H14         2.8970    2.6520   -2.1970 hc        1 O11      0.081750
     46 H15         2.0910    3.6580    0.3150 hc        1 O11      0.076667
     47 H16         0.9210    3.2080   -0.7950 hc        1 O11      0.076667
     48 H17         2.0310    4.4330   -1.2320 hc        1 O11      0.076667
     49 H18         2.8690   -0.8510   -1.0850 hc        1 O11      0.081750
     50 H19         3.6510    0.0480   -0.0470 hc        1 O11      0.081750
     51 H20         3.9120    0.6670   -2.8800 hc        1 O11      0.076667
     52 H21         4.9360    0.9690   -1.7210 hc        1 O11      0.076667
     53 H22         4.8670   -0.5000   -2.2310 hc        1 O11      0.076667
     54 H23        -1.7690    1.0160    1.6320 ha        1 O11      0.148000
     55 H24         3.1140    1.1870    1.4760 ha        1 O11      0.134000
     56 H25         1.8980    1.1980    3.5920 ha        1 O11      0.137000
     57 H26         0.1420   -0.1410    5.2480 h1        1 O11      0.093000
     58 H27        -0.9860   -0.7100    4.2540 h1        1 O11      0.093000
     59 H28        -2.7120    0.2720    5.4370 h1        1 O11      0.087000
     60 H29        -2.1830    1.8290    6.6610 ho        1 O11      0.214000
     61 H30        -2.9850   -0.1530    8.3400 hc        1 O11      0.078556
     62 H31        -3.0050   -1.8390    8.3110 hc        1 O11      0.078556
     63 H32        -3.8600   -1.0570    7.2240 hc        1 O11      0.078556
     64 H33        -1.0970   -2.4030    5.5080 hc        1 O11      0.078556
     65 H34        -2.6270   -2.1010    5.1990 hc        1 O11      0.078556
     66 H35        -2.1380   -3.0070    6.4590 hc        1 O11      0.078556
     67 H36         0.2690   -1.5000    6.9180 hc        1 O11      0.078556
     68 H37        -0.2870   -0.2400    7.8700 hc        1 O11      0.078556
     69 H38        -0.6240   -1.7520    8.2930 hc        1 O11      0.078556
@<TRIPOS>BOND
     1    1    2 1   
     2    1   32 1   
     3    2   21 1   
     4    3    8 1   
     5    3   10 1   
     6    3   33 1   
     7    3   34 1   
     8    4    5 1   
     9    4   35 1   
    10    5   36 1   
    11    6   13 1   
    12    7    8 1   
    13    7   12 1   
    14    7   37 1   
    15    7   38 1   
    16    8   11 1   
    17    8   39 1   
    18    9   14 1   
    19    9   15 1   
    20   10   40 1   
    21   11   41 1   
    22   13   42 1   
    23   14   43 1   
    24   15   16 1   
    25   15   18 1   
    26   16   17 1   
    27   16   44 1   
    28   16   45 1   
    29   17   46 1   
    30   17   47 1   
    31   17   48 1   
    32   18   19 1   
    33   18   49 1   
    34   18   50 1   
    35   19   51 1   
    36   19   52 1   
    37   19   53 1   
    38   20   23 1   
    39   20   54 1   
    40   21   22 1   
    41   21   55 1   
    42   22   56 1   
    43   23   24 1   
    44   24   25 1   
    45   25   26 1   
    46   25   57 1   
    47   25   58 1   
    48   26   27 1   
    49   26   28 1   
    50   26   59 1   
    51   27   60 1   
    52   28   29 1   
    53   28   30 1   
    54   28   31 1   
    55   29   61 1   
    56   29   62 1   
    57   29   63 1   
    58   30   64 1   
    59   30   65 1   
    60   30   66 1   
    61   31   67 1   
    62   31   68 1   
    63   31   69 1   
@<TRIPOS>SUBSTRUCTURE
     1 O11         1 TEMP              0 ****  ****    0 ROOT
