@<TRIPOS>MOLECULE
O11
   69    70     1     0     0
SMALL
bcc


@<TRIPOS>ATOM
      1 C14         0.6060   -0.6440   -1.0530 ca        1 O11     -0.094000
      2 C13         0.6560   -1.7820   -0.2290 ca        1 O11     -0.106300
      3 C1         -6.8630    3.5660    1.0510 c3        1 O11      0.096400
      4 C6         -2.9550   -2.2470   -0.8830 ca        1 O11     -0.094500
      5 C5         -4.1180   -1.4870   -0.8480 ca        1 O11     -0.181500
      6 C4         -4.1590   -0.3230   -0.0600 ca        1 O11      0.122100
      7 C3         -5.4170    1.5590    0.6780 c3        1 O11      0.095400
      8 C2         -6.7960    2.1670    0.4210 c3        1 O11      0.137100
      9 C7         -1.8190   -1.8700   -0.1540 ca        1 O11     -0.101300
     10 O02        -7.8520    1.3770    0.9290 oh        1 O11     -0.580800
     11 C9         -3.0400    0.0650    0.6850 ca        1 O11     -0.181500
     12 C8         -1.8850   -0.7110    0.6320 ca        1 O11     -0.094500
     13 C10        -0.5510   -2.6920   -0.1370 c3        1 O11      0.056600
     14 C11        -0.4640   -3.7090   -1.2850 c3        1 O11     -0.069400
     15 C25        -0.4190   -3.1050   -2.6640 c3        1 O11     -0.097600
     16 C12        -0.5220   -3.4750    1.1930 c3        1 O11     -0.069400
     17 C26        -1.7650   -4.2830    1.4650 c3        1 O11     -0.097600
     18 C15         1.6970    0.2010   -1.1880 ca        1 O11     -0.183500
     19 C18         1.8450   -2.0560    0.4510 ca        1 O11     -0.094000
     20 C17         2.9570   -1.2200    0.3330 ca        1 O11     -0.183500
     21 C16         2.8830   -0.0900   -0.4860 ca        1 O11      0.124100
     22 O04         3.9050    0.8200   -0.6750 os        1 O11     -0.320900
     23 C19         5.1500    0.4970   -0.0460 c3        1 O11      0.097400
     24 C20         6.1280    1.5960   -0.4820 c3        1 O11      0.142100
     25 O05         6.6480    1.3100   -1.7670 oh        1 O11     -0.582800
     26 C21         7.2500    1.8170    0.5550 c3        1 O11     -0.086000
     27 C22         8.2590    2.7960   -0.0360 c3        1 O11     -0.088767
     28 C23         6.6710    2.4240    1.8240 c3        1 O11     -0.088767
     29 C24         7.9560    0.5130    0.8860 c3        1 O11     -0.088767
     30 H1         -0.3220   -0.4190   -1.6050 ha        1 O11      0.138500
     31 H2         -7.9000    3.9750    0.9280 h1        1 O11      0.033200
     32 H3         -6.6160    3.5150    2.1450 h1        1 O11      0.033200
     33 H4         -2.9460   -3.1600   -1.4980 ha        1 O11      0.139000
     34 H5         -5.0070   -1.7820   -1.4230 ha        1 O11      0.143500
     35 H6         -4.6220    2.2750    0.3390 h1        1 O11      0.053200
     36 H7         -5.2800    1.3160    1.7640 h1        1 O11      0.053200
     37 H8         -6.9920    2.2270   -0.6870 h1        1 O11      0.105700
     38 H9         -6.1020    5.2880    0.6350 ho        1 O11      0.407000
     39 H10        -7.6050    1.0940    1.8180 ho        1 O11      0.399000
     40 H11        -3.0560    0.9700    1.3080 ha        1 O11      0.143500
     41 H12        -1.0040   -0.4040    1.2160 ha        1 O11      0.139000
     42 H13         0.4680   -4.3190   -1.1280 hc        1 O11      0.041700
     43 H14        -1.3320   -4.4160   -1.2110 hc        1 O11      0.041700
     44 H15        -0.4540   -3.9130   -3.4340 hc        1 O11      0.037367
     45 H16        -1.2840   -2.4170   -2.8310 hc        1 O11      0.037367
     46 H17         0.5210   -2.5190   -2.8090 hc        1 O11      0.037367
     47 H18         0.3560   -4.1740    1.1840 hc        1 O11      0.041700
     48 H19        -0.3690   -2.7390    2.0260 hc        1 O11      0.041700
     49 H20        -2.6810   -3.6450    1.4090 hc        1 O11      0.037367
     50 H21        -1.8730   -5.1150    0.7290 hc        1 O11      0.037367
     51 H22        -1.7070   -4.7280    2.4880 hc        1 O11      0.037367
     52 H23         1.6550    1.0890   -1.8330 ha        1 O11      0.142000
     53 H24         1.9350   -2.9420    1.0970 ha        1 O11      0.138500
     54 H25         3.8740   -1.4640    0.8850 ha        1 O11      0.142000
     55 H26         5.0100    0.4910    1.0660 h1        1 O11      0.044200
     56 H27         5.5020   -0.5100   -0.3930 h1        1 O11      0.044200
     57 H28         5.5630    2.5620   -0.6330 h1        1 O11      0.098700
     58 H29         7.1540    0.4910   -1.7030 ho        1 O11      0.395000
     59 H30         7.7670    3.7760   -0.2410 hc        1 O11      0.038700
     60 H31         9.1020    2.9570    0.6760 hc        1 O11      0.038700
     61 H32         8.6670    2.3970   -0.9970 hc        1 O11      0.038700
     62 H33         6.0450    1.6830    2.3770 hc        1 O11      0.038700
     63 H34         7.4990    2.7500    2.4990 hc        1 O11      0.038700
     64 H35         6.0420    3.3130    1.5790 hc        1 O11      0.038700
     65 H36         8.4130    0.0700   -0.0310 hc        1 O11      0.038700
     66 H37         8.7700    0.6980    1.6290 hc        1 O11      0.038700
     67 H38         7.2420   -0.2250    1.3240 hc        1 O11      0.038700
     68 O03        -5.3630    0.3560   -0.0910 os        1 O11     -0.321900
     69 O01        -5.9140    4.3770    0.3830 oh        1 O11     -0.599800
@<TRIPOS>BOND
     1    1    2 ar  
     2    1   18 ar  
     3    1   30 1   
     4    2   13 1   
     5    2   19 ar  
     6    3    8 1   
     7    3   31 1   
     8    3   32 1   
     9    3   69 1   
    10    4    5 ar  
    11    4    9 ar  
    12    4   33 1   
    13    5    6 ar  
    14    5   34 1   
    15    6   11 ar  
    16    6   68 1   
    17    7    8 1   
    18    7   35 1   
    19    7   36 1   
    20    7   68 1   
    21    8   10 1   
    22    8   37 1   
    23    9   12 ar  
    24    9   13 1   
    25   10   39 1   
    26   11   12 ar  
    27   11   40 1   
    28   12   41 1   
    29   13   14 1   
    30   13   16 1   
    31   14   15 1   
    32   14   42 1   
    33   14   43 1   
    34   15   44 1   
    35   15   45 1   
    36   15   46 1   
    37   16   17 1   
    38   16   47 1   
    39   16   48 1   
    40   17   49 1   
    41   17   50 1   
    42   17   51 1   
    43   18   21 ar  
    44   18   52 1   
    45   19   20 ar  
    46   19   53 1   
    47   20   21 ar  
    48   20   54 1   
    49   21   22 1   
    50   22   23 1   
    51   23   24 1   
    52   23   55 1   
    53   23   56 1   
    54   24   25 1   
    55   24   26 1   
    56   24   57 1   
    57   25   58 1   
    58   26   27 1   
    59   26   28 1   
    60   26   29 1   
    61   27   59 1   
    62   27   60 1   
    63   27   61 1   
    64   28   62 1   
    65   28   63 1   
    66   28   64 1   
    67   29   65 1   
    68   29   66 1   
    69   29   67 1   
    70   38   69 1   
@<TRIPOS>SUBSTRUCTURE
     1 O11         1 TEMP              0 ****  ****    0 ROOT
