@<TRIPOS>MOLECULE
O12
   55    54     1     0     0
SMALL
bcc


@<TRIPOS>ATOM
      1 N          -7.2330    1.9010    1.3390 n3        1 O12     -0.893800
      2 CA         -7.4390    1.0070    0.2060 c3        1 O12      0.017500
      3 CB         -6.3800   -0.0910    0.1020 c3        1 O12     -0.063400
      4 CG         -5.0110    0.4700   -0.2150 c3        1 O12     -0.095400
      5 CD         -4.0090   -0.6650   -0.4230 c3        1 O12      0.077000
      6 NE         -2.7140   -0.2180   -0.8760 n         1 O12     -0.559900
      7 C1         -1.5320   -0.6330   -0.3050 c         1 O12      0.648100
      8 O1         -1.4890   -1.5580    0.5330 o         1 O12     -0.622100
      9 C2         -0.2660    0.0610   -0.7880 c3        1 O12     -0.154400
     10 C3          0.9610   -0.5290   -0.1310 c3        1 O12     -0.072400
     11 C4          2.2200    0.1640   -0.6070 c3        1 O12     -0.079400
     12 C5          3.4490   -0.4270    0.0500 c3        1 O12     -0.078400
     13 C6          4.7100    0.2630   -0.4230 c3        1 O12     -0.078400
     14 C7          5.9390   -0.3280    0.2340 c3        1 O12     -0.079400
     15 C8          7.2010    0.3620   -0.2390 c3        1 O12     -0.078400
     16 C9          8.4300   -0.2290    0.4180 c3        1 O12     -0.079400
     17 C10         9.6920    0.4600   -0.0550 c3        1 O12     -0.079400
     18 C11        10.9220   -0.1300    0.6020 c3        1 O12     -0.080400
     19 C12        12.1810    0.5530    0.1340 c3        1 O12     -0.092100
     20 C          -8.8520    0.3320    0.1600 c         1 O12      0.888600
     21 O          -9.6860    0.6410    1.0580 o         1 O12     -0.842300
     22 OXT        -9.0830   -0.4660   -0.7890 o         1 O12     -0.842300
     23 HN         -8.0870    2.4210    1.4640 hn        1 O12      0.331800
     24 HNA        -7.1220    1.3440    2.1680 hn        1 O12      0.331800
     25 HA         -7.3710    1.6500   -0.7200 h1        1 O12      0.038700
     26 HB         -6.3360   -0.6810    1.0540 hc        1 O12      0.051200
     27 HBA        -6.7110   -0.7910   -0.7130 hc        1 O12      0.051200
     28 HG         -5.0780    1.1010   -1.1410 hc        1 O12      0.039700
     29 HGA        -4.6690    1.1360    0.6180 hc        1 O12      0.039700
     30 HD         -3.8850   -1.2390    0.5400 h1        1 O12      0.057700
     31 HDA        -4.4180   -1.3790   -1.1960 h1        1 O12      0.057700
     32 HNE        -2.7030    0.5950   -1.4440 hn        1 O12      0.298500
     33 H2         -0.1890   -0.0430   -1.9030 hc        1 O12      0.056200
     34 H2A        -0.3360    1.1550   -0.5500 hc        1 O12      0.056200
     35 H3          0.8670   -0.4370    0.9830 hc        1 O12      0.058700
     36 H3A         1.0140   -1.6270   -0.3600 hc        1 O12      0.058700
     37 H4          2.3060    0.0670   -1.7220 hc        1 O12      0.035200
     38 H4A         2.1590    1.2590   -0.3740 hc        1 O12      0.035200
     39 H5          3.3620   -0.3300    1.1640 hc        1 O12      0.042200
     40 H5A         3.5090   -1.5230   -0.1820 hc        1 O12      0.042200
     41 H6          4.7970    0.1670   -1.5380 hc        1 O12      0.037700
     42 H6A         4.6500    1.3590   -0.1910 hc        1 O12      0.037700
     43 H7          5.8530   -0.2310    1.3480 hc        1 O12      0.040200
     44 H7A         6.0000   -1.4230    0.0010 hc        1 O12      0.040200
     45 H8          7.2870    0.2660   -1.3530 hc        1 O12      0.038700
     46 H8A         7.1410    1.4580   -0.0060 hc        1 O12      0.038700
     47 H9          8.3440   -0.1320    1.5320 hc        1 O12      0.039200
     48 H9A         8.4900   -1.3250    0.1850 hc        1 O12      0.039200
     49 H10         9.7780    0.3640   -1.1690 hc        1 O12      0.038700
     50 H10A        9.6320    1.5560    0.1780 hc        1 O12      0.038700
     51 H11        10.8320   -0.0340    1.7160 hc        1 O12      0.038200
     52 H11A       10.9790   -1.2260    0.3690 hc        1 O12      0.038200
     53 H12        12.3000    0.4470   -0.9710 hc        1 O12      0.031033
     54 H12A       12.1530    1.6430    0.3790 hc        1 O12      0.031033
     55 H12B       13.0750    0.1030    0.6300 hc        1 O12      0.031033
@<TRIPOS>BOND
     1    1    2 1   
     2    1   23 1   
     3    1   24 1   
     4    2    3 1   
     5    2   20 1   
     6    2   25 1   
     7    3    4 1   
     8    3   26 1   
     9    3   27 1   
    10    4    5 1   
    11    4   28 1   
    12    4   29 1   
    13    5    6 1   
    14    5   30 1   
    15    5   31 1   
    16    6    7 1   
    17    6   32 1   
    18    7    8 2   
    19    7    9 1   
    20    9   10 1   
    21    9   33 1   
    22    9   34 1   
    23   10   11 1   
    24   10   35 1   
    25   10   36 1   
    26   11   12 1   
    27   11   37 1   
    28   11   38 1   
    29   12   13 1   
    30   12   39 1   
    31   12   40 1   
    32   13   14 1   
    33   13   41 1   
    34   13   42 1   
    35   14   15 1   
    36   14   43 1   
    37   14   44 1   
    38   15   16 1   
    39   15   45 1   
    40   15   46 1   
    41   16   17 1   
    42   16   47 1   
    43   16   48 1   
    44   17   18 1   
    45   17   49 1   
    46   17   50 1   
    47   18   19 1   
    48   18   51 1   
    49   18   52 1   
    50   19   53 1   
    51   19   54 1   
    52   19   55 1   
    53   20   21 1   
    54   20   22 1   
@<TRIPOS>SUBSTRUCTURE
     1 O12         1 TEMP              0 ****  ****    0 ROOT
