@<TRIPOS>MOLECULE
O13
   40    37     1     0     0
SMALL
bcc


@<TRIPOS>ATOM
      1 O           0.8150   -2.5710    0.2560 o         1 O13     -0.350700
      2 N1          9.3940   -1.8540    0.7800 n3        1 O13     -0.420000
      3 C2          5.4030    0.4770    2.2750 c2        1 O13     -0.280000
      4 N2          1.7750   -1.8970    0.4530 n2        1 O13      0.240700
      5 C3          2.2880    0.3320   -1.4430 c1        1 O13      0.066000
      6 N3         -0.8950   -1.4310   -1.7810 n3        1 O13     -0.065000
      7 C4          3.2130    1.2080   -1.7540 c2        1 O13     -0.370000
      8 N4          6.4570   -1.5830    1.2280 n2        1 O13     -0.210000
      9 C5          4.4000    1.6480   -1.0470 c2        1 O13     -0.040000
     10 C6          2.6570   -1.1310    0.5190 c1        1 O13     -0.205000
     11 C7         -2.4000    0.5390   -1.4240 c3        1 O13     -0.183000
     12 C8         -2.5660    0.0660    0.0030 c3        1 O13     -0.173000
     13 C9         -2.5260   -1.4460    0.0840 c3        1 O13     -0.187000
     14 C10        -1.5070   -2.0630   -0.8100 c2        1 O13      0.130000
     15 C12        -1.1210   -0.0060   -2.0480 c3        1 O13     -0.088000
     16 C13         4.5770    1.5630    0.2420 c1        1 O13     -0.236000
     17 C14         4.7940    1.5500    1.5330 c2        1 O13      0.001000
     18 HN1         9.7100   -2.6260    1.3300 hn        1 O13      0.148000
     19 HN1A        9.6290   -2.0190   -0.1760 hn        1 O13      0.148000
     20 H3          5.3520    0.5360    3.3750 ha        1 O13      0.173000
     21 H4          3.0790    1.7060   -2.7470 ha        1 O13      0.205000
     22 HN4         7.4150   -1.7760    0.9790 hn        1 O13      0.279000
     23 H6          5.1870    2.0890   -1.6890 ha        1 O13      0.155000
     24 H7         -2.3460    1.6600   -1.4530 hc        1 O13      0.121500
     25 H8         -1.2600   -3.1370   -0.6290 h4        1 O13      0.210000
     26 H8A        -3.2870    0.2290   -2.0360 hc        1 O13      0.121500
     27 H9         -1.7530    0.5000    0.6430 hc        1 O13      0.118500
     28 H9A        -3.5430    0.4350    0.4130 hc        1 O13      0.118500
     29 H10        -3.5270   -1.8850   -0.1930 hc        1 O13      0.154000
     30 H10A       -2.3020   -1.7740    1.1390 hc        1 O13      0.154000
     31 H11         0.3530   -3.0960   -2.2160 h1        1 O13      0.139333
     32 H11A       -0.2060   -2.0950   -3.6580 h1        1 O13      0.139333
     33 H11B        1.0770   -1.4380   -2.5030 h1        1 O13      0.139333
     34 H12        -0.2140    0.5420   -1.6450 h1        1 O13      0.141000
     35 H12A       -1.1550    0.1320   -3.1670 h1        1 O13      0.141000
     36 H13         3.5390   -0.5660    0.7650 ha        1 O13      0.333000
     37 H14         4.4810    2.4230    2.1420 ha        1 O13      0.158000
     38 H131        9.8550   -1.0230    1.0900 hn        1 O13      0.148000
     39 C11         0.1370   -2.0590   -2.5900 c3        1 O13     -0.142000
     40 C1          6.0460   -0.5450    1.7210 c1        1 O13      0.066000
@<TRIPOS>BOND
     1    1    4 2   
     2    2   18 1   
     3    2   19 1   
     4    2   38 1   
     5    3   17 1   
     6    3   20 1   
     7    3   40 1   
     8    4   10 1   
     9    5    7 1   
    10    6   14 1   
    11    6   15 1   
    12    6   39 1   
    13    7    9 1   
    14    7   21 1   
    15    8   22 1   
    16    8   40 1   
    17    9   16 1   
    18    9   23 1   
    19   10   36 1   
    20   11   12 1   
    21   11   15 1   
    22   11   24 1   
    23   11   26 1   
    24   12   13 1   
    25   12   27 1   
    26   12   28 1   
    27   13   14 1   
    28   13   29 1   
    29   13   30 1   
    30   14   25 1   
    31   15   34 1   
    32   15   35 1   
    33   16   17 1   
    34   17   37 1   
    35   31   39 1   
    36   32   39 1   
    37   33   39 1   
@<TRIPOS>SUBSTRUCTURE
     1 O13         1 TEMP              0 ****  ****    0 ROOT
