@<TRIPOS>MOLECULE
O13
   39    34     1     0     0
SMALL
bcc


@<TRIPOS>ATOM
      1 O           0.4880   -0.4210   -1.1090 os        1 O13     -0.279800
      2 C1          0.7040    0.6140    5.3560 c1        1 O13      0.509600
      3 N1         -0.6090    0.8010    5.9350 n3        1 O13     -0.864400
      4 C2          0.8560    0.4050    3.8260 c1        1 O13     -0.052500
      5 N2          1.8860   -0.3630   -1.1490 n1        1 O13     -0.375800
      6 C3          1.2160   -0.8540    3.4100 c1        1 O13     -0.047000
      7 N3         -2.0310    0.1300   -2.6310 n3        1 O13     -0.730600
      8 C4          1.7170   -1.0470    2.1260 c1        1 O13     -0.047000
      9 N4          1.7470    0.6250    6.1100 n1        1 O13     -0.621800
     10 C5          1.8510    0.0220    1.2730 c1        1 O13     -0.052500
     11 C6          2.5740   -0.1530   -0.0300 c1        1 O13      0.286300
     12 C7         -0.0080   -1.2480   -2.2140 c3        1 O13      0.159100
     13 C8          0.5790   -0.7800   -3.4430 c3        1 O13     -0.100400
     14 C9          0.0680    0.5510   -3.8380 c3        1 O13     -0.077400
     15 C10        -1.4440    0.6040   -3.8580 c3        1 O13      0.168800
     16 C11        -3.4740    0.0770   -2.7780 c3        1 O13      0.158100
     17 C12        -1.5390   -1.1800   -2.2380 c3        1 O13      0.167800
     18 C13         1.4860    1.2970    1.6940 c1        1 O13     -0.058000
     19 C14         0.9910    1.4870    2.9650 c1        1 O13     -0.058000
     20 HN1        -1.3030    1.0110    5.4120 hn        1 O13      0.399800
     21 HN1A       -0.7330    0.6850    6.8270 hn        1 O13      0.399800
     22 H3          1.1230   -1.6010    4.0060 ha        1 O13      0.086000
     23 H4          1.9760   -1.9560    1.8260 ha        1 O13      0.086000
     24 HN4         1.6570    0.7500    7.0140 DU        1 O13      0.138000
     25 H6          3.5710   -0.1110   -0.0560 ha        1 O13      0.099500
     26 H7          0.2710   -2.1930   -2.0610 h1        1 O13      0.063700
     27 H8          1.5340   -0.7260   -3.3310 hc        1 O13      0.054700
     28 H8A         0.3780   -1.4220   -4.1560 hc        1 O13      0.054700
     29 H9          0.3950    1.2070   -3.2150 hc        1 O13      0.053700
     30 H9A         0.4060    0.7720   -4.7410 hc        1 O13      0.053700
     31 H10        -1.7270    1.5280   -4.0060 h1        1 O13      0.029700
     32 H10A       -1.7620    0.0600   -4.5830 h1        1 O13      0.029700
     33 H11        -3.8850   -0.0310   -1.9040 h1        1 O13      0.031700
     34 H11A       -3.7220   -0.6990   -3.3620 h1        1 O13      0.031700
     35 H11B       -3.8020    0.9360   -3.2010 h1        1 O13      0.031700
     36 H12        -1.8730   -1.8390   -2.8600 h1        1 O13      0.043700
     37 H12A       -1.8780   -1.3870   -1.3470 h1        1 O13      0.043700
     38 H13         1.5830    2.0750    1.0750 ha        1 O13      0.091500
     39 H14         0.7370    2.3750    3.2580 ha        1 O13      0.091500
@<TRIPOS>BOND
     1    1    5 1   
     2    1   12 1   
     3    2    3 1   
     4    2    9 3   
     5    3   20 1   
     6    3   21 1   
     7    4   19 3   
     8    5   11 3   
     9    6    8 3   
    10    6   22 1   
    11    7   15 1   
    12    7   16 1   
    13    7   17 1   
    14    8   23 1   
    15   10   18 3   
    16   11   25 1   
    17   12   13 1   
    18   12   17 1   
    19   12   26 1   
    20   13   14 1   
    21   13   27 1   
    22   13   28 1   
    23   14   15 1   
    24   14   29 1   
    25   14   30 1   
    26   15   31 1   
    27   15   32 1   
    28   16   33 1   
    29   16   34 1   
    30   16   35 1   
    31   17   36 1   
    32   17   37 1   
    33   18   38 1   
    34   19   39 1   
@<TRIPOS>SUBSTRUCTURE
     1 O13         1 TEMP              0 ****  ****    0 ROOT
