@<TRIPOS>MOLECULE
O13
   40    37     1     0     0
SMALL
bcc


@<TRIPOS>ATOM
      1 O           0.5300   -0.5460   -0.0240 o         1 O13     -0.575700
      2 N1          8.1540   -0.1290    1.9460 nz        1 O13     -0.059000
      3 C2          6.2610    0.3980    0.4260 c2        1 O13     -0.133000
      4 N2          1.5340   -1.1920    0.2710 n2        1 O13     -0.061300
      5 C3          5.6470    1.5790   -0.2640 c3        1 O13      0.020000
      6 N3         -1.7510   -1.5290   -1.0260 nx        1 O13     -0.019000
      7 C4          4.2180    1.5520   -0.2690 c1        1 O13     -0.233000
      8 N4          8.6350    1.1320    0.0020 n2        1 O13     -0.216000
      9 C5          3.0210    1.5410   -0.2920 c1        1 O13     -0.120000
     10 C6          2.5100   -1.7840    0.5630 c1        1 O13     -0.292000
     11 C7         -2.0720   -1.5640   -3.4790 c2        1 O13     -0.058000
     12 C8         -0.9150   -0.7090   -3.7920 c3        1 O13     -0.229000
     13 C9         -2.1910    0.2520    0.7100 c3        1 O13     -0.355000
     14 C10        -2.1180   -0.1720   -0.6710 c1        1 O13      0.133000
     15 C12        -2.4550   -1.9310   -2.2450 c2        1 O13     -0.186000
     16 C13         4.9070   -1.7480    1.0410 c2        1 O13      0.000000
     17 C14         5.6290   -0.7000    0.7660 c1        1 O13     -0.207000
     18 HN1         7.7670    0.4030    2.7320 hn        1 O13      0.262333
     19 HN1A        9.1750   -0.1750    2.0310 hn        1 O13      0.262333
     20 H3          5.9990    2.5260    0.2390 hc        1 O13      0.100500
     21 H4          6.0190    1.6030   -1.3310 hc        1 O13      0.100500
     22 HN4         8.3760    1.5790   -0.8530 hn        1 O13      0.236000
     23 H6          1.9570    1.4870   -0.3060 ha        1 O13      0.250000
     24 H7         -2.6700   -1.9290   -4.3350 ha        1 O13      0.163000
     25 H8          0.0430   -1.2220   -3.5160 hc        1 O13      0.113333
     26 H8A        -0.8790   -0.4700   -4.8840 hc        1 O13      0.113333
     27 H9         -0.9710    0.2550   -3.2210 hc        1 O13      0.113333
     28 H9A        -1.1270    0.5920    0.9530 hc        1 O13      0.163000
     29 H10        -2.8610    1.1480    0.7880 hc        1 O13      0.163000
     30 H10A       -2.4830   -0.5050    1.4780 hc        1 O13      0.163000
     31 H11        -1.1380   -2.3160    0.8480 hx        1 O13      0.131667
     32 H11A       -2.9010   -2.6290    0.4100 hx        1 O13      0.131667
     33 H11B       -1.5680   -3.5720   -0.4150 hx        1 O13      0.131667
     34 H12        -3.3430   -2.5550   -2.0460 hx        1 O13      0.175000
     35 H12A       -0.7100   -1.4050   -1.2420 hn        1 O13      0.319000
     36 H13         4.3840   -1.8730    2.0070 ha        1 O13      0.186500
     37 H14         4.7830   -2.5830    0.3270 ha        1 O13      0.186500
     38 H131        7.7580   -1.0760    1.9520 hn        1 O13      0.262333
     39 C11        -1.8520   -2.5780    0.0190 c3        1 O13     -0.210000
     40 C1          7.7150    0.5430    0.6670 c2        1 O13      0.074000
@<TRIPOS>BOND
     1    1    4 2   
     2    2   18 1   
     3    2   19 1   
     4    2   38 1   
     5    2   40 1   
     6    3    5 1   
     7    3   17 1   
     8    3   40 1   
     9    4   10 1   
    10    5    7 1   
    11    5   20 1   
    12    5   21 1   
    13    6   14 1   
    14    6   15 1   
    15    6   35 1   
    16    6   39 1   
    17    7    9 1   
    18    8   22 1   
    19    8   40 1   
    20    9   23 1   
    21   11   12 1   
    22   11   15 1   
    23   11   24 1   
    24   12   25 1   
    25   12   26 1   
    26   12   27 1   
    27   13   14 1   
    28   13   28 1   
    29   13   29 1   
    30   13   30 1   
    31   15   34 1   
    32   16   17 1   
    33   16   36 1   
    34   16   37 1   
    35   31   39 1   
    36   32   39 1   
    37   33   39 1   
@<TRIPOS>SUBSTRUCTURE
     1 O13         1 TEMP              0 ****  ****    0 ROOT
