@<TRIPOS>MOLECULE
O13
   40    36     1     0     0
SMALL
bcc


@<TRIPOS>ATOM
      1 O          -1.1240   -1.8750    0.0590 o         1 O13     -0.377700
      2 N1         11.3060    2.8680    0.8250 n3        1 O13     -0.421000
      3 C2          9.4860    0.1540    2.0990 c3        1 O13      0.001000
      4 N2         -0.4730   -1.7620    1.0530 n2        1 O13      0.227700
      5 C3          3.2980   -1.0280    2.8350 c1        1 O13     -0.106000
      6 N3         -2.9680   -1.8270   -2.4670 n3        1 O13     -0.027000
      7 C4          2.1420   -1.2570    3.0420 c1        1 O13     -0.256000
      8 N4          6.9220   -0.3440    2.1180 n1        1 O13     -0.095000
      9 C5          0.7660   -1.5310    3.3350 c3        1 O13      0.103000
     10 C6         -0.0340   -1.6720    2.1340 c1        1 O13     -0.134000
     11 C7         -3.6100    0.3450   -3.4790 c2        1 O13     -0.060000
     12 C8         -2.6190    1.2310   -2.8500 c3        1 O13     -0.226000
     13 C9         -0.8280   -1.4800   -3.6970 c3        1 O13     -0.256000
     14 C10        -1.6880   -2.0570   -2.6420 c2        1 O13      0.123000
     15 C12        -3.7510   -0.9810   -3.3150 c2        1 O13     -0.185000
     16 C13        10.9020    0.2130    0.0320 c1        1 O13      0.228000
     17 C14        10.1490   -0.4210    0.9040 c2        1 O13     -0.491000
     18 HN1        12.0140    3.1450    1.4730 hn        1 O13      0.142333
     19 HN1A       10.8000    3.6760    0.5300 hn        1 O13      0.142333
     20 H3          9.9470   -0.2880    3.0280 hc        1 O13      0.134500
     21 H4          9.6360    1.2710    2.1410 hc        1 O13      0.134500
     22 HN4         4.3290   -0.8240    2.6550 ha        1 O13      0.257000
     23 H6          0.3230   -0.6930    3.9520 hc        1 O13      0.144500
     24 H7         -4.3290    0.8470   -4.1590 ha        1 O13      0.171000
     25 H8         -2.1070    1.8470   -3.6350 hc        1 O13      0.112333
     26 H8A        -3.1410    1.9380   -2.1520 hc        1 O13      0.112333
     27 H9         -1.3650   -0.7870   -4.3920 hc        1 O13      0.144667
     28 H9A        -1.8390    0.6790   -2.2720 hc        1 O13      0.112333
     29 H10        -0.3770   -2.3180   -4.2930 hc        1 O13      0.144667
     30 H10A        0.0100   -0.9170   -3.2030 hc        1 O13      0.144667
     31 H11        -3.0230   -2.9130   -0.6340 h1        1 O13      0.140000
     32 H11A       -4.3750   -1.7070   -0.9000 h1        1 O13      0.140000
     33 H11B       -4.3650   -3.2800   -1.8450 h1        1 O13      0.140000
     34 H12        -1.1840   -2.7570   -1.9250 h4        1 O13      0.217000
     35 H12A       -4.5590   -1.5500   -3.8200 h4        1 O13      0.185000
     36 H13         0.6760   -2.4890    3.9300 hc        1 O13      0.144500
     37 H14        10.0000   -1.5120    0.7570 ha        1 O13      0.192000
     38 H131       11.7400    2.4450    0.0290 hn        1 O13      0.142333
     39 C11        -3.7230   -2.4740   -1.3970 c3        1 O13     -0.134000
     40 C1          8.0640   -0.1270    2.1050 c1        1 O13     -0.110000
@<TRIPOS>BOND
     1    1    4 2   
     2    2   18 1   
     3    2   19 1   
     4    2   38 1   
     5    3   17 1   
     6    3   20 1   
     7    3   21 1   
     8    3   40 1   
     9    4   10 1   
    10    5    7 1   
    11    5   22 1   
    12    6   14 1   
    13    6   15 1   
    14    6   39 1   
    15    7    9 1   
    16    8   40 1   
    17    9   10 1   
    18    9   23 1   
    19    9   36 1   
    20   11   12 1   
    21   11   15 1   
    22   11   24 1   
    23   12   25 1   
    24   12   26 1   
    25   12   28 1   
    26   13   14 1   
    27   13   27 1   
    28   13   29 1   
    29   13   30 1   
    30   14   34 1   
    31   15   35 1   
    32   16   17 1   
    33   17   37 1   
    34   31   39 1   
    35   32   39 1   
    36   33   39 1   
@<TRIPOS>SUBSTRUCTURE
     1 O13         1 TEMP              0 ****  ****    0 ROOT
