@<TRIPOS>MOLECULE
O13
   39    40     1     0     0
SMALL
bcc


@<TRIPOS>ATOM
      1 O           2.1170    0.9260    0.3860 os        1 O13     -0.180300
      2 N1         -6.4560    0.5630   -0.0020 nh        1 O13     -0.961800
      3 C2         -4.1280   -0.1720   -0.0950 ca        1 O13     -0.125900
      4 N2          0.9080    0.4310    0.5790 n2        1 O13     -0.426200
      5 C3         -3.2550   -0.7010    0.8580 ca        1 O13     -0.108500
      6 N3          4.1890   -1.0580   -0.6740 n3        1 O13     -0.726600
      7 C4         -1.9040   -0.3570    0.8340 ca        1 O13     -0.111000
      8 N4         -5.8970   -1.8000   -0.0350 n2        1 O13     -0.826100
      9 C5         -1.4130    0.5140   -0.1460 ca        1 O13     -0.114900
     10 C6         -0.0050    0.9140   -0.2200 ce        1 O13      0.393800
     11 C7          3.1570    0.2790    1.1810 c3        1 O13      0.161100
     12 C8          4.3360    1.2420    1.1330 c3        1 O13     -0.080400
     13 C9          4.9790    1.2580   -0.2350 c3        1 O13     -0.077400
     14 C10         5.3310   -0.1540   -0.6970 c3        1 O13      0.169800
     15 C12         3.5170   -1.1000    0.6150 c3        1 O13      0.149800
     16 C13        -2.2950    1.0340   -1.1070 ca        1 O13     -0.111000
     17 C14        -3.6440    0.6940   -1.0820 ca        1 O13     -0.108500
     18 HN1        -7.3910    0.4190   -0.3040 hn        1 O13      0.400300
     19 HN1A       -6.0690    1.4410   -0.2560 hn        1 O13      0.400300
     20 H3         -3.6330   -1.3950    1.6250 ha        1 O13      0.141500
     21 H4         -1.2270   -0.7810    1.5930 ha        1 O13      0.144000
     22 HN4        -6.8710   -2.0140   -0.0180 hn        1 O13      0.382400
     23 H6          0.2320    1.6610   -1.0080 h4        1 O13      0.003800
     24 H7          2.7970    0.1510    2.2390 h1        1 O13      0.061700
     25 H8          3.9860    2.2730    1.3990 hc        1 O13      0.053200
     26 H8A         5.0780    0.9140    1.9070 hc        1 O13      0.053200
     27 H9          4.2750    1.7300   -0.9690 hc        1 O13      0.053700
     28 H9A         5.9180    1.8690   -0.2110 hc        1 O13      0.053700
     29 H10         6.1790   -0.5420   -0.0590 h1        1 O13      0.029200
     30 H10A        5.7000   -0.1060   -1.7600 h1        1 O13      0.029200
     31 H11         3.5840   -2.9930   -1.2070 h1        1 O13      0.032033
     32 H11A        4.9430   -2.2850   -2.1960 h1        1 O13      0.032033
     33 H11B        5.2710   -2.9160   -0.5170 h1        1 O13      0.032033
     34 H12         2.5730   -1.7000    0.4810 h1        1 O13      0.042700
     35 H12A        4.1480   -1.6200    1.3970 h1        1 O13      0.042700
     36 H13        -1.9180    1.7120   -1.8880 ha        1 O13      0.144000
     37 H14        -4.3190    1.0970   -1.8510 ha        1 O13      0.141500
     38 C11         4.5210   -2.3780   -1.1610 c3        1 O13      0.159100
     39 C1         -5.5800   -0.5400   -0.0680 ce        1 O13      0.651800
@<TRIPOS>BOND
     1    1    4 1   
     2    1   11 1   
     3    2   18 1   
     4    2   19 1   
     5    2   39 1   
     6    3    5 ar  
     7    3   17 ar  
     8    3   39 1   
     9    4   10 2   
    10    5    7 ar  
    11    5   20 1   
    12    6   14 1   
    13    6   15 1   
    14    6   38 1   
    15    7    9 ar  
    16    7   21 1   
    17    8   22 1   
    18    8   39 2   
    19    9   10 1   
    20    9   16 ar  
    21   10   23 1   
    22   11   12 1   
    23   11   15 1   
    24   11   24 1   
    25   12   13 1   
    26   12   25 1   
    27   12   26 1   
    28   13   14 1   
    29   13   27 1   
    30   13   28 1   
    31   14   29 1   
    32   14   30 1   
    33   15   34 1   
    34   15   35 1   
    35   16   17 ar  
    36   16   36 1   
    37   17   37 1   
    38   31   38 1   
    39   32   38 1   
    40   33   38 1   
@<TRIPOS>SUBSTRUCTURE
     1 O13         1 TEMP              0 ****  ****    0 ROOT
