@<TRIPOS>MOLECULE
O14
   39    40     1     0     0
SMALL
bcc


@<TRIPOS>ATOM
      1 O           1.8210   -1.0460   -0.2010 os        1 O14     -0.193300
      2 N1         -6.0440    1.9360    0.3910 nh        1 O14     -0.958800
      3 C2         -4.4180    0.1780   -0.1020 ca        1 O14     -0.132900
      4 N2          0.6580   -0.4220   -0.2780 n2        1 O14     -0.426200
      5 C3         -4.0990   -1.0920    0.3870 ca        1 O14     -0.106000
      6 N3          5.6850    0.5050    0.3610 n3        1 O14     -0.734600
      7 C4         -2.7730   -1.5170    0.4050 ca        1 O14     -0.113500
      8 N4         -6.7400   -0.1540   -0.6340 n2        1 O14     -0.825100
      9 C5         -1.7520   -0.6790   -0.0700 ca        1 O14     -0.115900
     10 C6         -0.3760   -1.1810   -0.0280 ce        1 O14      0.392800
     11 C7          2.9740   -0.1810   -0.4500 c3        1 O14      0.161100
     12 C8          4.1280   -1.1520   -0.6600 c3        1 O14     -0.093400
     13 C9          5.4440   -0.3850   -0.7660 c3        1 O14      0.171300
     14 C11         4.5780    1.4180    0.6120 c3        1 O14      0.171300
     15 C12         3.2310    0.7130    0.7510 c3        1 O14     -0.093400
     16 C13        -2.0810    0.5880   -0.5700 ca        1 O14     -0.113500
     17 C14        -3.4080    1.0140   -0.5870 ca        1 O14     -0.106000
     18 HN1        -6.9620    2.1620    0.6970 hn        1 O14      0.399300
     19 HN1A       -5.3210    2.2810    0.9780 hn        1 O14      0.399300
     20 H3         -4.8960   -1.7620    0.7470 ha        1 O14      0.147500
     21 H4         -2.5280   -2.5180    0.7900 ha        1 O14      0.144000
     22 HN4        -7.6820    0.1760   -0.6290 hn        1 O14      0.383400
     23 H6         -0.2750   -2.2560    0.2340 h4        1 O14      0.004800
     24 H7          2.7970    0.4320   -1.3740 h1        1 O14      0.060700
     25 H8          4.1650   -1.8770    0.1940 hc        1 O14      0.062700
     26 H8A         3.9700   -1.7370   -1.6010 hc        1 O14      0.062700
     27 H9          5.4520    0.1770   -1.7470 h1        1 O14      0.032450
     28 H9A         6.2880   -1.1300   -0.7940 h1        1 O14      0.032450
     29 H10         7.0080    1.8920   -0.6240 h1        1 O14      0.032367
     30 H10A        7.1190    1.7860    1.1930 h1        1 O14      0.032367
     31 H10B        7.7700    0.4320    0.1600 h1        1 O14      0.032367
     32 H11         4.8000    1.9600    1.5740 h1        1 O14      0.032450
     33 H11A        4.4920    2.1960   -0.2050 h1        1 O14      0.032450
     34 H12         2.4270    1.4880    0.8360 hc        1 O14      0.062700
     35 H12A        3.2120    0.0930    1.6840 hc        1 O14      0.062700
     36 H13        -1.2950    1.2540   -0.9580 ha        1 O14      0.144000
     37 H14        -3.6550    2.0050   -0.9970 ha        1 O14      0.147500
     38 C10         6.9520    1.1930    0.2560 c3        1 O14      0.159100
     39 C1         -5.8460    0.6330   -0.1160 ce        1 O14      0.649800
@<TRIPOS>BOND
     1    1    4 1   
     2    1   11 1   
     3    2   18 1   
     4    2   19 1   
     5    2   39 1   
     6    3    5 ar  
     7    3   17 ar  
     8    3   39 1   
     9    4   10 2   
    10    5    7 ar  
    11    5   20 1   
    12    6   13 1   
    13    6   14 1   
    14    6   38 1   
    15    7    9 ar  
    16    7   21 1   
    17    8   22 1   
    18    8   39 2   
    19    9   10 1   
    20    9   16 ar  
    21   10   23 1   
    22   11   12 1   
    23   11   15 1   
    24   11   24 1   
    25   12   13 1   
    26   12   25 1   
    27   12   26 1   
    28   13   27 1   
    29   13   28 1   
    30   14   15 1   
    31   14   32 1   
    32   14   33 1   
    33   15   34 1   
    34   15   35 1   
    35   16   17 ar  
    36   16   36 1   
    37   17   37 1   
    38   29   38 1   
    39   30   38 1   
    40   31   38 1   
@<TRIPOS>SUBSTRUCTURE
     1 O14         1 TEMP              0 ****  ****    0 ROOT
