@<TRIPOS>MOLECULE
O14
   40    37     1     0     0
SMALL
bcc


@<TRIPOS>ATOM
      1 O           0.2960   -1.5630   -1.1630 o         1 O14     -0.413700
      2 N1         10.6740    0.1610    3.4830 n3        1 O14     -0.384000
      3 C2          5.8830    0.3840    1.3270 c3        1 O14     -0.090000
      4 N2          1.4010   -1.4640   -0.7280 n2        1 O14      0.147700
      5 C3          3.8700    2.5150    0.6190 c1        1 O14     -0.031000
      6 N3         -2.1030   -1.2480   -2.5380 n4        1 O14     -0.052000
      7 C4          3.5440    1.3350    0.3830 c1        1 O14     -0.661000
      8 N4          8.2550    0.1990    2.3850 n2        1 O14     -0.179000
      9 C5          3.1470    0.0530    0.1080 c2        1 O14      0.301000
     10 C6          1.8770   -0.2010   -0.4210 c2        1 O14     -0.423000
     11 C7         -3.3080    1.2650   -4.7710 c2        1 O14     -0.124000
     12 C8         -1.5750    0.6710   -1.0100 c3        1 O14     -0.359000
     13 C9         -2.5070   -0.3320   -1.4730 c1        1 O14      0.129000
     14 C11        -2.9440   -0.9660   -3.7590 c3        1 O14     -0.074000
     15 C12        -2.4920    0.2480   -4.4950 c2        1 O14     -0.258000
     16 C13         4.0780   -1.0480    0.3810 c2        1 O14     -0.094000
     17 C14         5.2980   -0.9180    0.9240 c2        1 O14     -0.173000
     18 HN1        10.8090   -0.6990    3.9790 hn        1 O14      0.187000
     19 HN1A       10.7540    0.9310    4.1180 hn        1 O14      0.187000
     20 H3          5.2040    0.9140    2.0730 hc        1 O14      0.206000
     21 H4          5.9490    1.0850    0.4310 hc        1 O14      0.206000
     22 HN4         9.2540    0.1730    2.8370 hn        1 O14      0.404000
     23 H6          1.2330    0.6830   -0.5970 h4        1 O14      0.123000
     24 H7         -2.9750    2.1270   -5.3700 ha        1 O14      0.138500
     25 H8         -2.1430    1.5810   -0.6750 hc        1 O14      0.170000
     26 H8A        -4.3550    1.3080   -4.4370 ha        1 O14      0.138500
     27 H9         -1.0800    0.2280   -0.0850 hc        1 O14      0.170000
     28 H9A        -0.7420    0.9690   -1.6990 hc        1 O14      0.170000
     29 H10        -1.6200   -2.8480   -1.2110 hx        1 O14      0.143000
     30 H10A       -3.3960   -2.7390   -1.6970 hx        1 O14      0.143000
     31 H10B       -2.1390   -3.3550   -2.8940 hx        1 O14      0.143000
     32 H11        -1.1030   -1.1690   -2.7990 hn        1 O14      0.237000
     33 H11A       -2.8540   -1.8650   -4.4370 hx        1 O14      0.145000
     34 H12        -1.4500    0.2300   -4.8570 ha        1 O14      0.148000
     35 H12A       -4.0170   -0.8750   -3.4200 hx        1 O14      0.145000
     36 H13         3.7340   -2.0640    0.1120 ha        1 O14      0.156000
     37 H14         5.9220   -1.8120    1.0890 ha        1 O14      0.127000
     38 H131       11.3670    0.2450    2.7640 hn        1 O14      0.187000
     39 C10        -2.3370   -2.6410   -2.0530 c3        1 O14     -0.160000
     40 C1          7.1990    0.2610    1.9110 c1        1 O14      0.223000
@<TRIPOS>BOND
     1    1    4 2   
     2    2   18 1   
     3    2   19 1   
     4    2   38 1   
     5    3   17 1   
     6    3   20 1   
     7    3   21 1   
     8    3   40 1   
     9    4   10 1   
    10    5    7 1   
    11    6   13 1   
    12    6   14 1   
    13    6   32 1   
    14    6   39 1   
    15    7    9 1   
    16    8   22 1   
    17    8   40 1   
    18    9   10 1   
    19    9   16 1   
    20   10   23 1   
    21   11   15 1   
    22   11   24 1   
    23   11   26 1   
    24   12   13 1   
    25   12   25 1   
    26   12   27 1   
    27   12   28 1   
    28   14   15 1   
    29   14   33 1   
    30   14   35 1   
    31   15   34 1   
    32   16   17 1   
    33   16   36 1   
    34   17   37 1   
    35   29   39 1   
    36   30   39 1   
    37   31   39 1   
@<TRIPOS>SUBSTRUCTURE
     1 O14         1 TEMP              0 ****  ****    0 ROOT
