@<TRIPOS>MOLECULE
O14
   40    38     1     0     0
SMALL
bcc


@<TRIPOS>ATOM
      1 O           1.6360   -4.3870    3.2810 oh        1 O14     -0.204000
      2 N1          5.3290    0.3580   -2.6000 n8        1 O14     -0.334000
      3 C2          4.2330    0.2720   -0.3830 c3        1 O14     -0.248000
      4 N2          1.8610   -3.4000    2.4660 n2        1 O14     -0.009000
      5 C3          5.3430   -0.1040    2.6830 c1        1 O14      0.254000
      6 N3          1.1260    0.7220   -3.3040 n7        1 O14     -0.117000
      7 C4          4.3350   -0.7740    2.2680 c1        1 O14     -0.610000
      8 N4          3.7820    2.0640   -2.0610 n2        1 O14     -0.308000
      9 C5          3.2880   -1.5100    1.9150 c2        1 O14      0.256000
     10 C6          2.9100   -2.6630    2.7420 c2        1 O14     -0.176000
     11 C7         -0.9320    0.8870   -0.4880 c3        1 O14     -0.121000
     12 C8         -0.0040    1.7180   -1.3610 c3        1 O14     -0.192000
     13 C9          1.0240    0.8540   -2.0090 c2        1 O14     -0.021000
     14 C11        -2.1660   -1.1870   -1.0810 c2        1 O14     -0.187000
     15 C12        -1.9030    0.1010   -1.2890 c2        1 O14     -0.205000
     16 C13         2.4470   -1.1900    0.7240 c3        1 O14     -0.226000
     17 C14         2.8860   -0.2300   -0.2630 c1        1 O14     -0.041000
     18 HN1         1.8200    0.2830   -1.2450 h4        1 O14      0.313000
     19 HN1A        5.6040    0.8970   -3.3970 hn        1 O14      0.209500
     20 H3          4.4140    1.0060    0.4710 hc        1 O14      0.183500
     21 H4          5.0020   -0.5380   -0.2060 hc        1 O14      0.183500
     22 HN4         3.1270    2.3760   -1.3760 hn        1 O14      0.143000
     23 H6          3.5720   -2.8570    3.6150 h4        1 O14      0.182000
     24 H7          0.8270   -4.8300    2.9410 ho        1 O14      0.261000
     25 H8         -1.5060    1.5920    0.1760 hc        1 O14      0.103500
     26 H8A        -0.3260    0.2190    0.1810 hc        1 O14      0.103500
     27 H9          0.5530    2.4560   -0.7170 hc        1 O14      0.126000
     28 H9A        -0.6150    2.3130   -2.0940 hc        1 O14      0.126000
     29 H10         2.7350   -0.6560   -3.2110 h1        1 O14      0.130000
     30 H10A        2.8120    0.5870   -4.5490 h1        1 O14      0.130000
     31 H10B        1.6160   -0.8040   -4.6590 h1        1 O14      0.130000
     32 H11        -2.4460    0.6760   -2.0580 ha        1 O14      0.133000
     33 H11A        0.5050    1.2150   -3.9250 hn        1 O14      0.245000
     34 H12        -2.9220   -1.7300   -1.6650 ha        1 O14      0.123500
     35 H12A       -1.6620   -1.7840   -0.3080 ha        1 O14      0.123500
     36 H13         1.4250   -0.8680    1.1020 hc        1 O14      0.188000
     37 H14         2.2470   -2.1400    0.1260 hc        1 O14      0.188000
     38 H131        6.1010   -0.0820   -2.1460 hn        1 O14      0.209500
     39 C10         2.1270   -0.0870   -3.9620 c3        1 O14     -0.130000
     40 C1          4.4440    0.9980   -1.7160 c2        1 O14      0.086000
@<TRIPOS>BOND
     1    1    4 1   
     2    1   24 1   
     3    2   19 1   
     4    2   38 1   
     5    2   40 1   
     6    3   17 1   
     7    3   20 1   
     8    3   21 1   
     9    3   40 1   
    10    4   10 1   
    11    5    7 1   
    12    6   13 1   
    13    6   33 1   
    14    6   39 1   
    15    7    9 1   
    16    8   22 1   
    17    8   40 1   
    18    9   10 1   
    19    9   16 1   
    20   10   23 1   
    21   11   12 1   
    22   11   15 1   
    23   11   25 1   
    24   11   26 1   
    25   12   13 1   
    26   12   27 1   
    27   12   28 1   
    28   13   18 1   
    29   14   15 1   
    30   14   34 1   
    31   14   35 1   
    32   15   32 1   
    33   16   17 1   
    34   16   36 1   
    35   16   37 1   
    36   29   39 1   
    37   30   39 1   
    38   31   39 1   
@<TRIPOS>SUBSTRUCTURE
     1 O14         1 TEMP              0 ****  ****    0 ROOT
