@<TRIPOS>MOLECULE
O14
   39    34     1     0     0
SMALL
bcc


@<TRIPOS>ATOM
      1 O           0.5460    1.9550   -1.4610 os        1 O14     -0.292800
      2 C1          1.1230    0.0410    5.0870 c1        1 O14      0.509600
      3 N1          0.2140   -0.0000    6.2750 n3        1 O14     -0.865400
      4 C2          0.5050    0.3620    3.5660 c1        1 O14     -0.050500
      5 N2          1.7550    1.5040   -1.5480 n1        1 O14     -0.367800
      6 C3          0.8380    1.6520    3.1170 c1        1 O14     -0.065000
      7 N3         -1.5400   -1.4400   -2.8650 n3        1 O14     -0.734600
      8 C4          1.3280    1.8440    1.7860 c1        1 O14     -0.065000
      9 N4          2.4080   -0.1760    5.2380 n1        1 O14     -0.619800
     10 C5          1.4760    0.7360    0.9200 c1        1 O14     -0.050500
     11 C6          2.3220    0.9060   -0.4970 c1        1 O14      0.282300
     12 C7         -0.3610    1.1510   -2.3100 c3        1 O14      0.160100
     13 C8         -1.4350    0.6250   -1.4700 c3        1 O14     -0.093400
     14 C9         -2.3210   -0.3740   -2.2120 c3        1 O14      0.171300
     15 C10        -2.3950   -2.2490   -3.6450 c3        1 O14      0.159100
     16 C11        -0.4610   -0.9170   -3.7080 c3        1 O14      0.171300
     17 C12         0.4240    0.0700   -2.9720 c3        1 O14     -0.093400
     18 C13         1.1400   -0.5560    1.3730 c1        1 O14     -0.039000
     19 C14         0.6520   -0.7450    2.7040 c1        1 O14     -0.039000
     20 HN1         0.5670   -0.1940    7.1370 hn        1 O14      0.400300
     21 HN1A       -0.6620    0.2080    6.1810 hn        1 O14      0.400300
     22 H3          0.7360    2.4260    3.7210 ha        1 O14      0.074000
     23 H4          1.5610    2.7470    1.4740 ha        1 O14      0.074000
     24 HN4         2.7550   -0.3550    6.0830 DU        1 O14      0.138000
     25 H6          3.2400    0.5640   -0.5640 ha        1 O14      0.098500
     26 H7         -0.7470    1.7310   -2.9990 h1        1 O14      0.060700
     27 H8         -1.0340    0.1740   -0.6810 hc        1 O14      0.062700
     28 H8A        -1.9850    1.3680   -1.1640 hc        1 O14      0.062700
     29 H9         -2.8450    0.1030   -2.8930 h1        1 O14      0.032700
     30 H9A        -2.9280   -0.7770   -1.5790 h1        1 O14      0.032700
     31 H10        -2.4320   -3.1600   -3.2560 h1        1 O14      0.032700
     32 H10A       -2.0470   -2.3000   -4.5660 h1        1 O14      0.032700
     33 H10B       -3.2930   -1.8610   -3.6570 h1        1 O14      0.032700
     34 H11         0.0960   -1.6760   -4.0220 h1        1 O14      0.032700
     35 H11A       -0.8580   -0.4630   -4.4920 h1        1 O14      0.032700
     36 H12         0.9530   -0.4230   -2.2760 hc        1 O14      0.062700
     37 H12A        1.0440    0.4780   -3.6140 hc        1 O14      0.062700
     38 H13         1.2420   -1.3310    0.7720 ha        1 O14      0.098500
     39 H14         0.4180   -1.6490    3.0190 ha        1 O14      0.098500
@<TRIPOS>BOND
     1    1    5 1   
     2    1   12 1   
     3    2    3 1   
     4    2    9 3   
     5    3   20 1   
     6    3   21 1   
     7    4   19 3   
     8    5   11 3   
     9    6    8 3   
    10    6   22 1   
    11    7   14 1   
    12    7   15 1   
    13    7   16 1   
    14    8   23 1   
    15   10   18 3   
    16   11   25 1   
    17   12   13 1   
    18   12   17 1   
    19   12   26 1   
    20   13   14 1   
    21   13   27 1   
    22   13   28 1   
    23   14   29 1   
    24   14   30 1   
    25   15   31 1   
    26   15   32 1   
    27   15   33 1   
    28   16   17 1   
    29   16   34 1   
    30   16   35 1   
    31   17   36 1   
    32   17   37 1   
    33   18   38 1   
    34   19   39 1   
@<TRIPOS>SUBSTRUCTURE
     1 O14         1 TEMP              0 ****  ****    0 ROOT
