@<TRIPOS>MOLECULE
O15
   33    33     1     0     0
SMALL
bcc


@<TRIPOS>ATOM
      1 C1         -0.0740    0.1900   -0.1370 ce        1 O15      0.665800
      2 N1          1.0310   -0.9000   -0.1420 n4        1 O15     -0.904600
      3 O1         -2.6320   -0.1160    7.1830 os        1 O15     -0.092300
      4 C2         -0.7180    0.1880    1.1820 ca        1 O15     -0.288900
      5 N2         -1.9410    0.0490    6.1210 n2        1 O15     -0.335200
      6 O2         -2.6450   -0.3660   10.7240 o         1 O15     -0.791300
      7 C3         -2.0970   -0.0550    1.2800 ca        1 O15     -0.077000
      8 N3         -0.3560    0.9210   -1.1280 n2        1 O15     -0.700100
      9 O3         -4.0770   -0.9500    9.0860 o         1 O15     -0.791300
     10 C4         -2.6980   -0.1050    2.5270 ca        1 O15     -0.143000
     11 C5         -1.9440    0.0920    3.7040 ca        1 O15      0.027100
     12 C6         -2.6100   -0.0340    4.9810 ce        1 O15      0.236800
     13 C7         -1.8990   -0.0400    8.4760 c3        1 O15      0.004800
     14 C8         -2.9980   -0.4970    9.5260 c         1 O15      0.940600
     15 C9         -1.4770    1.3870    8.7240 c3        1 O15     -0.097100
     16 C10        -0.7400   -1.0060    8.5030 c3        1 O15     -0.097100
     17 C11        -0.5680    0.3900    3.5850 ca        1 O15     -0.143000
     18 C12         0.0370    0.4380    2.3410 ca        1 O15     -0.077000
     19 HN1         0.5760   -1.8100   -0.0360 hn        1 O15      0.449133
     20 HN1A        1.6320   -0.7470    0.6740 hn        1 O15      0.449133
     21 H3         -2.6980   -0.2030    0.3700 ha        1 O15      0.130000
     22 HN3         0.0860    0.8510   -2.0170 hn        1 O15      0.448400
     23 H4         -3.7800   -0.3010    2.6070 ha        1 O15      0.170000
     24 H6         -3.7020   -0.2230    4.9550 h4        1 O15      0.024800
     25 H9         -0.5880    1.6670    8.1100 hc        1 O15      0.040533
     26 H9A        -1.2260    1.4880    9.8100 hc        1 O15      0.040533
     27 H9B        -2.3150    2.0840    8.4850 hc        1 O15      0.040533
     28 H10        -1.0580   -2.0010    8.1100 hc        1 O15      0.040533
     29 H10A        0.1240   -0.6370    7.9010 hc        1 O15      0.040533
     30 H10B       -0.4190   -1.1260    9.5680 hc        1 O15      0.040533
     31 H11         0.0280    0.5900    4.4910 ha        1 O15      0.170000
     32 H12         1.1030    0.7060    2.2700 ha        1 O15      0.130000
     33 H13         1.5990   -0.9000   -0.9870 hn        1 O15      0.449133
@<TRIPOS>BOND
     1    1    2 1   
     2    1    4 1   
     3    1    8 2   
     4    2   19 1   
     5    2   20 1   
     6    2   33 1   
     7    3    5 1   
     8    3   13 1   
     9    4    7 ar  
    10    4   18 ar  
    11    5   12 2   
    12    6   14 1   
    13    7   10 ar  
    14    7   21 1   
    15    8   22 1   
    16    9   14 1   
    17   10   11 ar  
    18   10   23 1   
    19   11   12 1   
    20   11   17 ar  
    21   12   24 1   
    22   13   14 1   
    23   13   15 1   
    24   13   16 1   
    25   15   25 1   
    26   15   26 1   
    27   15   27 1   
    28   16   28 1   
    29   16   29 1   
    30   16   30 1   
    31   17   18 ar  
    32   17   31 1   
    33   18   32 1   
@<TRIPOS>SUBSTRUCTURE
     1 O15         1 TEMP              0 ****  ****    0 ROOT
