@<TRIPOS>MOLECULE
O15
   33    33     1     0     0
SMALL
bcc


@<TRIPOS>ATOM
      1 C1         -0.0290    0.2170   -0.1240 ce        1 O15      0.665800
      2 N1          1.0830   -0.8640   -0.1230 n4        1 O15     -0.904600
      3 O1         -2.6560   -0.1390    7.1680 os        1 O15     -0.092300
      4 C2         -0.6860    0.2050    1.1880 ca        1 O15     -0.288900
      5 N2         -1.9570    0.0370    6.1140 n2        1 O15     -0.335200
      6 O2         -2.7030   -0.4050   10.7080 o         1 O15     -0.791300
      7 C3         -2.0640   -0.0490    1.2700 ca        1 O15     -0.077000
      8 N3         -0.3060    0.9510   -1.1150 n2        1 O15     -0.700100
      9 O3         -4.1100   -1.0010    9.0520 o         1 O15     -0.791300
     10 C4         -2.6770   -0.1080    2.5120 ca        1 O15     -0.143000
     11 C5         -1.9360    0.0890    3.6970 ca        1 O15      0.027100
     12 C6         -2.6130   -0.0480    4.9660 ce        1 O15      0.236800
     13 C7         -1.9380   -0.0610    8.4690 c3        1 O15      0.004800
     14 C8         -3.0420   -0.5360    9.5050 c         1 O15      0.940600
     15 C9         -1.5340    1.3700    8.7280 c3        1 O15     -0.097100
     16 C10        -0.7680   -1.0140    8.5030 c3        1 O15     -0.097100
     17 C11        -0.5610    0.3980    3.5920 ca        1 O15     -0.143000
     18 C12         0.0560    0.4560    2.3550 ca        1 O15     -0.077000
     19 HN1         1.6750   -0.7120    0.6990 hn        1 O15      0.449133
     20 HN1A        1.6610   -0.8570   -0.9620 hn        1 O15      0.449133
     21 H3         -2.6550   -0.1980    0.3540 ha        1 O15      0.130000
     22 HN3         0.1450    0.8870   -2.0000 hn        1 O15      0.448400
     23 H4         -3.7580   -0.3140    2.5800 ha        1 O15      0.170000
     24 H6         -3.7030   -0.2450    4.9290 h4        1 O15      0.024800
     25 H9         -1.2950    1.4680    9.8160 hc        1 O15      0.040533
     26 H9A        -2.3780    2.0580    8.4830 hc        1 O15      0.040533
     27 H9B        -0.6420    1.6630    8.1240 hc        1 O15      0.040533
     28 H10        -1.0710   -2.0110    8.1020 hc        1 O15      0.040533
     29 H10A        0.0980   -0.6320    7.9110 hc        1 O15      0.040533
     30 H10B       -0.4570   -1.1360    9.5700 hc        1 O15      0.040533
     31 H11         0.0250    0.5980    4.5050 ha        1 O15      0.170000
     32 H12         1.1200    0.7320    2.2950 ha        1 O15      0.130000
     33 H13         0.6340   -1.7790   -0.0270 hn        1 O15      0.449133
@<TRIPOS>BOND
     1    1    2 1   
     2    1    4 1   
     3    1    8 2   
     4    2   19 1   
     5    2   20 1   
     6    2   33 1   
     7    3    5 1   
     8    3   13 1   
     9    4    7 ar  
    10    4   18 ar  
    11    5   12 2   
    12    6   14 1   
    13    7   10 ar  
    14    7   21 1   
    15    8   22 1   
    16    9   14 1   
    17   10   11 ar  
    18   10   23 1   
    19   11   12 1   
    20   11   17 ar  
    21   12   24 1   
    22   13   14 1   
    23   13   15 1   
    24   13   16 1   
    25   15   25 1   
    26   15   26 1   
    27   15   27 1   
    28   16   28 1   
    29   16   29 1   
    30   16   30 1   
    31   17   18 ar  
    32   17   31 1   
    33   18   32 1   
@<TRIPOS>SUBSTRUCTURE
     1 O15         1 TEMP              0 ****  ****    0 ROOT
