@<TRIPOS>MOLECULE
O15
   33    33     1     0     0
SMALL
bcc


@<TRIPOS>ATOM
      1 C1         -0.0340    0.1900   -0.1270 ce        1 O15      0.665800
      2 N1          1.0530   -0.9170   -0.1280 nz        1 O15     -0.904600
      3 O1         -2.6530   -0.1040    7.1710 os        1 O15     -0.092300
      4 C2         -0.6880    0.1930    1.1870 ca        1 O15     -0.288900
      5 N2         -1.9520    0.0550    6.1150 n2        1 O15     -0.335200
      6 O2         -2.6980   -0.3670   10.7110 o         1 O15     -0.791300
      7 C3         -2.0710   -0.0280    1.2720 ca        1 O15     -0.077000
      8 N3         -0.2960    0.9300   -1.1170 n2        1 O15     -0.700100
      9 O3         -4.1250   -0.9260    9.0590 o         1 O15     -0.791300
     10 C4         -2.6830   -0.0730    2.5150 ca        1 O15     -0.143000
     11 C5         -1.9350    0.1070    3.6990 ca        1 O15      0.027100
     12 C6         -2.6130   -0.0140    4.9700 ce        1 O15      0.236800
     13 C7         -1.9300   -0.0430    8.4700 c3        1 O15      0.004800
     14 C8         -3.0430   -0.4890    9.5100 c         1 O15      0.940600
     15 C9         -1.4890    1.3770    8.7270 c3        1 O15     -0.097100
     16 C10        -0.7840   -1.0260    8.5020 c3        1 O15     -0.097100
     17 C11        -0.5540    0.3830    3.5910 ca        1 O15     -0.143000
     18 C12         0.0620    0.4270    2.3530 ca        1 O15     -0.077000
     19 HN1         1.6500   -0.7780    0.6930 hn        1 O15      0.449133
     20 HN1A        1.6290   -0.9230   -0.9680 hn        1 O15      0.449133
     21 H3         -2.6680   -0.1640    0.3570 ha        1 O15      0.130000
     22 HN3         0.1510    0.8560   -2.0030 hn        1 O15      0.448400
     23 H4         -3.7690   -0.2530    2.5860 ha        1 O15      0.170000
     24 H6         -3.7070   -0.1850    4.9350 h4        1 O15      0.024800
     25 H9         -1.2460    1.4700    9.8160 hc        1 O15      0.040533
     26 H9A        -2.3160    2.0860    8.4850 hc        1 O15      0.040533
     27 H9B        -0.5910    1.6470    8.1210 hc        1 O15      0.040533
     28 H10        -1.1140   -2.0140    8.1020 hc        1 O15      0.040533
     29 H10A        0.0900   -0.6660    7.9090 hc        1 O15      0.040533
     30 H10B       -0.4740   -1.1550    9.5690 hc        1 O15      0.040533
     31 H11         0.0390    0.5700    4.5030 ha        1 O15      0.170000
     32 H12         1.1320    0.6780    2.2900 ha        1 O15      0.130000
     33 H13         0.5830   -1.8210   -0.0300 hn        1 O15      0.449133
@<TRIPOS>BOND
     1    1    2 1   
     2    1    4 1   
     3    1    8 2   
     4    2   19 1   
     5    2   20 1   
     6    2   33 1   
     7    3    5 1   
     8    3   13 1   
     9    4    7 ar  
    10    4   18 ar  
    11    5   12 2   
    12    6   14 1   
    13    7   10 ar  
    14    7   21 1   
    15    8   22 1   
    16    9   14 1   
    17   10   11 ar  
    18   10   23 1   
    19   11   12 1   
    20   11   17 ar  
    21   12   24 1   
    22   13   14 1   
    23   13   15 1   
    24   13   16 1   
    25   15   25 1   
    26   15   26 1   
    27   15   27 1   
    28   16   28 1   
    29   16   29 1   
    30   16   30 1   
    31   17   18 ar  
    32   17   31 1   
    33   18   32 1   
@<TRIPOS>SUBSTRUCTURE
     1 O15         1 TEMP              0 ****  ****    0 ROOT
