@<TRIPOS>MOLECULE
O15
   32    32     1     0     0
SMALL
bcc


@<TRIPOS>ATOM
      1 C1         -5.4000   -0.2910   -0.1130 ce        1 O15      0.657800
      2 N1         -5.7930   -1.2890    0.8100 nh        1 O15     -0.957800
      3 O1          2.3900    0.5210    0.0530 os        1 O15     -0.132300
      4 C2         -3.9380    0.0230   -0.0900 ca        1 O15     -0.161900
      5 N2          1.1780    0.0510   -0.0140 n2        1 O15     -0.392200
      6 O2          5.8540   -0.3190    0.0790 o         1 O15     -0.813300
      7 C3         -3.5030    1.3390    0.0870 ca        1 O15     -0.107000
      8 N3         -6.1820    0.3940   -0.8930 n2        1 O15     -0.834100
      9 O3          4.7170    1.6060    0.2410 o         1 O15     -0.813300
     10 C4         -2.1400    1.6220    0.1230 ca        1 O15     -0.130500
     11 C5         -1.1900    0.5970   -0.0230 ca        1 O15     -0.062900
     12 C6          0.2270    0.9520    0.0340 ce        1 O15      0.304800
     13 C7          3.4660   -0.4840    0.0030 c3        1 O15      0.020800
     14 C8          4.7920    0.3610    0.1190 c         1 O15      0.933600
     15 C9          3.3630   -1.4310    1.1790 c3        1 O15     -0.093100
     16 C10         3.4410   -1.2180   -1.3200 c3        1 O15     -0.093100
     17 C11        -1.6370   -0.7190   -0.2170 ca        1 O15     -0.130500
     18 C12        -3.0000   -1.0030   -0.2500 ca        1 O15     -0.107000
     19 HN1        -5.0510   -1.8350    1.1840 hn        1 O15      0.392800
     20 HN1A       -6.6050   -1.8130    0.5800 hn        1 O15      0.392800
     21 H3         -4.2380    2.1510    0.1950 ha        1 O15      0.129000
     22 HN3        -7.1490    0.1480   -0.8730 hn        1 O15      0.370400
     23 H4         -1.8030    2.6590    0.2670 ha        1 O15      0.145000
     24 H6          0.4440    2.0360    0.1250 h4        1 O15      0.003800
     25 H9          2.5410   -2.1720    1.0400 hc        1 O15      0.034033
     26 H9A         4.3350   -1.9740    1.2780 hc        1 O15      0.034033
     27 H9B         3.1740   -0.8560    2.1160 hc        1 O15      0.034033
     28 H10         3.3070   -0.4910   -2.1560 hc        1 O15      0.034033
     29 H10A        4.4210   -1.7410   -1.4490 hc        1 O15      0.034033
     30 H10B        2.6150   -1.9670   -1.3590 hc        1 O15      0.034033
     31 H11        -0.9090   -1.5340   -0.3460 ha        1 O15      0.145000
     32 H12        -3.3300   -2.0380   -0.4180 ha        1 O15      0.129000
@<TRIPOS>BOND
     1    1    2 1   
     2    1    4 1   
     3    1    8 2   
     4    2   19 1   
     5    2   20 1   
     6    3    5 1   
     7    3   13 1   
     8    4    7 ar  
     9    4   18 ar  
    10    5   12 2   
    11    6   14 1   
    12    7   10 ar  
    13    7   21 1   
    14    8   22 1   
    15    9   14 1   
    16   10   11 ar  
    17   10   23 1   
    18   11   12 1   
    19   11   17 ar  
    20   12   24 1   
    21   13   14 1   
    22   13   15 1   
    23   13   16 1   
    24   15   25 1   
    25   15   26 1   
    26   15   27 1   
    27   16   28 1   
    28   16   29 1   
    29   16   30 1   
    30   17   18 ar  
    31   17   31 1   
    32   18   32 1   
@<TRIPOS>SUBSTRUCTURE
     1 O15         1 TEMP              0 ****  ****    0 ROOT
