@<TRIPOS>MOLECULE
O15
   32    26     1     0     0
SMALL
bcc


@<TRIPOS>ATOM
      1 C1          0.2380    1.6610    2.1790 c1        1 O15      0.366600
      2 N1          1.6730    1.5760    2.3630 n3        1 O15     -0.772400
      3 O1         -0.3340   -0.7130   -1.0100 os        1 O15     -0.307800
      4 C2         -0.6800    1.6470    3.3800 c1        1 O15     -0.097000
      5 N2          1.0220   -0.4820   -1.0060 n1        1 O15     -0.334800
      6 O2          0.4110   -0.0930   -3.8620 o         1 O15     -0.834800
      7 C3         -0.0170    2.5480    2.5480 c1        1 O15     -0.053000
      8 N3         -0.2730    1.7520    0.9510 n1        1 O15     -0.524800
      9 O3          1.1130   -2.1510   -3.6200 o         1 O15     -0.834800
     10 C4          0.6770    2.0840    1.4310 c1        1 O15     -0.053000
     11 C5          0.7080    0.7140    1.1460 c1        1 O15     -0.097000
     12 C6          1.5790    0.1910   -0.0080 c1        1 O15      0.248300
     13 C7         -0.6990   -1.4370   -2.1820 c3        1 O15      0.037800
     14 C8          0.3500   -1.2070   -3.2700 c         1 O15      0.915600
     15 C9         -2.0640   -0.9510   -2.6790 c3        1 O15     -0.081100
     16 C10        -0.7770   -2.9340   -1.8560 c3        1 O15     -0.081100
     17 C11         0.0450   -0.1850    1.9790 c1        1 O15     -0.032000
     18 C12        -0.6500    0.2810    3.0960 c1        1 O15     -0.032000
     19 HN1         2.2390    1.9750    1.7560 hn        1 O15      0.347800
     20 HN1A        2.0170    1.1720    3.1170 hn        1 O15      0.347800
     21 H3         -0.0560    3.5140    2.7380 ha        1 O15      0.120000
     22 HN3         0.2850    1.7610    0.2210 DU        1 O15      0.215000
     23 H4          1.1470    2.7220    0.8410 ha        1 O15      0.120000
     24 H6          2.5470    0.3550   -0.0060 ha        1 O15      0.077500
     25 H9         -2.7610   -1.2210   -2.0400 hc        1 O15      0.034033
     26 H9A        -2.2540   -1.3480   -3.5580 hc        1 O15      0.034033
     27 H9B        -2.0540    0.0290   -2.7570 hc        1 O15      0.034033
     28 H10         0.0890   -3.2390   -1.5050 hc        1 O15      0.034033
     29 H10A       -0.9960   -3.4370   -2.6720 hc        1 O15      0.034033
     30 H10B       -1.4750   -3.0860   -1.1800 hc        1 O15      0.034033
     31 H11         0.0660   -1.1470    1.7790 ha        1 O15      0.067000
     32 H12        -1.1170   -0.3530    3.6830 ha        1 O15      0.067000
@<TRIPOS>BOND
     1    1    2 1   
     2    1    8 3   
     3    2   19 1   
     4    2   20 1   
     5    3    5 1   
     6    3   13 1   
     7    4   18 3   
     8    5   12 3   
     9    6   14 1   
    10    7   10 3   
    11    7   21 1   
    12    9   14 1   
    13   10   23 1   
    14   11   17 3   
    15   12   24 1   
    16   13   14 1   
    17   13   15 1   
    18   13   16 1   
    19   15   25 1   
    20   15   26 1   
    21   15   27 1   
    22   16   28 1   
    23   16   29 1   
    24   16   30 1   
    25   17   31 1   
    26   18   32 1   
@<TRIPOS>SUBSTRUCTURE
     1 O15         1 TEMP              0 ****  ****    0 ROOT
