@<TRIPOS>MOLECULE
O16
   50    55     1     0     0
SMALL
bcc


@<TRIPOS>ATOM
      1 O1          5.6870    2.7430   -1.8880 o         1 O16     -0.560500
      2 C1          4.9830    2.8600   -0.8750 c         1 O16      0.670100
      3 N1          5.5130    3.4920    0.2800 n         1 O16     -0.389500
      4 N2          4.6620    3.9760    1.2420 n         1 O16     -0.387500
      5 C2          3.4460    3.2980    1.5060 c         1 O16      0.677100
      6 O2          2.8610    3.4770    2.5860 o         1 O16     -0.575500
      7 C3          2.8710    2.4830    0.4020 ca        1 O16     -0.106600
      8 C4          1.5910    1.9420    0.5360 ca        1 O16     -0.040000
      9 C5          1.0880    1.1650   -0.5220 ca        1 O16     -0.046200
     10 N3         -0.2630    0.6300   -0.4120 na        1 O16      0.268000
     11 N4         -1.3570    1.3360   -0.5610 nc        1 O16     -0.401800
     12 C6         -2.4240    0.4560   -0.2860 cc        1 O16      0.635800
     13 C7         -3.8160    0.8290   -0.3420 ce        1 O16     -0.310800
     14 C8         -4.8210   -0.0410   -0.0960 cf        1 O16      0.051800
     15 C9         -6.2280    0.2880   -0.1390 ca        1 O16     -0.125800
     16 C10        -7.1640   -0.7440    0.0650 ca        1 O16     -0.083000
     17 C11        -8.5280   -0.4750    0.0310 ca        1 O16     -0.134500
     18 C12        -8.9810    0.8250   -0.2030 ca        1 O16     -0.078000
     19 C13        -8.0620    1.8560   -0.4040 ca        1 O16     -0.134500
     20 C14        -6.6950    1.5920   -0.3730 ca        1 O16     -0.083000
     21 N5         -1.8990   -0.8000    0.0400 nd        1 O16     -0.437800
     22 N6         -0.5840   -0.6570   -0.0210 na        1 O16      0.187000
     23 C15         0.3450   -1.7330    0.1760 cc        1 O16      0.310700
     24 N7          1.5480   -1.7720   -0.4230 nd        1 O16     -0.494100
     25 C16         2.1940   -2.9360   -0.0270 ca        1 O16      0.080400
     26 C17         3.4860   -3.3440   -0.4410 ca        1 O16     -0.057000
     27 C18         3.9920   -4.5340    0.0410 ca        1 O16     -0.111000
     28 C19         3.2490   -5.3400    0.9290 ca        1 O16     -0.073000
     29 C20         1.9840   -4.9650    1.3470 ca        1 O16     -0.094000
     30 C21         1.4380   -3.7630    0.8800 ca        1 O16     -0.107100
     31 S1         -0.0500   -3.0640    1.2080 ss        1 O16      0.200900
     32 C22         1.8310    0.9290   -1.6920 ca        1 O16     -0.043000
     33 C23         3.1060    1.4850   -1.8000 ca        1 O16     -0.077000
     34 C24         3.6270    2.2560   -0.7580 ca        1 O16     -0.060600
     35 HN1         6.2290    4.1780    0.0670 hn        1 O16      0.335500
     36 HN2         5.1790    4.2160    2.0800 hn        1 O16      0.335500
     37 H4          1.0160    2.1460    1.4580 ha        1 O16      0.192000
     38 H7         -4.0030    1.8840   -0.6060 ha        1 O16      0.178000
     39 H8         -4.6000   -1.0970    0.1590 ha        1 O16      0.141000
     40 H10        -6.8150   -1.7720    0.2510 ha        1 O16      0.137000
     41 H11        -9.2530   -1.2890    0.1910 ha        1 O16      0.150500
     42 H12       -10.0620    1.0360   -0.2290 ha        1 O16      0.152000
     43 H13        -8.4180    2.8810   -0.5880 ha        1 O16      0.150500
     44 H14        -5.9860    2.4190   -0.5310 ha        1 O16      0.137000
     45 H17         4.0650   -2.7150   -1.1350 ha        1 O16      0.165000
     46 H18         4.9960   -4.8690   -0.2710 ha        1 O16      0.163000
     47 H19         3.6880   -6.2850    1.2910 ha        1 O16      0.163000
     48 H20         1.4110   -5.6010    2.0400 ha        1 O16      0.160000
     49 H22         1.4320    0.3130   -2.5160 ha        1 O16      0.177000
     50 H23         3.7120    1.3210   -2.7110 ha        1 O16      0.194000
@<TRIPOS>BOND
     1    1    2 2   
     2    2    3 1   
     3    2   34 1   
     4    3    4 1   
     5    3   35 1   
     6    4    5 1   
     7    4   36 1   
     8    5    6 2   
     9    5    7 1   
    10    7    8 ar  
    11    7   34 ar  
    12    8    9 ar  
    13    8   37 1   
    14    9   10 1   
    15    9   32 ar  
    16   10   11 2   
    17   10   22 1   
    18   11   12 1   
    19   12   13 1   
    20   12   21 2   
    21   13   14 2   
    22   13   38 1   
    23   14   15 1   
    24   14   39 1   
    25   15   16 ar  
    26   15   20 ar  
    27   16   17 ar  
    28   16   40 1   
    29   17   18 ar  
    30   17   41 1   
    31   18   19 ar  
    32   18   42 1   
    33   19   20 ar  
    34   19   43 1   
    35   20   44 1   
    36   21   22 1   
    37   22   23 1   
    38   23   24 2   
    39   23   31 1   
    40   24   25 1   
    41   25   26 ar  
    42   25   30 ar  
    43   26   27 ar  
    44   26   45 1   
    45   27   28 ar  
    46   27   46 1   
    47   28   29 ar  
    48   28   47 1   
    49   29   30 ar  
    50   29   48 1   
    51   30   31 1   
    52   32   33 ar  
    53   32   49 1   
    54   33   34 ar  
    55   33   50 1   
@<TRIPOS>SUBSTRUCTURE
     1 O16         1 TEMP              0 ****  ****    0 ROOT
