@<TRIPOS>MOLECULE
O16
   50    55     1     0     0
SMALL
bcc


@<TRIPOS>ATOM
      1 O1          0.0260   -0.9420    0.2260 o         1 O16     -0.560500
      2 C1          1.1180   -0.3680    0.1070 c         1 O16      0.670100
      3 N1          1.6390    0.3810    1.1940 n         1 O16     -0.389500
      4 N2          2.9770    0.6840    1.2300 n         1 O16     -0.387500
      5 C2          3.6740    0.9290    0.0200 c         1 O16      0.677100
      6 O2          4.7440    1.5570    0.0390 o         1 O16     -0.575500
      7 C3          3.1260    0.3050   -1.2140 ca        1 O16     -0.106600
      8 C4          3.8620    0.3550   -2.3990 ca        1 O16     -0.040000
      9 C5          3.3050   -0.2330   -3.5480 ca        1 O16     -0.046200
     10 N3          4.0810   -0.2240   -4.7820 na        1 O16      0.268000
     11 N4          5.1090   -1.0020   -5.0200 nc        1 O16     -0.401800
     12 C6          5.6110   -0.6040   -6.2760 cc        1 O16      0.635800
     13 C7          6.7460   -1.2130   -6.9240 ce        1 O16     -0.310800
     14 C8          7.1940   -0.8270   -8.1400 cf        1 O16      0.051800
     15 C9          8.3270   -1.4070   -8.8250 ca        1 O16     -0.125800
     16 C10         8.6290   -0.9520  -10.1230 ca        1 O16     -0.083000
     17 C11         9.7090   -1.4810  -10.8220 ca        1 O16     -0.134500
     18 C12        10.5050   -2.4690  -10.2390 ca        1 O16     -0.078000
     19 C13        10.2160   -2.9250   -8.9530 ca        1 O16     -0.134500
     20 C14         9.1360   -2.4000   -8.2480 ca        1 O16     -0.083000
     21 N5          4.8300    0.4530   -6.7580 nd        1 O16     -0.437800
     22 N6          3.9250    0.6780   -5.8180 na        1 O16      0.187000
     23 C15         2.8720    1.6450   -5.9410 cc        1 O16      0.310700
     24 N7          1.6790    1.4980   -5.3390 nd        1 O16     -0.494100
     25 C16         0.8910    2.5970   -5.6590 ca        1 O16      0.080400
     26 C17        -0.4370    2.8160   -5.2180 ca        1 O16     -0.057000
     27 C18        -1.0910    3.9610   -5.6270 ca        1 O16     -0.111000
     28 C19        -0.4620    4.9040   -6.4670 ca        1 O16     -0.073000
     29 C20         0.8340    4.7130   -6.9120 ca        1 O16     -0.094000
     30 C21         1.5300    3.5630   -6.5180 ca        1 O16     -0.107100
     31 S1          3.0870    3.0700   -6.8970 ss        1 O16      0.200900
     32 C22         2.0480   -0.8630   -3.5290 ca        1 O16     -0.043000
     33 C23         1.3370   -0.9010   -2.3300 ca        1 O16     -0.077000
     34 C24         1.8700   -0.3180   -1.1780 ca        1 O16     -0.060600
     35 HN1         1.3310    0.0410    2.0980 hn        1 O16      0.335500
     36 HN2         3.1620    1.3770    1.9470 hn        1 O16      0.335500
     37 H4          4.8530    0.8450   -2.3960 ha        1 O16      0.192000
     38 H7          7.2250   -2.0260   -6.3510 ha        1 O16      0.178000
     39 H8          6.6850   -0.0120   -8.6930 ha        1 O16      0.141000
     40 H10         8.0060   -0.1720  -10.5900 ha        1 O16      0.137000
     41 H11         9.9360   -1.1190  -11.8370 ha        1 O16      0.150500
     42 H12        11.3600   -2.8860  -10.7940 ha        1 O16      0.152000
     43 H13        10.8440   -3.7030   -8.4910 ha        1 O16      0.150500
     44 H14         8.9250   -2.7710   -7.2340 ha        1 O16      0.137000
     45 H17        -0.9280    2.0790   -4.5640 ha        1 O16      0.165000
     46 H18        -2.1260    4.1480   -5.2950 ha        1 O16      0.163000
     47 H19        -1.0190    5.8060   -6.7710 ha        1 O16      0.163000
     48 H20         1.3170    5.4540   -7.5680 ha        1 O16      0.160000
     49 H22         1.6140   -1.3170   -4.4360 ha        1 O16      0.177000
     50 H23         0.3480   -1.3940   -2.2820 ha        1 O16      0.194000
@<TRIPOS>BOND
     1    1    2 2   
     2    2    3 1   
     3    2   34 1   
     4    3    4 1   
     5    3   35 1   
     6    4    5 1   
     7    4   36 1   
     8    5    6 2   
     9    5    7 1   
    10    7    8 ar  
    11    7   34 ar  
    12    8    9 ar  
    13    8   37 1   
    14    9   10 1   
    15    9   32 ar  
    16   10   11 2   
    17   10   22 1   
    18   11   12 1   
    19   12   13 1   
    20   12   21 2   
    21   13   14 2   
    22   13   38 1   
    23   14   15 1   
    24   14   39 1   
    25   15   16 ar  
    26   15   20 ar  
    27   16   17 ar  
    28   16   40 1   
    29   17   18 ar  
    30   17   41 1   
    31   18   19 ar  
    32   18   42 1   
    33   19   20 ar  
    34   19   43 1   
    35   20   44 1   
    36   21   22 1   
    37   22   23 1   
    38   23   24 2   
    39   23   31 1   
    40   24   25 1   
    41   25   26 ar  
    42   25   30 ar  
    43   26   27 ar  
    44   26   45 1   
    45   27   28 ar  
    46   27   46 1   
    47   28   29 ar  
    48   28   47 1   
    49   29   30 ar  
    50   29   48 1   
    51   30   31 1   
    52   32   33 ar  
    53   32   49 1   
    54   33   34 ar  
    55   33   50 1   
@<TRIPOS>SUBSTRUCTURE
     1 O16         1 TEMP              0 ****  ****    0 ROOT
