@<TRIPOS>MOLECULE
O16
   50    41     1     0     0
SMALL
bcc


@<TRIPOS>ATOM
      1 O1         -4.1110    1.2330    5.5520 o         1 O16     -0.292000
      2 C1         -2.8940    1.1430    5.5270 c1        1 O16      0.310500
      3 N1         -2.1790    1.2980    6.6710 n2        1 O16     -0.235000
      4 N2         -0.7880    1.2650    6.6390 n2        1 O16     -0.235000
      5 C2         -0.1250    1.0760    5.4470 c1        1 O16      0.310500
      6 O2          1.1390    0.8710    5.4510 o         1 O16     -0.292000
      7 C3         -0.8520    0.9160    4.2610 c1        1 O16     -0.062500
      8 C4         -0.1610    0.7290    3.0120 c1        1 O16     -0.058500
      9 C5         -0.8860    0.5800    1.8290 c1        1 O16     -0.001000
     10 N3          0.1390   -0.0140    1.1440 n2        1 O16      0.049000
     11 N4          0.7530   -1.1660    1.4840 n2        1 O16      0.037000
     12 C6          1.7400   -1.3870    0.6050 c1        1 O16     -0.011000
     13 C7          2.7860   -2.4880    0.7080 c1        1 O16     -0.089250
     14 C8          3.1480   -3.2020   -0.4040 c1        1 O16     -0.089250
     15 C9          2.5300   -2.9090   -1.6980 c1        1 O16     -0.111000
     16 C10         1.3030   -3.4910   -2.0310 c2        1 O16     -0.105000
     17 C11         0.7660   -3.3130   -3.3140 c1        1 O16     -0.130000
     18 C12         1.4450   -2.5660   -4.2420 c1        1 O16     -0.089250
     19 C13         2.6740   -1.9840   -3.9090 c1        1 O16     -0.089250
     20 C14         3.2090   -2.1640   -2.6250 c1        1 O16     -0.100000
     21 N5          1.7420   -0.3730   -0.2820 n2        1 O16      0.028000
     22 N6          0.7490    0.4760    0.0540 n         1 O16      0.053000
     23 C15         0.3840    1.5680   -0.6310 c2        1 O16     -0.244000
     24 N7         -0.6740    0.8430   -1.2300 n2        1 O16     -0.067000
     25 C16        -0.9950    1.4960   -2.6400 c1        1 O16     -0.059000
     26 C17        -1.9240    1.1690   -3.6130 c1        1 O16     -0.089250
     27 C18        -1.9960    1.9130   -4.7810 c1        1 O16     -0.089250
     28 C19        -1.1230    3.0020   -4.9780 c1        1 O16     -0.089250
     29 C20        -0.1860    3.3320   -3.9990 c1        1 O16     -0.089250
     30 C21        -0.1150    2.5920   -2.8370 c1        1 O16     -0.336000
     31 S1          0.7900    2.6970   -1.5990 s         1 O16      0.661000
     32 C22        -2.2900    0.6120    1.8570 c1        1 O16     -0.044000
     33 C23        -2.9640    0.7950    3.0770 c1        1 O16     -0.058500
     34 C24        -2.2210    0.9480    4.2920 c1        1 O16     -0.062500
     35 HN1        -2.6260    1.4260    7.4920 hn        1 O16      0.249000
     36 HN2        -0.3190    1.3690    7.4020 hn        1 O16      0.249000
     37 H4          0.8080    0.6470    3.0010 ha        1 O16      0.193000
     38 H7          3.1980   -2.6860    1.5650 ha        1 O16      0.161375
     39 H8          3.8280   -3.9190   -0.3320 ha        1 O16      0.161375
     40 H10         0.8410   -4.0000   -1.3980 ha        1 O16      0.132000
     41 H11        -0.1410   -3.7430   -3.5600 ha        1 O16      0.145000
     42 H12         1.0560   -2.4360   -5.1760 ha        1 O16      0.161375
     43 H13         3.1740   -1.4340   -4.5920 ha        1 O16      0.161375
     44 H14         4.0860   -1.7480   -2.3870 ha        1 O16      0.143000
     45 H17        -2.5340    0.4100   -3.4740 ha        1 O16      0.161375
     46 H18        -2.6730    1.6740   -5.4910 ha        1 O16      0.161375
     47 H19        -1.1740    3.5240   -5.8000 ha        1 O16      0.161375
     48 H20         0.4300    4.1020   -4.1390 ha        1 O16      0.161375
     49 H22        -2.8160    0.5000    0.9990 ha        1 O16      0.176000
     50 H23        -3.9500    0.8150    3.0960 ha        1 O16      0.193000
@<TRIPOS>BOND
     1    1    2 1   
     2    2   34 1   
     3    3    4 1   
     4    3   35 1   
     5    4   36 1   
     6    5    6 1   
     7    5    7 1   
     8    7    8 1   
     9    8   37 1   
    10    9   32 1   
    11   10   11 1   
    12   10   22 1   
    13   11   12 1   
    14   12   21 1   
    15   13   14 1   
    16   13   38 1   
    17   14   39 1   
    18   15   16 1   
    19   15   20 1   
    20   16   17 1   
    21   16   40 1   
    22   17   41 1   
    23   18   19 1   
    24   18   42 1   
    25   19   43 1   
    26   20   44 1   
    27   21   22 1   
    28   22   23 1   
    29   23   24 1   
    30   23   31 1   
    31   24   25 1   
    32   25   30 1   
    33   26   27 1   
    34   26   45 1   
    35   27   46 1   
    36   28   29 1   
    37   28   47 1   
    38   29   48 1   
    39   32   49 1   
    40   33   34 1   
    41   33   50 1   
@<TRIPOS>SUBSTRUCTURE
     1 O16         1 TEMP              0 ****  ****    0 ROOT
