@<TRIPOS>MOLECULE
O16
   50    55     1     0     0
SMALL
bcc


@<TRIPOS>ATOM
      1 O1          0.0440   -0.9340    0.2420 o         1 O16     -0.560500
      2 C1          1.1330   -0.3540    0.1170 c         1 O16      0.670100
      3 N1          1.6530    0.4030    1.1990 ns        1 O16     -0.389500
      4 N2          2.9890    0.7120    1.2310 ns        1 O16     -0.387500
      5 C2          3.6820    0.9540    0.0180 c         1 O16      0.677100
      6 O2          4.7490    1.5870    0.0320 o         1 O16     -0.575500
      7 C3          3.1350    0.3200   -1.2110 ca        1 O16     -0.106600
      8 C4          3.8680    0.3680   -2.3990 ca        1 O16     -0.040000
      9 C5          3.3110   -0.2280   -3.5430 ca        1 O16     -0.046200
     10 N3          4.0850   -0.2220   -4.7790 na        1 O16      0.268000
     11 N4          5.1160   -0.9970   -5.0150 nc        1 O16     -0.401800
     12 C6          5.6130   -0.6020   -6.2750 cc        1 O16      0.636800
     13 C7          6.7500   -1.2090   -6.9210 ce        1 O16     -0.310800
     14 C8          7.1940   -0.8260   -8.1400 cf        1 O16      0.051800
     15 C9          8.3280   -1.4040   -8.8250 ca        1 O16     -0.125800
     16 C10         8.6300   -0.9490  -10.1230 ca        1 O16     -0.083000
     17 C11         9.7110   -1.4760  -10.8220 ca        1 O16     -0.134500
     18 C12        10.5090   -2.4620  -10.2380 ca        1 O16     -0.078000
     19 C13        10.2200   -2.9190   -8.9520 ca        1 O16     -0.134500
     20 C14         9.1390   -2.3960   -8.2480 ca        1 O16     -0.083000
     21 N5          4.8270    0.4490   -6.7600 nd        1 O16     -0.437800
     22 N6          3.9230    0.6740   -5.8190 na        1 O16      0.187000
     23 C15         2.8640    1.6350   -5.9450 cc        1 O16      0.310700
     24 N7          1.6730    1.4860   -5.3400 nd        1 O16     -0.494100
     25 C16         0.8800    2.5790   -5.6630 ca        1 O16      0.080400
     26 C17        -0.4490    2.7940   -5.2210 ca        1 O16     -0.057000
     27 C18        -1.1090    3.9330   -5.6340 ca        1 O16     -0.111000
     28 C19        -0.4870    4.8750   -6.4810 ca        1 O16     -0.073000
     29 C20         0.8090    4.6870   -6.9270 ca        1 O16     -0.094000
     30 C21         1.5120    3.5440   -6.5290 ca        1 O16     -0.107100
     31 S1          3.0700    3.0560   -6.9100 ss        1 O16      0.200900
     32 C22         2.0570   -0.8640   -3.5180 ca        1 O16     -0.043000
     33 C23         1.3490   -0.9000   -2.3170 ca        1 O16     -0.077000
     34 C24         1.8820   -0.3080   -1.1690 ca        1 O16     -0.060600
     35 HN1         1.3480    0.0660    2.1050 hn        1 O16      0.335500
     36 HN2         3.1720    1.4090    1.9440 hn        1 O16      0.335500
     37 H4          4.8560    0.8620   -2.4000 ha        1 O16      0.192000
     38 H7          7.2340   -2.0180   -6.3460 ha        1 O16      0.178000
     39 H8          6.6810   -0.0160   -8.6950 ha        1 O16      0.141000
     40 H10         8.0050   -0.1710  -10.5890 ha        1 O16      0.137000
     41 H11         9.9380   -1.1140  -11.8370 ha        1 O16      0.150500
     42 H12        11.3650   -2.8780  -10.7930 ha        1 O16      0.152000
     43 H13        10.8500   -3.6960   -8.4900 ha        1 O16      0.150500
     44 H14         8.9290   -2.7670   -7.2330 ha        1 O16      0.137000
     45 H17        -0.9340    2.0580   -4.5610 ha        1 O16      0.165000
     46 H18        -2.1440    4.1180   -5.3010 ha        1 O16      0.163000
     47 H19        -1.0490    5.7720   -6.7890 ha        1 O16      0.162000
     48 H20         1.2870    5.4280   -7.5890 ha        1 O16      0.160000
     49 H22         1.6240   -1.3250   -4.4220 ha        1 O16      0.177000
     50 H23         0.3620   -1.3970   -2.2650 ha        1 O16      0.194000
@<TRIPOS>BOND
     1    1    2 2   
     2    2    3 1   
     3    2   34 1   
     4    3    4 1   
     5    3   35 1   
     6    4    5 1   
     7    4   36 1   
     8    5    6 2   
     9    5    7 1   
    10    7    8 ar  
    11    7   34 ar  
    12    8    9 ar  
    13    8   37 1   
    14    9   10 1   
    15    9   32 ar  
    16   10   11 2   
    17   10   22 1   
    18   11   12 1   
    19   12   13 1   
    20   12   21 2   
    21   13   14 2   
    22   13   38 1   
    23   14   15 1   
    24   14   39 1   
    25   15   16 ar  
    26   15   20 ar  
    27   16   17 ar  
    28   16   40 1   
    29   17   18 ar  
    30   17   41 1   
    31   18   19 ar  
    32   18   42 1   
    33   19   20 ar  
    34   19   43 1   
    35   20   44 1   
    36   21   22 1   
    37   22   23 1   
    38   23   24 2   
    39   23   31 1   
    40   24   25 1   
    41   25   26 ar  
    42   25   30 ar  
    43   26   27 ar  
    44   26   45 1   
    45   27   28 ar  
    46   27   46 1   
    47   28   29 ar  
    48   28   47 1   
    49   29   30 ar  
    50   29   48 1   
    51   30   31 1   
    52   32   33 ar  
    53   32   49 1   
    54   33   34 ar  
    55   33   50 1   
@<TRIPOS>SUBSTRUCTURE
     1 O16         1 TEMP              0 ****  ****    0 ROOT
