@<TRIPOS>MOLECULE
O17
   76    80     1     0     0
SMALL
bcc


@<TRIPOS>ATOM
      1 N6         -0.7410    0.3180   -2.4560 n1        1 O17     -0.301800
      2 C29        -0.4080   -0.0170   -1.3950 c1        1 O17      0.189700
      3 C28        -0.0170   -0.4410   -0.0630 c3        1 O17      0.198500
      4 O2          1.4190   -0.3140   -0.0080 os        1 O17     -0.326900
      5 C27         2.0200   -0.6230    1.1880 ca        1 O17      0.248100
      6 C6          3.4320   -0.4130    1.2100 ca        1 O17     -0.232800
      7 C5          4.0950    0.0780    0.0520 ce        1 O17      0.149800
      8 C4          5.4390    0.3100   -0.0620 cf        1 O17     -0.395200
      9 C3          5.9600    0.8170   -1.2980 c         1 O17      0.569300
     10 O1          5.4050    1.0960   -2.3580 o         1 O17     -0.475100
     11 N           7.4660    1.0770   -1.3200 n4        1 O17     -0.672800
     12 C2          8.2310   -0.1880   -1.4950 c3        1 O17      0.106800
     13 C1          9.7460    0.0280   -1.4340 c3        1 O17      0.101400
     14 O          10.0110    0.7140   -0.2160 os        1 O17     -0.460600
     15 C          11.3990    0.7860    0.0930 c3        1 O17      0.117700
     16 C26         1.3280   -1.1030    2.2950 ca        1 O17     -0.308000
     17 C9          2.0230   -1.4020    3.4940 ca        1 O17      0.293600
     18 C8          3.4370   -1.1760    3.5300 ca        1 O17     -0.241000
     19 C7          4.0990   -0.7060    2.4220 ca        1 O17      0.001000
     20 N1          1.4080   -1.9470    4.6000 nh        1 O17     -0.717300
     21 C10        -0.0150   -2.0750    4.6990 ca        1 O17      0.700200
     22 N5         -0.6190   -1.3680    5.6900 nb        1 O17     -0.807000
     23 C15        -1.9730   -1.5160    5.8590 ca        1 O17      0.789200
     24 C13        -2.7420   -2.3880    4.9980 ca        1 O17     -0.311300
     25 C14        -4.1350   -2.5310    5.1810 cg        1 O17      0.234800
     26 N3         -5.2850   -2.6560    5.3220 n1        1 O17     -0.368800
     27 C12        -2.0860   -3.1090    3.9670 ca        1 O17      0.304600
     28 N2         -2.7850   -3.9060    3.0940 nh        1 O17     -0.846200
     29 C11        -0.6830   -2.9470    3.8190 ca        1 O17     -0.404300
     30 N4         -2.6310   -0.8200    6.8420 nh        1 O17     -0.857900
     31 C16        -2.0650    0.0700    7.8570 c3        1 O17      0.259200
     32 C25        -1.0490   -0.6530    8.7750 c3        1 O17     -0.081733
     33 C20        -0.5460    0.2980    9.8550 c3        1 O17     -0.060033
     34 C19        -1.7120    0.7710   10.7140 c3        1 O17     -0.073400
     35 C21         0.1320    1.5000    9.2070 c3        1 O17     -0.073400
     36 C22        -0.8760    2.2380    8.3330 c3        1 O17     -0.060033
     37 C24        -1.3820    1.3110    7.2350 c3        1 O17     -0.081733
     38 C23        -2.0420    2.7150    9.1900 c3        1 O17     -0.073400
     39 C18        -2.7140    1.5100    9.8350 c3        1 O17     -0.060033
     40 C17        -3.2350    0.5740    8.7540 c3        1 O17     -0.081733
     41 H1         -0.4850    0.2240    0.7150 h1        1 O17      0.086700
     42 H2         -0.3030   -1.5160    0.1060 h1        1 O17      0.086700
     43 H3          3.4480    0.2860   -0.8300 ha        1 O17      0.171000
     44 H5          6.1330    0.1230    0.7690 ha        1 O17      0.155000
     45 H7          7.7590    1.5170   -0.4400 hn        1 O17      0.458800
     46 H8          7.9170   -0.8910   -0.6710 hx        1 O17      0.111700
     47 H9          7.9580   -0.6360   -2.4920 hx        1 O17      0.111700
     48 H10        10.1120    0.6430   -2.3000 h1        1 O17      0.070700
     49 H11        10.2510   -0.9750   -1.4480 h1        1 O17      0.070700
     50 H12        11.9470    1.3350   -0.7120 h1        1 O17      0.056033
     51 H13        11.4310    1.3550    1.0560 h1        1 O17      0.056033
     52 H14        11.8210   -0.2400    0.2240 h1        1 O17      0.056033
     53 H15         0.2370   -1.2500    2.2560 ha        1 O17      0.170000
     54 H16         4.0000   -1.3850    4.4530 ha        1 O17      0.155000
     55 H17         5.1890   -0.5470    2.4820 ha        1 O17      0.138000
     56 H18         1.8940   -1.8520    5.4710 hn        1 O17      0.456800
     57 H19        -2.2770   -4.5510    2.5390 hn        1 O17      0.435800
     58 H20        -3.7310   -4.1250    3.2980 hn        1 O17      0.435800
     59 H21        -0.1310   -3.5110    3.0560 ha        1 O17      0.154000
     60 H22        -3.6100   -0.9870    6.9240 hn        1 O17      0.449800
     61 H23        -0.1760   -1.0180    8.1800 hc        1 O17      0.052533
     62 H24        -1.5400   -1.5380    9.2550 hc        1 O17      0.052533
     63 H25         0.1950   -0.2470   10.4990 hc        1 O17      0.056033
     64 H26        -1.3390    1.4530   11.5200 hc        1 O17      0.046533
     65 H27        -2.2060   -0.1060   11.2040 hc        1 O17      0.046533
     66 H28         0.9980    1.1590    8.5840 hc        1 O17      0.046533
     67 H29         0.5240    2.1870    9.9990 hc        1 O17      0.046533
     68 H30        -0.3770    3.1250    7.8560 hc        1 O17      0.056033
     69 H31        -2.1170    1.8600    6.5910 hc        1 O17      0.052533
     70 H32        -0.5180    1.0030    6.5960 hc        1 O17      0.052533
     71 H33        -1.6710    3.4130    9.9840 hc        1 O17      0.046533
     72 H34        -2.7790    3.2710    8.5570 hc        1 O17      0.046533
     73 H35        -3.5800    1.8550   10.4630 hc        1 O17      0.056033
     74 H36        -3.9870    1.1190    8.1260 hc        1 O17      0.052533
     75 H37        -3.7460   -0.2990    9.2380 hc        1 O17      0.052533
     76 HN3         7.6850    1.7160   -2.0930 hn        1 O17      0.458800
@<TRIPOS>BOND
     1    1    2 3   
     2    2    3 1   
     3    3    4 1   
     4    3   41 1   
     5    3   42 1   
     6    4    5 1   
     7    5    6 ar  
     8    5   16 ar  
     9    6    7 1   
    10    6   19 ar  
    11    7    8 2   
    12    7   43 1   
    13    8    9 1   
    14    8   44 1   
    15    9   10 2   
    16    9   11 1   
    17   11   12 1   
    18   11   45 1   
    19   11   76 1   
    20   12   13 1   
    21   12   46 1   
    22   12   47 1   
    23   13   14 1   
    24   13   48 1   
    25   13   49 1   
    26   14   15 1   
    27   15   50 1   
    28   15   51 1   
    29   15   52 1   
    30   16   17 ar  
    31   16   53 1   
    32   17   18 ar  
    33   17   20 1   
    34   18   19 ar  
    35   18   54 1   
    36   19   55 1   
    37   20   21 1   
    38   20   56 1   
    39   21   22 ar  
    40   21   29 ar  
    41   22   23 ar  
    42   23   24 ar  
    43   23   30 1   
    44   24   25 1   
    45   24   27 ar  
    46   25   26 3   
    47   27   28 1   
    48   27   29 ar  
    49   28   57 1   
    50   28   58 1   
    51   29   59 1   
    52   30   31 1   
    53   30   60 1   
    54   31   32 1   
    55   31   37 1   
    56   31   40 1   
    57   32   33 1   
    58   32   61 1   
    59   32   62 1   
    60   33   34 1   
    61   33   35 1   
    62   33   63 1   
    63   34   39 1   
    64   34   64 1   
    65   34   65 1   
    66   35   36 1   
    67   35   66 1   
    68   35   67 1   
    69   36   37 1   
    70   36   38 1   
    71   36   68 1   
    72   37   69 1   
    73   37   70 1   
    74   38   39 1   
    75   38   71 1   
    76   38   72 1   
    77   39   40 1   
    78   39   73 1   
    79   40   74 1   
    80   40   75 1   
@<TRIPOS>SUBSTRUCTURE
     1 O17         1 TEMP              0 ****  ****    0 ROOT
