@<TRIPOS>MOLECULE
O17
   76    80     1     0     0
SMALL
bcc


@<TRIPOS>ATOM
      1 N6         -0.7420    0.4230   -2.4410 n1        1 O17     -0.301800
      2 C29        -0.4120    0.0690   -1.3860 c1        1 O17      0.189700
      3 C28        -0.0230   -0.3790   -0.0610 c3        1 O17      0.198500
      4 O2          1.4140   -0.2710   -0.0080 os        1 O17     -0.326900
      5 C27         2.0140   -0.6050    1.1820 ca        1 O17      0.248100
      6 C6          3.4290   -0.4140    1.2040 ca        1 O17     -0.232800
      7 C5          4.0960    0.0830    0.0510 ce        1 O17      0.149800
      8 C4          5.4430    0.3000   -0.0640 cf        1 O17     -0.395200
      9 C3          5.9670    0.8160   -1.2940 c         1 O17      0.569300
     10 O1          5.4140    1.1150   -2.3500 o         1 O17     -0.475100
     11 N           7.4770    1.0580   -1.3160 ny        1 O17     -0.672800
     12 C2          8.2260   -0.2130   -1.5080 c3        1 O17      0.106800
     13 C1          9.7430   -0.0150   -1.4480 c3        1 O17      0.101400
     14 O          10.0190    0.6520   -0.2220 os        1 O17     -0.460600
     15 C          11.4080    0.7050    0.0840 c3        1 O17      0.117700
     16 C26         1.3190   -1.0910    2.2850 ca        1 O17     -0.308000
     17 C9          2.0120   -1.4150    3.4770 ca        1 O17      0.293600
     18 C8          3.4290   -1.2080    3.5130 ca        1 O17     -0.241000
     19 C7          4.0950   -0.7320    2.4090 ca        1 O17      0.001000
     20 N1          1.3920   -1.9660    4.5770 nu        1 O17     -0.717300
     21 C10        -0.0320   -2.0750    4.6790 ca        1 O17      0.700200
     22 N5         -0.6230   -1.3720    5.6810 nb        1 O17     -0.807000
     23 C15        -1.9790   -1.5020    5.8510 ca        1 O17      0.789200
     24 C13        -2.7630   -2.3530    4.9820 ca        1 O17     -0.311300
     25 C14        -4.1570   -2.4780    5.1660 cg        1 O17      0.234800
     26 N3         -5.3080   -2.5880    5.3100 n1        1 O17     -0.368800
     27 C12        -2.1200   -3.0700    3.9390 ca        1 O17      0.304600
     28 N2         -2.8320   -3.8460    3.0590 nv        1 O17     -0.846200
     29 C11        -0.7150   -2.9260    3.7900 ca        1 O17     -0.404300
     30 N4         -2.6240   -0.8090    6.8450 nu        1 O17     -0.857900
     31 C16        -2.0430    0.0580    7.8700 c3        1 O17      0.259200
     32 C25        -1.0360   -0.6910    8.7760 c3        1 O17     -0.081733
     33 C20        -0.5160    0.2370    9.8670 c3        1 O17     -0.060033
     34 C19        -1.6730    0.7170   10.7350 c3        1 O17     -0.073400
     35 C21         0.1780    1.4370    9.2330 c3        1 O17     -0.073400
     36 C22        -0.8200    2.2020    8.3710 c3        1 O17     -0.060033
     37 C24        -1.3430    1.2970    7.2630 c3        1 O17     -0.081733
     38 C23        -1.9770    2.6850    9.2370 c3        1 O17     -0.073400
     39 C18        -2.6660    1.4820    9.8680 c3        1 O17     -0.060033
     40 C17        -3.2030    0.5680    8.7760 c3        1 O17     -0.081733
     41 H1         -0.4800    0.2820    0.7270 h1        1 O17      0.086700
     42 H2         -0.3230   -1.4520    0.0940 h1        1 O17      0.086700
     43 H3          3.4500    0.3110   -0.8280 ha        1 O17      0.171000
     44 H5          6.1360    0.0940    0.7640 ha        1 O17      0.155000
     45 H7          7.7020    1.7040   -2.0810 hn        1 O17      0.458800
     46 H8          7.9050   -0.9230   -0.6920 hx        1 O17      0.111700
     47 H9          7.9460   -0.6460   -2.5100 hx        1 O17      0.111700
     48 H10        10.1150    0.6060   -2.3070 h1        1 O17      0.070700
     49 H11        10.2360   -1.0240   -1.4750 h1        1 O17      0.070700
     50 H12        11.9610    1.2560   -0.7150 h1        1 O17      0.056033
     51 H13        11.4490    1.2610    1.0550 h1        1 O17      0.056033
     52 H14        11.8190   -0.3280    0.2020 h1        1 O17      0.056033
     53 H15         0.2260   -1.2220    2.2470 ha        1 O17      0.170000
     54 H16         3.9910   -1.4370    4.4320 ha        1 O17      0.155000
     55 H17         5.1870   -0.5890    2.4690 ha        1 O17      0.138000
     56 H18         1.8820   -1.8900    5.4480 hn        1 O17      0.456800
     57 H19        -2.3360   -4.4910    2.4940 hn        1 O17      0.435800
     58 H20        -3.7810   -4.0530    3.2620 hn        1 O17      0.435800
     59 H21        -0.1730   -3.4880    3.0190 ha        1 O17      0.154000
     60 H22        -3.6060   -0.9650    6.9280 hn        1 O17      0.449800
     61 H23        -0.1690   -1.0620    8.1740 hc        1 O17      0.052533
     62 H24        -1.5390   -1.5750    9.2460 hc        1 O17      0.052533
     63 H25         0.2180   -0.3270   10.5030 hc        1 O17      0.056033
     64 H26        -1.2880    1.3820   11.5490 hc        1 O17      0.046533
     65 H27        -2.1790   -0.1590   11.2150 hc        1 O17      0.046533
     66 H28         0.5820    2.1080   10.0330 hc        1 O17      0.046533
     67 H29         1.0380    1.0910    8.6040 hc        1 O17      0.046533
     68 H30        -0.3090    3.0870    7.9050 hc        1 O17      0.056033
     69 H31        -2.0700    1.8650    6.6280 hc        1 O17      0.052533
     70 H32        -0.4840    0.9850    6.6170 hc        1 O17      0.052533
     71 H33        -1.5950    3.3680   10.0390 hc        1 O17      0.046533
     72 H34        -2.7070    3.2600    8.6130 hc        1 O17      0.046533
     73 H35        -3.5250    1.8310   10.5020 hc        1 O17      0.056033
     74 H36        -3.9480    1.1320    8.1570 hc        1 O17      0.052533
     75 H37        -3.7260   -0.3030    9.2500 hc        1 O17      0.052533
     76 HN3         7.7760    1.4840   -0.4300 hn        1 O17      0.458800
@<TRIPOS>BOND
     1    1    2 3   
     2    2    3 1   
     3    3    4 1   
     4    3   41 1   
     5    3   42 1   
     6    4    5 1   
     7    5    6 ar  
     8    5   16 ar  
     9    6    7 1   
    10    6   19 ar  
    11    7    8 2   
    12    7   43 1   
    13    8    9 1   
    14    8   44 1   
    15    9   10 2   
    16    9   11 1   
    17   11   12 1   
    18   11   45 1   
    19   11   76 1   
    20   12   13 1   
    21   12   46 1   
    22   12   47 1   
    23   13   14 1   
    24   13   48 1   
    25   13   49 1   
    26   14   15 1   
    27   15   50 1   
    28   15   51 1   
    29   15   52 1   
    30   16   17 ar  
    31   16   53 1   
    32   17   18 ar  
    33   17   20 1   
    34   18   19 ar  
    35   18   54 1   
    36   19   55 1   
    37   20   21 1   
    38   20   56 1   
    39   21   22 ar  
    40   21   29 ar  
    41   22   23 ar  
    42   23   24 ar  
    43   23   30 1   
    44   24   25 1   
    45   24   27 ar  
    46   25   26 3   
    47   27   28 1   
    48   27   29 ar  
    49   28   57 1   
    50   28   58 1   
    51   29   59 1   
    52   30   31 1   
    53   30   60 1   
    54   31   32 1   
    55   31   37 1   
    56   31   40 1   
    57   32   33 1   
    58   32   61 1   
    59   32   62 1   
    60   33   34 1   
    61   33   35 1   
    62   33   63 1   
    63   34   39 1   
    64   34   64 1   
    65   34   65 1   
    66   35   36 1   
    67   35   66 1   
    68   35   67 1   
    69   36   37 1   
    70   36   38 1   
    71   36   68 1   
    72   37   69 1   
    73   37   70 1   
    74   38   39 1   
    75   38   71 1   
    76   38   72 1   
    77   39   40 1   
    78   39   73 1   
    79   40   74 1   
    80   40   75 1   
@<TRIPOS>SUBSTRUCTURE
     1 O17         1 TEMP              0 ****  ****    0 ROOT
