@<TRIPOS>MOLECULE
O19
   61    65     1     0     0
SMALL
bcc


@<TRIPOS>ATOM
      1 O10         6.8420   -1.7320    0.5700 o         1 O19     -0.587100
      2 C9          7.2210   -0.8080   -0.1700 c         1 O19      0.649100
      3 C11         8.6850   -0.7070   -0.6500 c3        1 O19      0.095500
      4 C15         9.3690    0.5120    0.0100 c3        1 O19     -0.094400
      5 C14        10.6300   -0.0230    0.6750 c3        1 O19     -0.095400
      6 C13        10.6600   -1.5320    0.3830 c3        1 O19      0.148800
      7 N12         9.4820   -1.9060   -0.3930 n3        1 O19     -0.792200
      8 N8          6.3840    0.2000   -0.6260 n         1 O19     -0.468100
      9 C6          5.0160    0.3670   -0.3630 ca        1 O19      0.085600
     10 C1          4.3650    1.5080   -0.8960 ca        1 O19     -0.180000
     11 C5          4.2560   -0.5450    0.4000 ca        1 O19     -0.180000
     12 C4          2.9010   -0.3190    0.6190 ca        1 O19     -0.069000
     13 C3          2.2670    0.8150    0.0990 cp        1 O19     -0.189500
     14 C2          3.0140    1.7210   -0.6650 ca        1 O19     -0.069000
     15 C7          0.8370    1.0690    0.3450 cp        1 O19      0.539800
     16 N20        -0.0220    0.0240    0.3430 nb        1 O19     -0.747000
     17 C19        -1.3600    0.3110    0.5890 ca        1 O19      0.864900
     18 N18        -1.8690    1.5870    0.7970 nb        1 O19     -0.731000
     19 C17        -0.9740    2.5860    0.7840 ca        1 O19      0.458200
     20 C16         0.4010    2.3960    0.5690 ca        1 O19     -0.411600
     21 N21        -2.2220   -0.8050    0.6940 nh        1 O19     -0.696300
     22 C22        -3.6170   -0.6730    0.4840 ca        1 O19      0.095600
     23 C27        -4.2490   -1.3920   -0.5530 ca        1 O19     -0.109500
     24 C26        -5.6250   -1.3460   -0.7170 ca        1 O19     -0.156500
     25 C25        -6.4360   -0.5640    0.1390 ca        1 O19      0.125600
     26 C24        -5.7950    0.1580    1.1680 ca        1 O19     -0.156500
     27 C23        -4.4180    0.0980    1.3460 ca        1 O19     -0.109500
     28 N28        -7.8460   -0.6010   -0.0130 nh        1 O19     -0.629000
     29 C33        -8.6230    0.0310    1.0420 c3        1 O19      0.147800
     30 C32       -10.1300   -0.1930    0.8560 c3        1 O19      0.123900
     31 O31       -10.5640    0.2040   -0.4390 os        1 O19     -0.414600
     32 C30        -9.8480   -0.4620   -1.4720 c3        1 O19      0.123900
     33 C29        -8.3340   -0.2510   -1.3420 c3        1 O19      0.147800
     34 H11         8.6740   -0.5820   -1.7740 h1        1 O19      0.080700
     35 H8          6.7980    0.9000   -1.2020 hn        1 O19      0.317500
     36 H151        9.6160    1.2750   -0.7680 hc        1 O19      0.053700
     37 H152        8.7000    0.9950    0.7630 hc        1 O19      0.053700
     38 H12         8.9370   -2.6030    0.0840 hn        1 O19      0.383800
     39 H141       11.5420    0.4720    0.2610 hc        1 O19      0.052700
     40 H142       10.6110    0.1630    1.7760 hc        1 O19      0.052700
     41 H131       11.5590   -1.7880   -0.2420 h1        1 O19      0.049200
     42 H132       10.7320   -2.1140    1.3410 h1        1 O19      0.049200
     43 H1          4.9220    2.2370   -1.5040 ha        1 O19      0.154000
     44 H5          4.7230   -1.4470    0.8290 ha        1 O19      0.154000
     45 H2          2.5260    2.6090   -1.0960 ha        1 O19      0.145500
     46 H4          2.3270   -1.0490    1.2120 ha        1 O19      0.145500
     47 H16         1.1040    3.2350    0.5820 ha        1 O19      0.155000
     48 H21        -1.8390   -1.6510    0.3170 hn        1 O19      0.433800
     49 H17        -1.3900    3.5950    0.9570 h4        1 O19      0.026100
     50 H27        -3.6540   -2.0120   -1.2430 ha        1 O19      0.143000
     51 H23        -3.9620    0.6700    2.1700 ha        1 O19      0.143000
     52 H26        -6.0800   -1.9400   -1.5250 ha        1 O19      0.136500
     53 H24        -6.3760    0.7860    1.8610 ha        1 O19      0.136500
     54 H331       -8.3140   -0.4220    2.0260 h1        1 O19      0.047700
     55 H332       -8.4350    1.1430    1.0870 h1        1 O19      0.047700
     56 H291       -8.1010    0.8250   -1.5890 h1        1 O19      0.047700
     57 H292       -7.8190   -0.9030   -2.1000 h1        1 O19      0.047700
     58 H321      -10.3960   -1.2700    1.0280 h1        1 O19      0.055950
     59 H322      -10.7040    0.4650    1.5590 h1        1 O19      0.055950
     60 H301      -10.0990   -1.5560   -1.4580 h1        1 O19      0.055950
     61 H302      -10.2200    0.0080   -2.4200 h1        1 O19      0.055950
@<TRIPOS>BOND
     1    1    2 2   
     2    2    3 1   
     3    2    8 1   
     4    3    4 1   
     5    3    7 1   
     6    3   34 1   
     7    4    5 1   
     8    4   36 1   
     9    4   37 1   
    10    5    6 1   
    11    5   39 1   
    12    5   40 1   
    13    6    7 1   
    14    6   41 1   
    15    6   42 1   
    16    7   38 1   
    17    8    9 1   
    18    8   35 1   
    19    9   10 ar  
    20    9   11 ar  
    21   10   14 ar  
    22   10   43 1   
    23   11   12 ar  
    24   11   44 1   
    25   12   13 ar  
    26   12   46 1   
    27   13   14 ar  
    28   13   15 1   
    29   14   45 1   
    30   15   16 ar  
    31   15   20 ar  
    32   16   17 ar  
    33   17   18 ar  
    34   17   21 1   
    35   18   19 ar  
    36   19   20 ar  
    37   19   49 1   
    38   20   47 1   
    39   21   22 1   
    40   21   48 1   
    41   22   23 ar  
    42   22   27 ar  
    43   23   24 ar  
    44   23   50 1   
    45   24   25 ar  
    46   24   52 1   
    47   25   26 ar  
    48   25   28 1   
    49   26   27 ar  
    50   26   53 1   
    51   27   51 1   
    52   28   29 1   
    53   28   33 1   
    54   29   30 1   
    55   29   54 1   
    56   29   55 1   
    57   30   31 1   
    58   30   58 1   
    59   30   59 1   
    60   31   32 1   
    61   32   33 1   
    62   32   60 1   
    63   32   61 1   
    64   33   56 1   
    65   33   57 1   
@<TRIPOS>SUBSTRUCTURE
     1 O19         1 TEMP              0 ****  ****    0 ROOT
