@<TRIPOS>MOLECULE
O19
   61    58     1     0     0
SMALL
bcc


@<TRIPOS>ATOM
      1 O10         3.9360    3.2720    5.1580 o         1 O19     -0.357000
      2 C9          3.7540    2.3820    5.9440 c1        1 O19      0.315000
      3 C11         4.1620    2.5120    7.1890 c2        1 O19     -0.054000
      4 C15         5.6860    2.2880    7.2640 c3        1 O19     -0.170000
      5 C14         6.2050    3.4500    7.3970 c3        1 O19     -0.182000
      6 C13         5.1320    4.3540    8.1100 c3        1 O19     -0.087000
      7 N12         4.0250    4.0410    7.6460 n3        1 O19     -0.299000
      8 N8          2.9610    1.2540    5.5700 n3        1 O19     -0.305000
      9 C6          2.3770    1.1860    4.2390 c2        1 O19      0.094000
     10 C1          3.1200    0.6580    3.1730 c1        1 O19     -0.167000
     11 C5          1.0730    1.6020    4.0340 c2        1 O19     -0.196000
     12 C4          0.4940    1.4960    2.7620 c1        1 O19     -0.059000
     13 C3          1.2300    0.9720    1.7030 c1        1 O19     -0.086000
     14 C2          2.5450    0.5520    1.9090 c1        1 O19     -0.080000
     15 C7          0.5490    0.7610    0.3010 c2        1 O19      0.107000
     16 N20        -0.3620   -0.2140    0.1340 n2        1 O19     -0.223000
     17 C19        -0.9280   -0.4190   -1.0940 c1        1 O19      0.148000
     18 N18        -0.5680    0.3640   -2.1500 n1        1 O19     -0.207000
     19 C17         0.3410    1.3380   -1.9860 c1        1 O19     -0.007000
     20 C16         0.9090    1.5450   -0.7580 c1        1 O19     -0.278000
     21 N21        -1.9150   -1.4160   -1.2590 n3        1 O19     -0.225000
     22 C22        -2.5760   -1.5760   -2.5430 c2        1 O19      0.044000
     23 C27        -2.0010   -2.3810   -3.5200 c2        1 O19     -0.100000
     24 C26        -2.7140   -2.6840   -4.6860 c1        1 O19     -0.145000
     25 C25        -4.0010   -2.1790   -4.8670 c1        1 O19     -0.015000
     26 C24        -4.5770   -1.3740   -3.8900 c1        1 O19     -0.097000
     27 C23        -3.8670   -1.0710   -2.7270 c1        1 O19     -0.169000
     28 N28        -4.7470   -2.5090   -6.0630 n3        1 O19     -0.204000
     29 C33        -3.8990   -2.1720   -7.3100 c3        1 O19     -0.103000
     30 C32        -4.5620   -2.6010   -8.6050 c3        1 O19     -0.053000
     31 O31        -5.4490   -3.4810   -8.3980 os        1 O19     -0.273000
     32 C30        -5.3900   -4.4490   -7.5860 c3        1 O19     -0.053000
     33 C29        -4.7320   -4.0300   -6.2750 c3        1 O19     -0.103000
     34 H11         3.5890    1.8540    7.6430 h4        1 O19      0.119000
     35 H8          2.7580    0.6060    6.1960 hn        1 O19      0.245000
     36 H151        5.9070    1.7310    8.0310 hc        1 O19      0.102000
     37 H152        6.0100    1.8630    6.4290 hc        1 O19      0.102000
     38 H12         3.3890    4.1090    8.3010 hn        1 O19      0.168000
     39 H141        6.4220    3.8180    6.5270 hc        1 O19      0.093000
     40 H142        7.0110    3.3940    7.9460 hc        1 O19      0.093000
     41 H131        5.1470    4.1920    9.0770 h1        1 O19      0.087000
     42 H132        5.3180    5.3070    7.9250 h1        1 O19      0.087000
     43 H1          4.0390    0.3640    3.3180 ha        1 O19      0.176000
     44 H5          0.5540    1.9710    4.7790 ha        1 O19      0.133000
     45 H2          3.0630    0.1840    1.1650 ha        1 O19      0.139000
     46 H4         -0.4200    1.7870    2.6190 ha        1 O19      0.147000
     47 H16         1.5620    2.2440   -0.6400 ha        1 O19      0.157000
     48 H21        -2.1720   -1.9210   -0.5510 hn        1 O19      0.231000
     49 H17         0.5960    1.8950   -2.7390 ha        1 O19      0.164000
     50 H27        -1.0960   -2.7350   -3.3920 ha        1 O19      0.157000
     51 H23        -4.2650   -0.5150   -2.0530 ha        1 O19      0.132000
     52 H26        -2.3110   -3.2470   -5.3690 ha        1 O19      0.151000
     53 H24        -5.4800   -1.0210   -4.0180 ha        1 O19      0.144000
     54 H331       -3.0450   -2.6180   -7.2360 h1        1 O19      0.100000
     55 H332       -3.7470   -1.1970   -7.3380 h1        1 O19      0.100000
     56 H291       -3.8020   -4.3400   -6.2740 h1        1 O19      0.100000
     57 H292       -5.2070   -4.4560   -5.5340 h1        1 O19      0.100000
     58 H321       -3.8770   -2.9690   -9.2120 h1        1 O19      0.091000
     59 H322       -4.9770   -1.8210   -9.0260 h1        1 O19      0.091000
     60 H301       -4.8660   -5.1750   -7.9900 h1        1 O19      0.091000
     61 H302       -6.3080   -4.7740   -7.4010 h1        1 O19      0.091000
@<TRIPOS>BOND
     1    1    2 1   
     2    2    8 1   
     3    3    4 1   
     4    3    7 1   
     5    3   34 1   
     6    4    5 1   
     7    4   36 1   
     8    4   37 1   
     9    5    6 1   
    10    5   39 1   
    11    5   40 1   
    12    6    7 1   
    13    6   41 1   
    14    6   42 1   
    15    7   38 1   
    16    8    9 1   
    17    8   35 1   
    18    9   10 1   
    19    9   11 1   
    20   10   43 1   
    21   11   12 1   
    22   11   44 1   
    23   12   46 1   
    24   13   14 1   
    25   13   15 1   
    26   14   45 1   
    27   15   16 1   
    28   15   20 1   
    29   16   17 1   
    30   17   21 1   
    31   18   19 1   
    32   19   49 1   
    33   20   47 1   
    34   21   22 1   
    35   21   48 1   
    36   22   23 1   
    37   22   27 1   
    38   23   24 1   
    39   23   50 1   
    40   24   52 1   
    41   25   26 1   
    42   25   28 1   
    43   26   53 1   
    44   27   51 1   
    45   28   29 1   
    46   28   33 1   
    47   29   30 1   
    48   29   54 1   
    49   29   55 1   
    50   30   31 1   
    51   30   58 1   
    52   30   59 1   
    53   31   32 1   
    54   32   33 1   
    55   32   60 1   
    56   32   61 1   
    57   33   56 1   
    58   33   57 1   
@<TRIPOS>SUBSTRUCTURE
     1 O19         1 TEMP              0 ****  ****    0 ROOT
