@<TRIPOS>MOLECULE
O19
   61    65     1     0     0
SMALL
bcc


@<TRIPOS>ATOM
      1 O10         0.1300    2.1950    0.1390 o         1 O19     -0.595100
      2 C9          0.9740    1.2930    0.2860 c         1 O19      0.671100
      3 C11         1.7250    1.2020    1.6330 c3        1 O19      0.092500
      4 C15         1.0380    0.1490    2.5330 c3        1 O19     -0.091400
      5 C14         2.1340   -0.8190    2.9610 c3        1 O19     -0.103400
      6 C13         3.3950   -0.3960    2.1910 c3        1 O19      0.148800
      7 N12         3.1380    0.8540    1.4830 n7        1 O19     -0.819200
      8 N8          1.2450    0.3270   -0.6670 ns        1 O19     -0.452100
      9 C6          0.7020    0.2390   -1.9580 ca        1 O19      0.085600
     10 C1          1.2920   -0.6670   -2.8770 ca        1 O19     -0.181000
     11 C5         -0.4190    0.9850   -2.3790 ca        1 O19     -0.181000
     12 C4         -0.9270    0.8270   -3.6640 ca        1 O19     -0.070000
     13 C3         -0.3360   -0.0640   -4.5670 cp        1 O19     -0.193500
     14 C2          0.7750   -0.8110   -4.1560 ca        1 O19     -0.070000
     15 C7         -0.8590   -0.2210   -5.9350 cp        1 O19      0.541800
     16 N20        -2.1970   -0.1970   -6.1320 nb        1 O19     -0.747000
     17 C19        -2.6420   -0.3400   -7.4410 ca        1 O19      0.863900
     18 N18        -1.8150   -0.5400   -8.5390 nb        1 O19     -0.732000
     19 C17        -0.4980   -0.5590   -8.2860 ca        1 O19      0.457200
     20 C16         0.0510   -0.4000   -7.0050 ca        1 O19     -0.410600
     21 N21        -4.0350   -0.1990   -7.6380 nu        1 O19     -0.696300
     22 C22        -4.6720   -0.7590   -8.7730 ca        1 O19      0.096600
     23 C27        -5.6830   -1.7310   -8.6130 ca        1 O19     -0.110000
     24 C26        -6.3780   -2.2240   -9.7060 ca        1 O19     -0.156500
     25 C25        -6.0870   -1.7800  -11.0170 ca        1 O19      0.124600
     26 C24        -5.0710   -0.8130  -11.1700 ca        1 O19     -0.156500
     27 C23        -4.3850   -0.3040  -10.0740 ca        1 O19     -0.110000
     28 N28        -6.8720   -2.2510  -12.1020 nh        1 O19     -0.629000
     29 C33        -6.6770   -1.5760  -13.3760 c3        1 O19      0.147800
     30 C32        -7.6730   -2.0630  -14.4380 c3        1 O19      0.123900
     31 O31        -7.6450   -3.4780  -14.5740 os        1 O19     -0.414600
     32 C30        -7.8980   -4.1400  -13.3400 c3        1 O19      0.123900
     33 C29        -6.9140   -3.7020  -12.2480 c3        1 O19      0.147800
     34 H11         1.6090    2.2280    2.0930 h1        1 O19      0.079700
     35 H8          2.0170   -0.2810   -0.4890 hn        1 O19      0.330500
     36 H151        0.5730    0.6510    3.4170 hc        1 O19      0.063200
     37 H152        0.2250   -0.3830    1.9800 hc        1 O19      0.063200
     38 H12         3.7200    1.5950    1.8200 hn        1 O19      0.372800
     39 H141        1.8600   -1.8740    2.7160 hc        1 O19      0.053700
     40 H142        2.3090   -0.7610    4.0630 hc        1 O19      0.053700
     41 H131        4.2730   -0.3030    2.8860 h1        1 O19      0.047700
     42 H132        3.6530   -1.1700    1.4170 h1        1 O19      0.047700
     43 H1          2.1660   -1.2690   -2.5830 ha        1 O19      0.153500
     44 H5         -0.9040    1.7030   -1.6960 ha        1 O19      0.153500
     45 H2          1.2430   -1.5270   -4.8500 ha        1 O19      0.143500
     46 H4         -1.8080    1.4170   -3.9670 ha        1 O19      0.143500
     47 H16         1.1330   -0.4050   -6.8390 ha        1 O19      0.155000
     48 H21        -4.5740   -0.2820   -6.7970 hn        1 O19      0.432800
     49 H17         0.1500   -0.7130   -9.1690 h4        1 O19      0.025100
     50 H27        -5.9400   -2.1050   -7.6090 ha        1 O19      0.143000
     51 H23        -3.6060    0.4570  -10.2390 ha        1 O19      0.143000
     52 H26        -7.1740   -2.9660   -9.5340 ha        1 O19      0.136000
     53 H24        -4.7990   -0.4350  -12.1670 ha        1 O19      0.136000
     54 H331       -5.6320   -1.7320  -13.7740 h1        1 O19      0.047950
     55 H332       -6.8360   -0.4730  -13.2170 h1        1 O19      0.047950
     56 H291       -7.2420   -4.1540  -11.2720 h1        1 O19      0.047950
     57 H292       -5.8940   -4.1140  -12.5000 h1        1 O19      0.047950
     58 H321       -7.3730   -1.6780  -15.4470 h1        1 O19      0.055950
     59 H322       -8.7140   -1.7290  -14.1890 h1        1 O19      0.055950
     60 H301       -8.9560   -3.9480  -13.0220 h1        1 O19      0.055950
     61 H302       -7.7540   -5.2280  -13.5710 h1        1 O19      0.055950
@<TRIPOS>BOND
     1    1    2 2   
     2    2    3 1   
     3    2    8 1   
     4    3    4 1   
     5    3    7 1   
     6    3   34 1   
     7    4    5 1   
     8    4   36 1   
     9    4   37 1   
    10    5    6 1   
    11    5   39 1   
    12    5   40 1   
    13    6    7 1   
    14    6   41 1   
    15    6   42 1   
    16    7   38 1   
    17    8    9 1   
    18    8   35 1   
    19    9   10 ar  
    20    9   11 ar  
    21   10   14 ar  
    22   10   43 1   
    23   11   12 ar  
    24   11   44 1   
    25   12   13 ar  
    26   12   46 1   
    27   13   14 ar  
    28   13   15 1   
    29   14   45 1   
    30   15   16 ar  
    31   15   20 ar  
    32   16   17 ar  
    33   17   18 ar  
    34   17   21 1   
    35   18   19 ar  
    36   19   20 ar  
    37   19   49 1   
    38   20   47 1   
    39   21   22 1   
    40   21   48 1   
    41   22   23 ar  
    42   22   27 ar  
    43   23   24 ar  
    44   23   50 1   
    45   24   25 ar  
    46   24   52 1   
    47   25   26 ar  
    48   25   28 1   
    49   26   27 ar  
    50   26   53 1   
    51   27   51 1   
    52   28   29 1   
    53   28   33 1   
    54   29   30 1   
    55   29   54 1   
    56   29   55 1   
    57   30   31 1   
    58   30   58 1   
    59   30   59 1   
    60   31   32 1   
    61   32   33 1   
    62   32   60 1   
    63   32   61 1   
    64   33   56 1   
    65   33   57 1   
@<TRIPOS>SUBSTRUCTURE
     1 O19         1 TEMP              0 ****  ****    0 ROOT
