@<TRIPOS>MOLECULE
O19
   63    67     1     0     0
SMALL
bcc


@<TRIPOS>ATOM
      1 O10         0.1790    1.8600   -2.1910 o         1 O19     -0.399100
      2 C9          1.0370    1.4860   -1.4120 c         1 O19      0.534100
      3 C11         1.7390    2.3540   -0.3570 c3        1 O19      0.111500
      4 C15         0.6710    2.8490    0.6530 c3        1 O19     -0.094400
      5 C14         1.0880    2.2830    2.0050 c3        1 O19     -0.108400
      6 C13         2.3910    1.5050    1.7630 c3        1 O19      0.143800
      7 N12         2.7860    1.6450    0.3610 n3        1 O19     -0.859200
      8 N8          1.4620    0.0220   -1.4900 n4        1 O19     -0.542200
      9 C6          0.7870   -0.7710   -2.5170 ca        1 O19     -0.017400
     10 C1          1.3510   -0.8730   -3.8020 ca        1 O19     -0.095500
     11 C5         -0.4170   -1.4300   -2.2170 ca        1 O19     -0.095500
     12 C4         -1.0470   -2.1930   -3.1990 ca        1 O19     -0.073500
     13 C3         -0.4840   -2.3100   -4.4750 cp        1 O19     -0.123500
     14 C2          0.7130   -1.6430   -4.7710 ca        1 O19     -0.073500
     15 C7         -1.1240   -3.1420   -5.5130 cp        1 O19      0.503800
     16 N20        -2.4760   -3.0720   -5.6700 nb        1 O19     -0.670000
     17 C19        -3.0000   -3.8740   -6.6480 ca        1 O19      0.724900
     18 N18        -2.3160   -4.7390   -7.4700 nb        1 O19     -0.648000
     19 C17        -0.9850   -4.7790   -7.2830 ca        1 O19      0.471200
     20 C16        -0.3290   -3.9910   -6.3140 ca        1 O19     -0.305600
     21 N21        -4.4840   -3.7950   -6.8600 n4        1 O19     -0.579100
     22 C22        -4.8270   -3.0370   -8.0590 ca        1 O19     -0.181400
     23 C27        -4.8180   -3.6660   -9.3200 ca        1 O19     -0.030000
     24 C26        -5.2000   -2.9670  -10.4450 ca        1 O19     -0.208500
     25 C25        -5.6220   -1.6010  -10.3720 ca        1 O19      0.263600
     26 C24        -5.5620   -0.9770   -9.0840 ca        1 O19     -0.208500
     27 C23        -5.1790   -1.6760   -7.9600 ca        1 O19     -0.030000
     28 N28        -6.0930   -0.9330  -11.4750 nh        1 O19     -0.625000
     29 C33        -6.3420    0.4950  -11.3870 c3        1 O19      0.163800
     30 C32        -7.0130    1.1130  -12.6210 c3        1 O19      0.115400
     31 O31        -6.4620    0.6100  -13.8270 os        1 O19     -0.384600
     32 C30        -6.6530   -0.7920  -13.9280 c3        1 O19      0.115400
     33 C29        -5.9600   -1.5460  -12.7850 c3        1 O19      0.163800
     34 H11         2.1470    3.2240   -0.9570 h1        1 O19      0.120700
     35 H8          2.4770   -0.0010   -1.6600 hn        1 O19      0.474300
     36 H151       -0.3570    2.5230    0.3650 hc        1 O19      0.084700
     37 H152        0.6770    3.9700    0.6670 hc        1 O19      0.084700
     38 H12         3.6710    2.1050    0.2640 hn        1 O19      0.407800
     39 H141        0.2990    1.6100    2.4230 hc        1 O19      0.081700
     40 H142        1.2540    3.1050    2.7460 hc        1 O19      0.081700
     41 H131        3.2050    1.8650    2.4500 h1        1 O19      0.072700
     42 H132        2.2390    0.4080    1.9630 h1        1 O19      0.072700
     43 H1          2.2890   -0.3540   -4.0620 ha        1 O19      0.166500
     44 H5         -0.8800   -1.3560   -1.2180 ha        1 O19      0.166500
     45 H2          1.1570   -1.7140   -5.7790 ha        1 O19      0.173000
     46 H4         -1.9930   -2.7050   -2.9540 ha        1 O19      0.173000
     47 H16         0.7620   -4.0500   -6.1830 ha        1 O19      0.190000
     48 H21        -4.9190   -3.3460   -6.0410 hn        1 O19      0.474800
     49 H17        -0.4270   -5.4780   -7.9420 h4        1 O19      0.080100
     50 H27        -4.5050   -4.7200   -9.4240 ha        1 O19      0.152500
     51 H23        -5.1570   -1.1550   -6.9880 ha        1 O19      0.152500
     52 H26        -5.1730   -3.4940  -11.4130 ha        1 O19      0.165000
     53 H24        -5.8260    0.0860   -8.9650 ha        1 O19      0.165000
     54 H331       -7.0230    0.6880  -10.5080 h1        1 O19      0.061700
     55 H332       -5.3610    1.0240  -11.2050 h1        1 O19      0.061700
     56 H291       -4.8630   -1.6450  -13.0300 h1        1 O19      0.061700
     57 H292       -6.4150   -2.5780  -12.7470 h1        1 O19      0.061700
     58 H321       -6.8040    2.2160  -12.6490 h1        1 O19      0.076700
     59 H322       -8.1200    0.9300  -12.5980 h1        1 O19      0.076700
     60 H301       -7.7500   -1.0300  -13.9470 h1        1 O19      0.076700
     61 H302       -6.1800   -1.0750  -14.9060 h1        1 O19      0.076700
     62 H82         1.2900   -0.4010   -0.5670 hn        1 O19      0.474300
     63 H212       -4.8450   -4.7550   -6.9590 hn        1 O19      0.474800
@<TRIPOS>BOND
     1    1    2 2   
     2    2    3 1   
     3    2    8 1   
     4    3    4 1   
     5    3    7 1   
     6    3   34 1   
     7    4    5 1   
     8    4   36 1   
     9    4   37 1   
    10    5    6 1   
    11    5   39 1   
    12    5   40 1   
    13    6    7 1   
    14    6   41 1   
    15    6   42 1   
    16    7   38 1   
    17    8    9 1   
    18    8   35 1   
    19    8   62 1   
    20    9   10 ar  
    21    9   11 ar  
    22   10   14 ar  
    23   10   43 1   
    24   11   12 ar  
    25   11   44 1   
    26   12   13 ar  
    27   12   46 1   
    28   13   14 ar  
    29   13   15 1   
    30   14   45 1   
    31   15   16 ar  
    32   15   20 ar  
    33   16   17 ar  
    34   17   18 ar  
    35   17   21 1   
    36   18   19 ar  
    37   19   20 ar  
    38   19   49 1   
    39   20   47 1   
    40   21   22 1   
    41   21   48 1   
    42   21   63 1   
    43   22   23 ar  
    44   22   27 ar  
    45   23   24 ar  
    46   23   50 1   
    47   24   25 ar  
    48   24   52 1   
    49   25   26 ar  
    50   25   28 1   
    51   26   27 ar  
    52   26   53 1   
    53   27   51 1   
    54   28   29 1   
    55   28   33 1   
    56   29   30 1   
    57   29   54 1   
    58   29   55 1   
    59   30   31 1   
    60   30   58 1   
    61   30   59 1   
    62   31   32 1   
    63   32   33 1   
    64   32   60 1   
    65   32   61 1   
    66   33   56 1   
    67   33   57 1   
@<TRIPOS>SUBSTRUCTURE
     1 O19         1 TEMP              0 ****  ****    0 ROOT
