@<TRIPOS>MOLECULE
O19
   61    65     1     0     0
SMALL
bcc


@<TRIPOS>ATOM
      1 O10         0.0760    2.1220    0.1940 o         1 O19     -0.595100
      2 C9          0.9560    1.2500    0.3090 c         1 O19      0.671100
      3 C11         1.7250    1.1530    1.6460 c3        1 O19      0.092500
      4 C15         1.0880    0.0520    2.5250 c3        1 O19     -0.091400
      5 C14         2.2250   -0.8840    2.9160 c3        1 O19     -0.103400
      6 C13         3.4610   -0.3930    2.1460 c3        1 O19      0.148800
      7 N12         3.1490    0.8640    1.4730 n3        1 O19     -0.819200
      8 N8          1.2540    0.3210   -0.6720 n         1 O19     -0.452100
      9 C6          0.7010    0.2460   -1.9590 ca        1 O19      0.085600
     10 C1          1.3150   -0.6120   -2.9070 ca        1 O19     -0.181000
     11 C5         -0.4530    0.9590   -2.3490 ca        1 O19     -0.181000
     12 C4         -0.9680    0.8150   -3.6330 ca        1 O19     -0.070000
     13 C3         -0.3530   -0.0280   -4.5650 cp        1 O19     -0.193500
     14 C2          0.7910   -0.7420   -4.1850 ca        1 O19     -0.070000
     15 C7         -0.8830   -0.1690   -5.9320 cp        1 O19      0.541800
     16 N20        -2.2240   -0.1920   -6.1150 nb        1 O19     -0.747000
     17 C19        -2.6770   -0.3170   -7.4230 ca        1 O19      0.863900
     18 N18        -1.8550   -0.4570   -8.5340 nb        1 O19     -0.732000
     19 C17        -0.5350   -0.4310   -8.2940 ca        1 O19      0.457200
     20 C16         0.0210   -0.2850   -7.0140 ca        1 O19     -0.410600
     21 N21        -4.0770   -0.2250   -7.6030 nh        1 O19     -0.696300
     22 C22        -4.7040   -0.7790   -8.7460 ca        1 O19      0.096600
     23 C27        -5.6750   -1.7930   -8.6020 ca        1 O19     -0.110000
     24 C26        -6.3630   -2.2840   -9.7010 ca        1 O19     -0.156500
     25 C25        -6.1020   -1.7950  -11.0020 ca        1 O19      0.124600
     26 C24        -5.1260   -0.7860  -11.1390 ca        1 O19     -0.156500
     27 C23        -4.4480   -0.2800  -10.0370 ca        1 O19     -0.110000
     28 N28        -6.8800   -2.2680  -12.0920 nh        1 O19     -0.629000
     29 C33        -6.7260   -1.5520  -13.3490 c3        1 O19      0.147800
     30 C32        -7.7130   -2.0490  -14.4140 c3        1 O19      0.123900
     31 O31        -7.6330   -3.4580  -14.5880 os        1 O19     -0.414600
     32 C30        -7.8470   -4.1610  -13.3700 c3        1 O19      0.123900
     33 C29        -6.8690   -3.7140  -12.2760 c3        1 O19      0.147800
     34 H11         1.5750    2.1620    2.1340 h1        1 O19      0.079700
     35 H8          2.0500   -0.2610   -0.5180 hn        1 O19      0.330500
     36 H151        0.6140    0.5130    3.4250 hc        1 O19      0.063200
     37 H152        0.2900   -0.4960    1.9660 hc        1 O19      0.063200
     38 H12         3.7060    1.6170    1.8230 hn        1 O19      0.372800
     39 H141        2.4100   -0.8470    4.0180 hc        1 O19      0.053700
     40 H142        1.9890   -1.9420    2.6470 hc        1 O19      0.053700
     41 H131        3.7390   -1.1370    1.3490 h1        1 O19      0.047700
     42 H132        4.3420   -0.2850    2.8330 h1        1 O19      0.047700
     43 H1          2.2150   -1.1870   -2.6390 ha        1 O19      0.153500
     44 H5         -0.9580    1.6390   -1.6430 ha        1 O19      0.153500
     45 H2          1.2780   -1.4210   -4.9020 ha        1 O19      0.143500
     46 H4         -1.8740    1.3770   -3.9120 ha        1 O19      0.143500
     47 H16         1.1040   -0.2520   -6.8600 ha        1 O19      0.155000
     48 H21        -4.6030   -0.3500   -6.7590 hn        1 O19      0.432800
     49 H17         0.1080   -0.5370   -9.1880 h4        1 O19      0.025100
     50 H27        -5.9070   -2.2030   -7.6060 ha        1 O19      0.143000
     51 H23        -3.7000    0.5150  -10.1900 ha        1 O19      0.143000
     52 H26        -7.1280   -3.0600   -9.5410 ha        1 O19      0.136000
     53 H24        -4.8790   -0.3720  -12.1290 ha        1 O19      0.136000
     54 H331       -5.6800   -1.6570  -13.7610 h1        1 O19      0.047950
     55 H332       -6.9250   -0.4610  -13.1590 h1        1 O19      0.047950
     56 H291       -5.8360   -4.0800  -12.5490 h1        1 O19      0.047950
     57 H292       -7.1690   -4.2040  -11.3090 h1        1 O19      0.047950
     58 H321       -7.4390   -1.6260  -15.4160 h1        1 O19      0.055950
     59 H322       -8.7640   -1.7610  -14.1460 h1        1 O19      0.055950
     60 H301       -7.6640   -5.2360  -13.6310 h1        1 O19      0.055950
     61 H302       -8.9090   -4.0190  -13.0360 h1        1 O19      0.055950
@<TRIPOS>BOND
     1    1    2 2   
     2    2    3 1   
     3    2    8 1   
     4    3    4 1   
     5    3    7 1   
     6    3   34 1   
     7    4    5 1   
     8    4   36 1   
     9    4   37 1   
    10    5    6 1   
    11    5   39 1   
    12    5   40 1   
    13    6    7 1   
    14    6   41 1   
    15    6   42 1   
    16    7   38 1   
    17    8    9 1   
    18    8   35 1   
    19    9   10 ar  
    20    9   11 ar  
    21   10   14 ar  
    22   10   43 1   
    23   11   12 ar  
    24   11   44 1   
    25   12   13 ar  
    26   12   46 1   
    27   13   14 ar  
    28   13   15 1   
    29   14   45 1   
    30   15   16 ar  
    31   15   20 ar  
    32   16   17 ar  
    33   17   18 ar  
    34   17   21 1   
    35   18   19 ar  
    36   19   20 ar  
    37   19   49 1   
    38   20   47 1   
    39   21   22 1   
    40   21   48 1   
    41   22   23 ar  
    42   22   27 ar  
    43   23   24 ar  
    44   23   50 1   
    45   24   25 ar  
    46   24   52 1   
    47   25   26 ar  
    48   25   28 1   
    49   26   27 ar  
    50   26   53 1   
    51   27   51 1   
    52   28   29 1   
    53   28   33 1   
    54   29   30 1   
    55   29   54 1   
    56   29   55 1   
    57   30   31 1   
    58   30   58 1   
    59   30   59 1   
    60   31   32 1   
    61   32   33 1   
    62   32   60 1   
    63   32   61 1   
    64   33   56 1   
    65   33   57 1   
@<TRIPOS>SUBSTRUCTURE
     1 O19         1 TEMP              0 ****  ****    0 ROOT
