@<TRIPOS>MOLECULE
O1C
   84    82     1     0     0
SMALL
bcc


@<TRIPOS>ATOM
      1 C5         -0.7700    2.4170    3.4140 c1        1 O1C     -0.062000
      2 C10        -1.5300    2.8560    4.8290 c1        1 O1C     -0.117000
      3 C1         -0.7670    2.7100    6.0620 c3        1 O1C      0.067000
      4 C2          0.8660    2.9880    5.8210 c3        1 O1C     -0.086000
      5 C3          1.3930    2.3380    4.8560 c3        1 O1C      0.036000
      6 C4          0.6900    2.5820    3.3610 c3        1 O1C     -0.158000
      7 C6         -1.4900    1.9180    2.3190 c1        1 O1C     -0.119000
      8 C7         -0.7650    1.5350    1.0540 c1        1 O1C     -0.161000
      9 C8         -1.4930    1.1900   -0.0960 c1        1 O1C     -0.063000
     10 C14        -0.8850    1.4420   -1.4960 c2        1 O1C     -0.073000
     11 C13        -1.4050    0.6090   -2.4660 c3        1 O1C     -0.033000
     12 C12        -2.9980    0.5300   -2.4740 c3        1 O1C     -0.150000
     13 C11        -3.5660    0.2430   -1.1750 c3        1 O1C     -0.154000
     14 C9         -3.0520    1.2030   -0.0660 c3        1 O1C     -0.127000
     15 C15         0.6230    0.9480   -1.3410 c3        1 O1C     -0.153000
     16 C16         0.6850   -0.4950   -2.1110 c3        1 O1C     -0.158000
     17 C17        -0.6260   -0.8160   -2.3480 c3        1 O1C     -0.097000
     18 C19        -2.7800    3.3320    4.8380 c1        1 O1C     -0.198000
     19 O2          2.8270    2.7390    4.7590 oh        1 O1C     -0.326000
     20 O1         -0.9920    1.4580    6.6700 oh        1 O1C     -0.323000
     21 C20        -0.7500   -1.6060   -3.6650 c3        1 O1C     -0.094000
     22 C22         0.3180   -2.7140   -3.7050 c3        1 O1C     -0.156000
     23 C18        -0.9890    1.2230   -3.8610 c3        1 O1C     -0.204000
     24 C21        -2.1170   -2.2210   -3.7600 c3        1 O1C     -0.212000
     25 C23         0.2480   -3.4700   -5.0940 c3        1 O1C     -0.158000
     26 C24         1.4070   -4.4660   -5.1910 c3        1 O1C     -0.143000
     27 C25         1.2040   -5.3820   -6.4400 c3        1 O1C      0.076000
     28 O25        -0.1270   -5.2410   -6.9220 oh        1 O1C     -0.325000
     29 C27         2.2130   -4.9670   -7.5650 c3        1 O1C     -0.241000
     30 C26         1.4480   -6.8150   -6.0540 c3        1 O1C     -0.241000
     31 C28         1.6470    2.5950    7.1780 c3        1 O1C     -0.139000
     32 C29         2.4390    3.8260    7.6990 c3        1 O1C     -0.166000
     33 C30         3.0950    3.4730    9.0650 c3        1 O1C     -0.017000
     34 O31         4.3000    4.2540    9.2420 oh        1 O1C     -0.329000
     35 H1         -1.1190    3.3210    6.7570 h1        1 O1C      0.080000
     36 H2          0.9940    3.9390    5.6550 hc        1 O1C      0.108000
     37 H3          1.3510    1.3790    5.0680 h1        1 O1C      0.095000
     38 H41         0.9200    3.4110    2.8910 hc        1 O1C      0.096000
     39 H42         1.0930    1.9130    2.7490 hc        1 O1C      0.096000
     40 H6         -2.4610    1.8220    2.3750 ha        1 O1C      0.123000
     41 H7          0.2000    1.5390    1.0320 ha        1 O1C      0.124000
     42 H14        -0.9350    2.4090   -1.7610 ha        1 O1C      0.092000
     43 H121       -3.3450    1.3680   -2.7810 hc        1 O1C      0.083500
     44 H122       -3.2790   -0.1850   -3.1110 hc        1 O1C      0.083500
     45 H111       -3.3340   -0.6890   -0.9240 hc        1 O1C      0.081500
     46 H112       -4.5230    0.3210   -1.2330 hc        1 O1C      0.081500
     47 H91        -3.4970    1.0780    0.8310 hc        1 O1C      0.089000
     48 H92        -3.3460    2.1360   -0.2830 hc        1 O1C      0.089000
     49 H151        1.2320    1.5850   -1.7660 hc        1 O1C      0.085000
     50 H152        0.8510    0.8400   -0.3980 hc        1 O1C      0.085000
     51 H161        1.1020   -1.1620   -1.5470 hc        1 O1C      0.083500
     52 H162        1.1700   -0.4100   -2.9540 hc        1 O1C      0.083500
     53 H17        -0.9930   -1.3460   -1.5890 hc        1 O1C      0.088000
     54 H191       -3.2090    3.5910    5.7030 DU        1 O1C      0.116000
     55 H192       -3.2830    3.4330    3.9810 ha        1 O1C      0.122000
     56 HO2         3.3020    2.0690    4.3840 ho        1 O1C      0.197000
     57 HO1        -1.6430    1.5350    7.2780 ho        1 O1C      0.202000
     58 H20        -0.6100   -0.9750   -4.4470 hc        1 O1C      0.089000
     59 H221        1.2320   -2.3030   -3.5930 hc        1 O1C      0.079000
     60 H222        0.1580   -3.3360   -2.9940 hc        1 O1C      0.079000
     61 H181        0.0220    1.1730   -3.9680 hc        1 O1C      0.075667
     62 H182       -1.4130    0.7230   -4.5710 hc        1 O1C      0.075667
     63 H183       -1.2720    2.1440   -3.9050 hc        1 O1C      0.075667
     64 H211       -2.6820   -1.6650   -4.3130 hc        1 O1C      0.074667
     65 H212       -2.0460   -3.1200   -4.1620 hc        1 O1C      0.074667
     66 H213       -2.5050   -2.2930   -2.8710 hc        1 O1C      0.074667
     67 H231        0.3150   -2.8220   -5.8180 hc        1 O1C      0.089000
     68 H232       -0.6220   -3.9610   -5.1640 hc        1 O1C      0.089000
     69 H241        1.4330   -5.0330   -4.3590 hc        1 O1C      0.086500
     70 H242        2.2310   -3.9880   -5.2760 hc        1 O1C      0.086500
     71 H25        -0.2420   -5.7640   -7.6260 ho        1 O1C      0.196000
     72 H271        1.9990   -4.0450   -7.8820 hc        1 O1C      0.081667
     73 H272        2.1390   -5.6260   -8.3520 hc        1 O1C      0.081667
     74 H273        3.1490   -4.9850   -7.1990 hc        1 O1C      0.081667
     75 H261        0.7130   -7.1290   -5.4670 hc        1 O1C      0.081667
     76 H262        2.3330   -6.8860   -5.5550 hc        1 O1C      0.081667
     77 H263        1.4820   -7.3570   -6.8450 hc        1 O1C      0.081667
     78 H281        2.2760    1.8550    6.9950 hc        1 O1C      0.085500
     79 H282        0.9700    2.3010    7.8880 hc        1 O1C      0.085500
     80 H291        3.1580    4.0700    7.0340 hc        1 O1C      0.103500
     81 H292        1.8450    4.5640    7.8110 hc        1 O1C      0.103500
     82 H301        3.3130    2.5500    9.0790 h1        1 O1C      0.057000
     83 H302        2.4550    3.6750    9.8060 h1        1 O1C      0.057000
     84 H31         4.6220    4.1210   10.0570 ho        1 O1C      0.194000
@<TRIPOS>BOND
     1    1    6 1   
     2    1    7 1   
     3    2    3 1   
     4    2   18 1   
     5    3    4 1   
     6    3   20 1   
     7    3   35 1   
     8    4    5 1   
     9    4   31 1   
    10    4   36 1   
    11    5    6 1   
    12    5   19 1   
    13    5   37 1   
    14    6   38 1   
    15    6   39 1   
    16    7   40 1   
    17    8    9 1   
    18    8   41 1   
    19    9   14 1   
    20   10   11 1   
    21   10   15 1   
    22   10   42 1   
    23   11   12 1   
    24   11   17 1   
    25   11   23 1   
    26   12   13 1   
    27   12   43 1   
    28   12   44 1   
    29   13   14 1   
    30   13   45 1   
    31   13   46 1   
    32   14   47 1   
    33   14   48 1   
    34   15   16 1   
    35   15   49 1   
    36   15   50 1   
    37   16   17 1   
    38   16   51 1   
    39   16   52 1   
    40   17   21 1   
    41   17   53 1   
    42   18   55 1   
    43   19   56 1   
    44   20   57 1   
    45   21   22 1   
    46   21   24 1   
    47   21   58 1   
    48   22   25 1   
    49   22   59 1   
    50   22   60 1   
    51   23   61 1   
    52   23   62 1   
    53   23   63 1   
    54   24   64 1   
    55   24   65 1   
    56   24   66 1   
    57   25   26 1   
    58   25   67 1   
    59   25   68 1   
    60   26   27 1   
    61   26   69 1   
    62   26   70 1   
    63   27   28 1   
    64   27   29 1   
    65   27   30 1   
    66   28   71 1   
    67   29   72 1   
    68   29   73 1   
    69   29   74 1   
    70   30   75 1   
    71   30   76 1   
    72   30   77 1   
    73   31   32 1   
    74   31   78 1   
    75   31   79 1   
    76   32   33 1   
    77   32   80 1   
    78   32   81 1   
    79   33   34 1   
    80   33   82 1   
    81   33   83 1   
    82   34   84 1   
@<TRIPOS>SUBSTRUCTURE
     1 O1C         1 TEMP              0 ****  ****    0 ROOT
