@<TRIPOS>MOLECULE
O1C
   84    86     1     0     0
SMALL
bcc


@<TRIPOS>ATOM
      1 C5          0.1600    0.0150    0.3230 ce        1 O1C     -0.069200
      2 C10         1.6110   -0.1640    0.2940 ce        1 O1C     -0.123200
      3 C1          2.2680   -0.4160    1.6280 c3        1 O1C      0.181300
      4 C2          1.5480   -1.5380    2.3890 c3        1 O1C     -0.045700
      5 C3          0.0680   -1.1690    2.5320 c3        1 O1C      0.145100
      6 C4         -0.5820   -0.9690    1.1620 c3        1 O1C     -0.074200
      7 C6         -0.5040    0.9720   -0.3590 cf        1 O1C     -0.116000
      8 C7          0.1160    1.9840   -1.1810 cf        1 O1C     -0.154000
      9 C8         -0.4940    2.7000   -2.1420 c2        1 O1C     -0.074400
     10 C14         0.2020    3.7320   -2.9540 c3        1 O1C     -0.038500
     11 C13        -0.5390    5.0980   -2.8810 c3        1 O1C     -0.039000
     12 C12        -1.9110    4.8870   -3.5030 c3        1 O1C     -0.067400
     13 C11        -2.6760    3.8030   -2.7660 c3        1 O1C     -0.073400
     14 C9         -1.9060    2.5050   -2.5910 c3        1 O1C     -0.045200
     15 C15         1.6560    4.0910   -2.6870 c3        1 O1C     -0.073400
     16 C16         1.8270    5.4790   -3.3090 c3        1 O1C     -0.078400
     17 C17         0.4250    6.0070   -3.6780 c3        1 O1C     -0.053700
     18 C19         2.3300   -0.1400   -0.8340 c2        1 O1C     -0.191000
     19 O2         -0.5720   -2.2440    3.2120 oh        1 O1C     -0.600800
     20 O1          2.2520    0.7490    2.4500 oh        1 O1C     -0.596800
     21 C20         0.3020    7.5090   -3.4430 c3        1 O1C     -0.054700
     22 C22         1.3330    8.2610   -4.2840 c3        1 O1C     -0.079400
     23 C18        -0.6660    5.5740   -1.4440 c3        1 O1C     -0.083100
     24 C21        -1.0870    8.0190   -3.7790 c3        1 O1C     -0.092100
     25 C23         1.6380    9.6310   -3.7160 c3        1 O1C     -0.079400
     26 C24         2.6690   10.3480   -4.5600 c3        1 O1C     -0.064400
     27 C25         2.8840   11.8030   -4.1310 c3        1 O1C      0.147800
     28 O25         1.6330   12.4640   -4.3300 oh        1 O1C     -0.597800
     29 C27         3.3000   11.9050   -2.6680 c3        1 O1C     -0.123100
     30 C26         3.9490   12.4430   -5.0180 c3        1 O1C     -0.123100
     31 C28         2.1790   -1.7860    3.7490 c3        1 O1C     -0.077400
     32 C29         3.4850   -2.5420    3.6370 c3        1 O1C     -0.081400
     33 C30         4.0580   -2.8100    5.0180 c3        1 O1C      0.131400
     34 O31         5.2890   -3.4940    4.8330 oh        1 O1C     -0.604800
     35 H1          3.3470   -0.7130    1.4710 h1        1 O1C      0.044700
     36 H2          1.6230   -2.4750    1.7700 hc        1 O1C      0.066700
     37 H3         -0.0200   -0.2270    3.1440 h1        1 O1C      0.056700
     38 H41        -1.6460   -0.6420    1.3090 hc        1 O1C      0.053700
     39 H42        -0.6080   -1.9580    0.6270 hc        1 O1C      0.053700
     40 H6         -1.6050    1.0180   -0.2700 ha        1 O1C      0.124000
     41 H7          1.1870    2.1670   -0.9720 ha        1 O1C      0.127000
     42 H14         0.1440    3.3770   -4.0280 hc        1 O1C      0.055700
     43 H121       -1.7910    4.6010   -4.5810 hc        1 O1C      0.043200
     44 H122       -2.5040    5.8380   -3.4730 hc        1 O1C      0.043200
     45 H111       -3.6230    3.5820   -3.3260 hc        1 O1C      0.040700
     46 H112       -2.9740    4.1900   -1.7550 hc        1 O1C      0.040700
     47 H91        -2.4700    1.8510   -1.8760 hc        1 O1C      0.047700
     48 H92        -1.8750    1.9620   -3.5770 hc        1 O1C      0.047700
     49 H151        2.3510    3.3470   -3.1460 hc        1 O1C      0.043200
     50 H152        1.8670    4.1280   -1.5890 hc        1 O1C      0.043200
     51 H161        2.4670    5.4220   -4.2230 hc        1 O1C      0.042200
     52 H162        2.3270    6.1660   -2.5820 hc        1 O1C      0.042200
     53 H17         0.2450    5.8180   -4.7720 hc        1 O1C      0.046700
     54 H191        1.8710    0.0210   -1.8190 ha        1 O1C      0.121000
     55 H192        3.4180   -0.2910   -0.8400 ha        1 O1C      0.121000
     56 HO2        -1.4930   -1.9850    3.3280 ho        1 O1C      0.399000
     57 HO1         2.4550    1.4990    1.8800 ho        1 O1C      0.405000
     58 H20         0.5080    7.7200   -2.3560 hc        1 O1C      0.050700
     59 H221        0.9490    8.3630   -5.3330 hc        1 O1C      0.040200
     60 H222        2.2880    7.6760   -4.3400 hc        1 O1C      0.040200
     61 H181        0.3370    5.8490   -1.0360 hc        1 O1C      0.037367
     62 H182       -1.3340    6.4670   -1.3850 hc        1 O1C      0.037367
     63 H183       -1.0950    4.7670   -0.8000 hc        1 O1C      0.037367
     64 H211       -1.4370    7.5960   -4.7510 hc        1 O1C      0.035700
     65 H212       -1.0840    9.1330   -3.8600 hc        1 O1C      0.035700
     66 H213       -1.8160    7.7340   -2.9820 hc        1 O1C      0.035700
     67 H231        0.7050   10.2530   -3.6720 hc        1 O1C      0.048700
     68 H232        2.0170    9.5240   -2.6650 hc        1 O1C      0.048700
     69 H241        2.3380   10.3460   -5.6320 hc        1 O1C      0.047200
     70 H242        3.6530    9.8160   -4.4990 hc        1 O1C      0.047200
     71 H25         1.7600   13.3820   -4.0640 ho        1 O1C      0.397000
     72 H271        3.5990   12.9530   -2.4230 hc        1 O1C      0.042367
     73 H272        2.4480   11.6160   -2.0080 hc        1 O1C      0.042367
     74 H273        4.1630   11.2280   -2.4680 hc        1 O1C      0.042367
     75 H261        3.6330   12.3960   -6.0870 hc        1 O1C      0.042367
     76 H262        4.9190   11.9060   -4.8990 hc        1 O1C      0.042367
     77 H263        4.0930   13.5140   -4.7370 hc        1 O1C      0.042367
     78 H281        1.4590   -2.3790    4.3750 hc        1 O1C      0.060700
     79 H282        2.3490   -0.8030    4.2630 hc        1 O1C      0.060700
     80 H291        3.3280   -3.5170    3.1080 hc        1 O1C      0.051700
     81 H292        4.2310   -1.9550    3.0400 hc        1 O1C      0.051700
     82 H301        3.3550   -3.4460    5.6210 h1        1 O1C      0.021700
     83 H302        4.2360   -1.8460    5.5670 h1        1 O1C      0.021700
     84 H31         5.6400   -3.6700    5.7130 ho        1 O1C      0.397000
@<TRIPOS>BOND
     1    1    2 1   
     2    1    6 1   
     3    1    7 2   
     4    2    3 1   
     5    2   18 2   
     6    3    4 1   
     7    3   20 1   
     8    3   35 1   
     9    4    5 1   
    10    4   31 1   
    11    4   36 1   
    12    5    6 1   
    13    5   19 1   
    14    5   37 1   
    15    6   38 1   
    16    6   39 1   
    17    7    8 1   
    18    7   40 1   
    19    8    9 2   
    20    8   41 1   
    21    9   10 1   
    22    9   14 1   
    23   10   11 1   
    24   10   15 1   
    25   10   42 1   
    26   11   12 1   
    27   11   17 1   
    28   11   23 1   
    29   12   13 1   
    30   12   43 1   
    31   12   44 1   
    32   13   14 1   
    33   13   45 1   
    34   13   46 1   
    35   14   47 1   
    36   14   48 1   
    37   15   16 1   
    38   15   49 1   
    39   15   50 1   
    40   16   17 1   
    41   16   51 1   
    42   16   52 1   
    43   17   21 1   
    44   17   53 1   
    45   18   54 1   
    46   18   55 1   
    47   19   56 1   
    48   20   57 1   
    49   21   22 1   
    50   21   24 1   
    51   21   58 1   
    52   22   25 1   
    53   22   59 1   
    54   22   60 1   
    55   23   61 1   
    56   23   62 1   
    57   23   63 1   
    58   24   64 1   
    59   24   65 1   
    60   24   66 1   
    61   25   26 1   
    62   25   67 1   
    63   25   68 1   
    64   26   27 1   
    65   26   69 1   
    66   26   70 1   
    67   27   28 1   
    68   27   29 1   
    69   27   30 1   
    70   28   71 1   
    71   29   72 1   
    72   29   73 1   
    73   29   74 1   
    74   30   75 1   
    75   30   76 1   
    76   30   77 1   
    77   31   32 1   
    78   31   78 1   
    79   31   79 1   
    80   32   33 1   
    81   32   80 1   
    82   32   81 1   
    83   33   34 1   
    84   33   82 1   
    85   33   83 1   
    86   34   84 1   
@<TRIPOS>SUBSTRUCTURE
     1 O1C         1 TEMP              0 ****  ****    0 ROOT
