@<TRIPOS>MOLECULE
O1C
   84    86     1     0     0
SMALL
bcc


@<TRIPOS>ATOM
      1 C5         -3.8160    1.2220   -0.0040 ce        1 O1C     -0.068200
      2 C10        -3.9800    0.1060   -0.9350 ce        1 O1C     -0.123200
      3 C1         -4.8890   -1.0060   -0.4730 c3        1 O1C      0.181300
      4 C2         -6.2300   -0.4470    0.0230 c3        1 O1C     -0.044700
      5 C3         -5.9590    0.5780    1.1300 c3        1 O1C      0.145100
      6 C4         -5.0770    1.7180    0.6180 c3        1 O1C     -0.074200
      7 C6         -2.6350    1.8050    0.2860 cf        1 O1C     -0.116000
      8 C7         -1.3560    1.3920   -0.2420 cf        1 O1C     -0.153000
      9 C8         -0.2410    2.1420   -0.2810 c2        1 O1C     -0.075400
     10 C14         1.0490    1.6550   -0.8370 c3        1 O1C     -0.038500
     11 C13         2.2000    1.8090    0.1970 c3        1 O1C     -0.039000
     12 C12         2.3590    3.2990    0.4590 c3        1 O1C     -0.067400
     13 C11         1.0630    3.8950    0.9820 c3        1 O1C     -0.073400
     14 C9         -0.1560    3.5750    0.1340 c3        1 O1C     -0.044200
     15 C15         1.1980    0.2260   -1.3390 c3        1 O1C     -0.073400
     16 C16         2.7060   -0.0330   -1.3130 c3        1 O1C     -0.079400
     17 C17         3.3720    1.1330   -0.5530 c3        1 O1C     -0.053700
     18 C19        -3.3980    0.0640   -2.1390 c2        1 O1C     -0.191000
     19 O2         -7.2190    1.0970    1.5420 oh        1 O1C     -0.600800
     20 O1         -4.3060   -1.7520    0.5930 oh        1 O1C     -0.596800
     21 C20         4.5490    0.6620    0.2950 c3        1 O1C     -0.054700
     22 C22         5.6050    0.0010   -0.5890 c3        1 O1C     -0.079400
     23 C18         1.8830    1.0660    1.4830 c3        1 O1C     -0.083100
     24 C21         5.1810    1.8060    1.0640 c3        1 O1C     -0.092100
     25 C23         6.4950   -0.9390    0.1960 c3        1 O1C     -0.080400
     26 C24         7.5150   -1.6010   -0.7050 c3        1 O1C     -0.104400
     27 C25         8.5770   -2.3820    0.0770 c3        1 O1C      0.147800
     28 O25         9.2360   -1.5290    1.0160 oh        1 O1C     -0.596800
     29 C27         7.9550   -3.4990    0.9050 c3        1 O1C     -0.103600
     30 C26         9.5990   -2.9560   -0.8990 c3        1 O1C     -0.103600
     31 C28        -7.1470   -1.5520    0.5200 c3        1 O1C     -0.077400
     32 C29        -7.7640   -2.3300   -0.6220 c3        1 O1C     -0.081400
     33 C30        -8.7090   -3.3920   -0.0860 c3        1 O1C      0.131400
     34 O31        -9.2240   -4.0950   -1.2060 oh        1 O1C     -0.604800
     35 H1         -5.0840   -1.7180   -1.3280 h1        1 O1C      0.044700
     36 H2         -6.7210    0.0830   -0.8390 hc        1 O1C      0.066700
     37 H3         -5.4590    0.0610    1.9970 h1        1 O1C      0.056700
     38 H41        -4.8520    2.4130    1.4700 hc        1 O1C      0.054200
     39 H42        -5.6550    2.3040   -0.1480 hc        1 O1C      0.054200
     40 H6         -2.6200    2.6450    1.0040 ha        1 O1C      0.124000
     41 H7         -1.3230    0.3580   -0.6350 ha        1 O1C      0.127000
     42 H14         1.2890    2.3350   -1.7100 hc        1 O1C      0.055700
     43 H121        2.6570    3.8150   -0.4910 hc        1 O1C      0.043200
     44 H122        3.1720    3.4800    1.2080 hc        1 O1C      0.043200
     45 H111        1.1740    5.0100    1.0400 hc        1 O1C      0.041200
     46 H112        0.8880    3.5260    2.0270 hc        1 O1C      0.041200
     47 H91        -0.1240    4.1960   -0.8040 hc        1 O1C      0.047200
     48 H92        -1.0730    3.8850    0.7000 hc        1 O1C      0.047200
     49 H151        0.7780    0.1090   -2.3670 hc        1 O1C      0.044200
     50 H152        0.6680   -0.4940   -0.6660 hc        1 O1C      0.044200
     51 H161        3.1100   -0.0920   -2.3540 hc        1 O1C      0.042200
     52 H162        2.9200   -1.0060   -0.8060 hc        1 O1C      0.042200
     53 H17         3.7680    1.8730   -1.3030 hc        1 O1C      0.046700
     54 H191       -3.5440   -0.7750   -2.8320 ha        1 O1C      0.121000
     55 H192       -2.7500    0.8710   -2.5050 ha        1 O1C      0.121000
     56 HO2        -7.0400    1.7110    2.2640 ho        1 O1C      0.399000
     57 HO1        -3.3760   -1.8760    0.3730 ho        1 O1C      0.404000
     58 H20         4.1740   -0.1030    1.0340 hc        1 O1C      0.052700
     59 H221        5.1120   -0.5780   -1.4140 hc        1 O1C      0.039700
     60 H222        6.2280    0.7970   -1.0750 hc        1 O1C      0.039700
     61 H181        0.8680    1.3470    1.8580 hc        1 O1C      0.038033
     62 H182        1.8960   -0.0370    1.3080 hc        1 O1C      0.038033
     63 H183        2.6330    1.3120    2.2730 hc        1 O1C      0.038033
     64 H211        5.3220    2.6950    0.4040 hc        1 O1C      0.035033
     65 H212        4.5420    2.1020    1.9300 hc        1 O1C      0.035033
     66 H213        6.1800    1.5020    1.4640 hc        1 O1C      0.035033
     67 H231        7.0310   -0.3840    1.0110 hc        1 O1C      0.049200
     68 H232        5.8660   -1.7260    0.6910 hc        1 O1C      0.049200
     69 H241        7.0030   -2.3040   -1.4110 hc        1 O1C      0.042700
     70 H242        8.0300   -0.8180   -1.3230 hc        1 O1C      0.042700
     71 H25         9.6210   -0.8040    0.5100 ho        1 O1C      0.397000
     72 H271        7.3140   -4.1360    0.2520 hc        1 O1C      0.043367
     73 H272        8.7580   -4.1270    1.3610 hc        1 O1C      0.043367
     74 H273        7.3360   -3.0670    1.7270 hc        1 O1C      0.043367
     75 H261       10.0400   -2.1430   -1.5250 hc        1 O1C      0.043367
     76 H262       10.4220   -3.4560   -0.3350 hc        1 O1C      0.043367
     77 H263        9.1110   -3.7020   -1.5690 hc        1 O1C      0.043367
     78 H281       -6.5670   -2.2440    1.1860 hc        1 O1C      0.060700
     79 H282       -7.9630   -1.0890    1.1370 hc        1 O1C      0.060700
     80 H291       -8.3310   -1.6430   -1.3020 hc        1 O1C      0.051700
     81 H292       -6.9680   -2.8260   -1.2360 hc        1 O1C      0.051700
     82 H301       -8.1620   -4.1020    0.5920 h1        1 O1C      0.021700
     83 H302       -9.5500   -2.9190    0.4890 h1        1 O1C      0.021700
     84 H31        -9.8300   -4.7590   -0.8580 ho        1 O1C      0.397000
@<TRIPOS>BOND
     1    1    2 1   
     2    1    6 1   
     3    1    7 2   
     4    2    3 1   
     5    2   18 2   
     6    3    4 1   
     7    3   20 1   
     8    3   35 1   
     9    4    5 1   
    10    4   31 1   
    11    4   36 1   
    12    5    6 1   
    13    5   19 1   
    14    5   37 1   
    15    6   38 1   
    16    6   39 1   
    17    7    8 1   
    18    7   40 1   
    19    8    9 2   
    20    8   41 1   
    21    9   10 1   
    22    9   14 1   
    23   10   11 1   
    24   10   15 1   
    25   10   42 1   
    26   11   12 1   
    27   11   17 1   
    28   11   23 1   
    29   12   13 1   
    30   12   43 1   
    31   12   44 1   
    32   13   14 1   
    33   13   45 1   
    34   13   46 1   
    35   14   47 1   
    36   14   48 1   
    37   15   16 1   
    38   15   49 1   
    39   15   50 1   
    40   16   17 1   
    41   16   51 1   
    42   16   52 1   
    43   17   21 1   
    44   17   53 1   
    45   18   54 1   
    46   18   55 1   
    47   19   56 1   
    48   20   57 1   
    49   21   22 1   
    50   21   24 1   
    51   21   58 1   
    52   22   25 1   
    53   22   59 1   
    54   22   60 1   
    55   23   61 1   
    56   23   62 1   
    57   23   63 1   
    58   24   64 1   
    59   24   65 1   
    60   24   66 1   
    61   25   26 1   
    62   25   67 1   
    63   25   68 1   
    64   26   27 1   
    65   26   69 1   
    66   26   70 1   
    67   27   28 1   
    68   27   29 1   
    69   27   30 1   
    70   28   71 1   
    71   29   72 1   
    72   29   73 1   
    73   29   74 1   
    74   30   75 1   
    75   30   76 1   
    76   30   77 1   
    77   31   32 1   
    78   31   78 1   
    79   31   79 1   
    80   32   33 1   
    81   32   80 1   
    82   32   81 1   
    83   33   34 1   
    84   33   82 1   
    85   33   83 1   
    86   34   84 1   
@<TRIPOS>SUBSTRUCTURE
     1 O1C         1 TEMP              0 ****  ****    0 ROOT
