@<TRIPOS>MOLECULE
O1C
   84    86     1     0     0
SMALL
bcc


@<TRIPOS>ATOM
      1 C5          0.1670    0.0140    0.3260 ce        1 O1C     -0.069200
      2 C10         1.6180   -0.1610    0.3020 ce        1 O1C     -0.123200
      3 C1          2.2720   -0.4100    1.6390 c3        1 O1C      0.181300
      4 C2          1.5530   -1.5340    2.3980 c3        1 O1C     -0.045700
      5 C3          0.0710   -1.1690    2.5360 c3        1 O1C      0.145100
      6 C4         -0.5750   -0.9720    1.1640 c3        1 O1C     -0.074200
      7 C6         -0.4980    0.9680   -0.3580 cf        1 O1C     -0.116000
      8 C7          0.1210    1.9810   -1.1800 cf        1 O1C     -0.154000
      9 C8         -0.4870    2.6940   -2.1440 c2        1 O1C     -0.074400
     10 C14         0.2090    3.7280   -2.9540 c3        1 O1C     -0.038500
     11 C13        -0.5370    5.0910   -2.8850 c3        1 O1C     -0.039000
     12 C12        -1.9060    4.8750   -3.5130 c3        1 O1C     -0.067400
     13 C11        -2.6710    3.7890   -2.7770 c3        1 O1C     -0.073400
     14 C9         -1.8960    2.4930   -2.5980 c3        1 O1C     -0.045200
     15 C15         1.6610    4.0920   -2.6820 c3        1 O1C     -0.073400
     16 C16         1.8290    5.4790   -3.3050 c3        1 O1C     -0.078400
     17 C17         0.4270    6.0020   -3.6800 c3        1 O1C     -0.053700
     18 C19         2.3420   -0.1360   -0.8230 c2        1 O1C     -0.191000
     19 O2         -0.5680   -2.2460    3.2140 oh        1 O1C     -0.600800
     20 O1          2.2490    0.7550    2.4600 oh        1 O1C     -0.596800
     21 C20         0.2980    7.5050   -3.4480 c3        1 O1C     -0.054700
     22 C22         1.3290    8.2580   -4.2860 c3        1 O1C     -0.079400
     23 C18        -0.6720    5.5680   -1.4500 c3        1 O1C     -0.083100
     24 C21        -1.0910    8.0090   -3.7890 c3        1 O1C     -0.092100
     25 C23         1.6270    9.6310   -3.7190 c3        1 O1C     -0.079400
     26 C24         2.6590   10.3500   -4.5600 c3        1 O1C     -0.064400
     27 C25         2.8670   11.8060   -4.1320 c3        1 O1C      0.147800
     28 O25         1.6150   12.4630   -4.3380 oh        1 O1C     -0.597800
     29 C27         3.2770   11.9120   -2.6680 c3        1 O1C     -0.123100
     30 C26         3.9330   12.4490   -5.0160 c3        1 O1C     -0.123100
     31 C28         2.1800   -1.7790    3.7600 c3        1 O1C     -0.077400
     32 C29         3.4880   -2.5310    3.6530 c3        1 O1C     -0.081400
     33 C30         4.0580   -2.7970    5.0360 c3        1 O1C      0.131400
     34 O31         5.2910   -3.4770    4.8550 oh        1 O1C     -0.604800
     35 H1          3.3520   -0.7040    1.4860 h1        1 O1C      0.044700
     36 H2          1.6320   -2.4710    1.7800 hc        1 O1C      0.066700
     37 H3         -0.0220   -0.2270    3.1470 h1        1 O1C      0.056700
     38 H41        -0.5960   -1.9610    0.6290 hc        1 O1C      0.053700
     39 H42        -1.6400   -0.6480    1.3070 hc        1 O1C      0.053700
     40 H6         -1.5990    1.0110   -0.2730 ha        1 O1C      0.124000
     41 H7          1.1920    2.1680   -0.9670 ha        1 O1C      0.127000
     42 H14         0.1560    3.3700   -4.0280 hc        1 O1C      0.055700
     43 H121       -1.7810    4.5880   -4.5900 hc        1 O1C      0.043200
     44 H122       -2.5020    5.8230   -3.4860 hc        1 O1C      0.043200
     45 H111       -2.9730    4.1760   -1.7680 hc        1 O1C      0.040700
     46 H112       -3.6150    3.5640   -3.3410 hc        1 O1C      0.040700
     47 H91        -2.4610    1.8380   -1.8840 hc        1 O1C      0.047700
     48 H92        -1.8600    1.9500   -3.5830 hc        1 O1C      0.047700
     49 H151        2.3600    3.3500   -3.1370 hc        1 O1C      0.043200
     50 H152        1.8670    4.1310   -1.5840 hc        1 O1C      0.043200
     51 H161        2.3240    6.1690   -2.5770 hc        1 O1C      0.042200
     52 H162        2.4730    5.4230   -4.2170 hc        1 O1C      0.042200
     53 H17         0.2520    5.8110   -4.7750 hc        1 O1C      0.046700
     54 H191        1.8850    0.0230   -1.8100 ha        1 O1C      0.121000
     55 H192        3.4300   -0.2830   -0.8250 ha        1 O1C      0.121000
     56 HO2        -1.4900   -1.9890    3.3280 ho        1 O1C      0.399000
     57 HO1         2.4530    1.5060    1.8900 ho        1 O1C      0.405000
     58 H20         0.4990    7.7170   -2.3600 hc        1 O1C      0.050700
     59 H221        2.2870    7.6760   -4.3380 hc        1 O1C      0.040200
     60 H222        0.9490    8.3580   -5.3370 hc        1 O1C      0.040200
     61 H181       -1.0990    4.7610   -0.8060 hc        1 O1C      0.037367
     62 H182        0.3290    5.8470   -1.0380 hc        1 O1C      0.037367
     63 H183       -1.3420    6.4590   -1.3950 hc        1 O1C      0.037367
     64 H211       -1.0920    9.1230   -3.8730 hc        1 O1C      0.035700
     65 H212       -1.8230    7.7230   -2.9960 hc        1 O1C      0.035700
     66 H213       -1.4370    7.5830   -4.7630 hc        1 O1C      0.035700
     67 H231        0.6920   10.2490   -3.6800 hc        1 O1C      0.048700
     68 H232        2.0030    9.5270   -2.6670 hc        1 O1C      0.048700
     69 H241        2.3320   10.3450   -5.6330 hc        1 O1C      0.047200
     70 H242        3.6450    9.8220   -4.4950 hc        1 O1C      0.047200
     71 H25         1.7370   13.3820   -4.0720 ho        1 O1C      0.397000
     72 H271        3.5710   12.9610   -2.4230 hc        1 O1C      0.042367
     73 H272        2.4230   11.6210   -2.0110 hc        1 O1C      0.042367
     74 H273        4.1410   11.2390   -2.4630 hc        1 O1C      0.042367
     75 H261        4.0720   13.5210   -4.7370 hc        1 O1C      0.042367
     76 H262        4.9040   11.9160   -4.8920 hc        1 O1C      0.042367
     77 H263        3.6220   12.3990   -6.0860 hc        1 O1C      0.042367
     78 H281        2.3450   -0.7950    4.2740 hc        1 O1C      0.060700
     79 H282        1.4600   -2.3730    4.3840 hc        1 O1C      0.060700
     80 H291        3.3360   -3.5070    3.1240 hc        1 O1C      0.051700
     81 H292        4.2340   -1.9420    3.0580 hc        1 O1C      0.051700
     82 H301        3.3540   -3.4340    5.6370 h1        1 O1C      0.021700
     83 H302        4.2310   -1.8330    5.5850 h1        1 O1C      0.021700
     84 H31         5.6390   -3.6520    5.7370 ho        1 O1C      0.397000
@<TRIPOS>BOND
     1    1    2 1   
     2    1    6 1   
     3    1    7 2   
     4    2    3 1   
     5    2   18 2   
     6    3    4 1   
     7    3   20 1   
     8    3   35 1   
     9    4    5 1   
    10    4   31 1   
    11    4   36 1   
    12    5    6 1   
    13    5   19 1   
    14    5   37 1   
    15    6   38 1   
    16    6   39 1   
    17    7    8 1   
    18    7   40 1   
    19    8    9 2   
    20    8   41 1   
    21    9   10 1   
    22    9   14 1   
    23   10   11 1   
    24   10   15 1   
    25   10   42 1   
    26   11   12 1   
    27   11   17 1   
    28   11   23 1   
    29   12   13 1   
    30   12   43 1   
    31   12   44 1   
    32   13   14 1   
    33   13   45 1   
    34   13   46 1   
    35   14   47 1   
    36   14   48 1   
    37   15   16 1   
    38   15   49 1   
    39   15   50 1   
    40   16   17 1   
    41   16   51 1   
    42   16   52 1   
    43   17   21 1   
    44   17   53 1   
    45   18   54 1   
    46   18   55 1   
    47   19   56 1   
    48   20   57 1   
    49   21   22 1   
    50   21   24 1   
    51   21   58 1   
    52   22   25 1   
    53   22   59 1   
    54   22   60 1   
    55   23   61 1   
    56   23   62 1   
    57   23   63 1   
    58   24   64 1   
    59   24   65 1   
    60   24   66 1   
    61   25   26 1   
    62   25   67 1   
    63   25   68 1   
    64   26   27 1   
    65   26   69 1   
    66   26   70 1   
    67   27   28 1   
    68   27   29 1   
    69   27   30 1   
    70   28   71 1   
    71   29   72 1   
    72   29   73 1   
    73   29   74 1   
    74   30   75 1   
    75   30   76 1   
    76   30   77 1   
    77   31   32 1   
    78   31   78 1   
    79   31   79 1   
    80   32   33 1   
    81   32   80 1   
    82   32   81 1   
    83   33   34 1   
    84   33   82 1   
    85   33   83 1   
    86   34   84 1   
@<TRIPOS>SUBSTRUCTURE
     1 O1C         1 TEMP              0 ****  ****    0 ROOT
