@<TRIPOS>MOLECULE
O1G
   49    50     1     0     0
SMALL
bcc


@<TRIPOS>ATOM
      1 P           6.5500    0.5400    2.0430 p5        1 O1G      1.316900
      2 C3          2.4170   -2.0210   -1.4670 ca        1 O1G      0.039800
      3 O3          1.2660   -2.4670   -2.0700 oh        1 O1G     -0.542100
      4 C1'        -2.3620    1.2070    2.0520 c3        1 O1G      0.314900
      5 N1'         4.8300   -2.3040   -1.4680 nb        1 O1G     -0.669000
      6 C2'        -0.9950    0.7420    1.5130 c3        1 O1G      0.078100
      7 O2'        -0.1070    1.8450    1.4950 oh        1 O1G     -0.593800
      8 C9A         3.6030   -2.6180   -1.9630 ca        1 O1G      0.283600
      9 C2A         3.4760   -3.6230   -3.0590 c3        1 O1G     -0.104400
     10 C3'        -1.0870    0.0710    0.1220 c3        1 O1G      0.101500
     11 N3'         0.1280   -0.4950   -0.4020 n2        1 O1G     -0.653900
     12 O3B        -2.7650    2.3890    1.3870 oh        1 O1G     -0.675800
     13 C4'        -2.2600   -0.9640    0.1570 c3        1 O1G      0.151100
     14 O4'        -2.4110   -1.5260   -1.1320 oh        1 O1G     -0.623800
     15 C4A         2.4880   -1.0600   -0.4230 ca        1 O1G     -0.227900
     16 C4B         1.2820   -0.4470    0.1670 ce        1 O1G      0.500800
     17 C5'        -3.5520   -0.2680    0.6130 c3        1 O1G      0.040100
     18 O5'        -3.3850    0.2590    1.9370 os        1 O1G     -0.430600
     19 C5A         3.7650   -0.7260    0.0580 ca        1 O1G     -0.123600
     20 C5T         4.0570    0.2860    1.1470 c3        1 O1G      0.237700
     21 C6'        -4.7710   -1.2310    0.6910 c3        1 O1G      0.237400
     22 C6A         4.8960   -1.3960   -0.4950 ca        1 O1G      0.350200
     23 OP1         7.2010   -0.5930    1.2850 o         1 O1G     -0.926167
     24 OP2         5.8220    0.1340    3.2960 o         1 O1G     -0.926167
     25 OP3         7.3350    1.8200    2.1120 o         1 O1G     -0.926167
     26 OP4         5.2520    0.9320    0.9580 os        1 O1G     -0.566200
     27 OP5        -5.3340   -1.3770   -0.5470 os        1 O1G     -0.568200
     28 P'         -6.9520   -0.7020   -0.6650 p5        1 O1G      1.314900
     29 OP6        -7.4060   -1.1660   -2.0190 o         1 O1G     -0.931833
     30 OP7        -7.6320   -1.3370    0.5190 o         1 O1G     -0.931833
     31 OP8        -6.6350    0.7620   -0.5150 o         1 O1G     -0.931833
     32 H1          0.4980   -1.9870   -1.7090 ho        1 O1G      0.466000
     33 H4         -0.4960    2.5060    0.9070 ho        1 O1G      0.408000
     34 H5          2.9580   -3.1540   -3.9330 hc        1 O1G      0.019367
     35 H6          4.4660   -4.0160   -3.3930 hc        1 O1G      0.019367
     36 H7          2.8470   -4.4780   -2.7070 hc        1 O1G      0.019367
     37 H8         -1.3870    0.8720   -0.6230 h1        1 O1G      0.072700
     38 H9         -3.6750    2.2670    1.0720 ho        1 O1G      0.452000
     39 H10        -1.9950   -1.7950    0.8680 h1        1 O1G      0.030700
     40 H11        -3.3660   -1.5610   -1.3310 ho        1 O1G      0.460000
     41 H12         1.4740    0.0610    1.1410 h4        1 O1G      0.004800
     42 H13        -3.8020    0.5640   -0.1020 h1        1 O1G      0.083700
     43 H14         3.2280    1.0550    1.1440 h1        1 O1G      0.027700
     44 H15         4.0530   -0.2610    2.1390 h1        1 O1G      0.027700
     45 H16        -4.3840   -2.2240    1.0670 h1        1 O1G      0.009700
     46 H17        -5.5080   -0.8130    1.4340 h1        1 O1G      0.009700
     47 H18         5.9140   -1.1360   -0.0490 h4        1 O1G      0.147100
     48 H2         -2.2790    1.4390    3.1540 h2        1 O1G      0.052700
     49 H3         -0.5480    0.0270    2.2600 h1        1 O1G      0.076700
@<TRIPOS>BOND
     1    1   23 1   
     2    1   24 1   
     3    1   25 1   
     4    1   26 1   
     5    2    3 1   
     6    2    8 ar  
     7    2   15 ar  
     8    3   32 1   
     9    4    6 1   
    10    4   12 1   
    11    4   18 1   
    12    4   48 1   
    13    5    8 ar  
    14    5   22 ar  
    15    6    7 1   
    16    6   10 1   
    17    6   49 1   
    18    7   33 1   
    19    8    9 1   
    20    9   34 1   
    21    9   35 1   
    22    9   36 1   
    23   10   11 1   
    24   10   13 1   
    25   10   37 1   
    26   11   16 2   
    27   12   38 1   
    28   13   14 1   
    29   13   17 1   
    30   13   39 1   
    31   14   40 1   
    32   15   16 1   
    33   15   19 ar  
    34   16   41 1   
    35   17   18 1   
    36   17   21 1   
    37   17   42 1   
    38   19   20 1   
    39   19   22 ar  
    40   20   26 1   
    41   20   43 1   
    42   20   44 1   
    43   21   27 1   
    44   21   45 1   
    45   21   46 1   
    46   22   47 1   
    47   27   28 1   
    48   28   29 1   
    49   28   30 1   
    50   28   31 1   
@<TRIPOS>SUBSTRUCTURE
     1 O1G         1 TEMP              0 ****  ****    0 ROOT
