@<TRIPOS>MOLECULE
O1G
   49    50     1     0     0
SMALL
bcc


@<TRIPOS>ATOM
      1 P          -0.0650   -2.6900    1.5030 p5        1 O1G      1.316900
      2 C3         -3.1180   -3.6550   -3.5680 ca        1 O1G      0.039800
      3 O3         -4.0610   -3.7590   -4.5610 oh        1 O1G     -0.542100
      4 C1'        -8.4870   -0.6980   -0.7270 c3        1 O1G      0.314900
      5 N1'        -0.8460   -4.2930   -2.9910 nb        1 O1G     -0.669000
      6 C2'        -7.0590   -1.2190   -0.9810 c3        1 O1G      0.078100
      7 O2'        -6.1290   -0.2940   -0.4490 oh        1 O1G     -0.593800
      8 C9A        -1.8850   -4.2860   -3.8690 ca        1 O1G      0.283600
      9 C2A        -1.7470   -4.9600   -5.1930 c3        1 O1G     -0.104400
     10 C3'        -6.7740   -1.5060   -2.4740 c3        1 O1G      0.101500
     11 N3'        -5.5030   -2.1050   -2.7840 n2        1 O1G     -0.653900
     12 O3B        -8.5820    0.6580   -1.1200 oh        1 O1G     -0.675800
     13 C4'        -7.9750   -2.3270   -3.0500 c3        1 O1G      0.151100
     14 O4'        -7.7700   -2.5270   -4.4360 oh        1 O1G     -0.623800
     15 C4A        -3.2950   -3.0000   -2.3200 ca        1 O1G     -0.227900
     16 C4B        -4.5750   -2.3750   -1.9330 ce        1 O1G      0.500800
     17 C5'        -9.2900   -1.5770   -2.7880 c3        1 O1G      0.040100
     18 O5'        -9.4940   -1.4210   -1.3760 os        1 O1G     -0.430600
     19 C5A        -2.2040   -2.9930   -1.4360 ca        1 O1G     -0.123600
     20 C5T        -2.1810   -2.3350   -0.0720 c3        1 O1G      0.237700
     21 C6'       -10.5430   -2.3320   -3.3160 c3        1 O1G      0.237400
     22 C6A        -1.0100   -3.6710   -1.8250 ca        1 O1G      0.350200
     23 OP1         0.7000   -3.6890    0.6660 o         1 O1G     -0.926167
     24 OP2        -1.1670   -3.2750    2.3460 o         1 O1G     -0.926167
     25 OP3         0.7540   -1.6020    2.1370 o         1 O1G     -0.926167
     26 OP4        -0.9400   -1.8520    0.2600 os        1 O1G     -0.566200
     27 OP5       -10.7130   -2.0830   -4.6500 os        1 O1G     -0.568200
     28 P'        -12.1650   -1.1610   -5.0100 p5        1 O1G      1.314900
     29 OP6       -12.2210   -1.2040   -6.5110 o         1 O1G     -0.931833
     30 OP7       -13.2170   -1.9560   -4.2820 o         1 O1G     -0.931833
     31 OP8       -11.8010    0.1560   -4.3770 o         1 O1G     -0.931833
     32 H1         -4.8650   -3.2700   -4.3040 ho        1 O1G      0.466000
     33 H4         -6.2720    0.5420   -0.9120 ho        1 O1G      0.408000
     34 H5         -1.9400   -4.2190   -6.0080 hc        1 O1G      0.019367
     35 H6         -2.5150   -5.7690   -5.2770 hc        1 O1G      0.019367
     36 H7         -0.7350   -5.4060   -5.3400 hc        1 O1G      0.019367
     37 H8         -6.7750   -0.5120   -3.0190 h1        1 O1G      0.072700
     38 H9         -9.3600    0.7560   -1.6900 ho        1 O1G      0.452000
     39 H10        -8.0010   -3.3380   -2.5550 h1        1 O1G      0.030700
     40 H11        -8.6190   -2.3660   -4.8880 ho        1 O1G      0.460000
     41 H12        -4.6500   -2.1550   -0.8420 h4        1 O1G      0.004800
     42 H13        -9.2490   -0.5660   -3.2820 h1        1 O1G      0.083700
     43 H14        -2.9110   -1.4710   -0.0860 h1        1 O1G      0.027700
     44 H15        -2.5260   -3.1000    0.6890 h1        1 O1G      0.027700
     45 H16       -11.4370   -2.0020   -2.7160 h1        1 O1G      0.009700
     46 H17       -10.3620   -3.4330   -3.1420 h1        1 O1G      0.009700
     47 H18        -0.1600   -3.6870   -1.0640 h4        1 O1G      0.147100
     48 H2         -8.7250   -0.7590    0.3750 h2        1 O1G      0.052700
     49 H3         -6.9130   -2.1550   -0.3710 h1        1 O1G      0.076700
@<TRIPOS>BOND
     1    1   23 1   
     2    1   24 1   
     3    1   25 1   
     4    1   26 1   
     5    2    3 1   
     6    2    8 ar  
     7    2   15 ar  
     8    3   32 1   
     9    4    6 1   
    10    4   12 1   
    11    4   18 1   
    12    4   48 1   
    13    5    8 ar  
    14    5   22 ar  
    15    6    7 1   
    16    6   10 1   
    17    6   49 1   
    18    7   33 1   
    19    8    9 1   
    20    9   34 1   
    21    9   35 1   
    22    9   36 1   
    23   10   11 1   
    24   10   13 1   
    25   10   37 1   
    26   11   16 2   
    27   12   38 1   
    28   13   14 1   
    29   13   17 1   
    30   13   39 1   
    31   14   40 1   
    32   15   16 1   
    33   15   19 ar  
    34   16   41 1   
    35   17   18 1   
    36   17   21 1   
    37   17   42 1   
    38   19   20 1   
    39   19   22 ar  
    40   20   26 1   
    41   20   43 1   
    42   20   44 1   
    43   21   27 1   
    44   21   45 1   
    45   21   46 1   
    46   22   47 1   
    47   27   28 1   
    48   28   29 1   
    49   28   30 1   
    50   28   31 1   
@<TRIPOS>SUBSTRUCTURE
     1 O1G         1 TEMP              0 ****  ****    0 ROOT
