@<TRIPOS>MOLECULE
O1G
   49    50     1     0     0
SMALL
bcc


@<TRIPOS>ATOM
      1 P          -0.0720   -2.6470    1.5540 p5        1 O1G      1.316900
      2 C3         -3.0690   -3.6560   -3.5450 ca        1 O1G      0.039800
      3 O3         -3.9660   -3.6970   -4.5840 oh        1 O1G     -0.545100
      4 C1'        -8.4440   -0.6050   -0.7700 c3        1 O1G      0.316900
      5 N1'        -0.8230   -4.3320   -2.9110 nb        1 O1G     -0.669000
      6 C2'        -7.0190   -1.1200   -1.0500 c3        1 O1G      0.080100
      7 O2'        -6.0900   -0.1040   -0.7080 oh        1 O1G     -0.598800
      8 C9A        -1.8330   -4.2930   -3.8210 ca        1 O1G      0.283600
      9 C2A        -1.6540   -4.9270   -5.1600 c3        1 O1G     -0.103400
     10 C3'        -6.7890   -1.6040   -2.5020 c3        1 O1G      0.105500
     11 N3'        -5.5610   -2.3200   -2.7400 n2        1 O1G     -0.659900
     12 O3B        -8.5800    0.7220   -1.2440 oh        1 O1G     -0.678800
     13 C4'        -8.0310   -2.4240   -2.9800 c3        1 O1G      0.153100
     14 O4'        -7.8730   -2.7050   -4.3590 oh        1 O1G     -0.625800
     15 C4A        -3.2860   -3.0380   -2.2830 ca        1 O1G     -0.226900
     16 C4B        -4.5370   -2.3240   -1.9590 ce        1 O1G      0.498800
     17 C5'        -9.3190   -1.6260   -2.7290 c3        1 O1G      0.039100
     18 O5'        -9.4700   -1.3790   -1.3230 os        1 O1G     -0.428600
     19 C5A        -2.2450   -3.1150   -1.3430 ca        1 O1G     -0.123600
     20 C5T        -2.2730   -2.5490    0.0620 c3        1 O1G      0.239700
     21 C6'       -10.6070   -2.3810   -3.1680 c3        1 O1G      0.237400
     22 C6A        -1.0320   -3.7630   -1.7250 ca        1 O1G      0.349200
     23 OP1         0.8980   -3.1790    0.5260 o         1 O1G     -0.925500
     24 OP2         0.0340   -3.2450    2.9290 o         1 O1G     -0.925500
     25 OP3        -0.3210   -1.1640    1.4880 o         1 O1G     -0.925500
     26 OP4        -1.5590   -3.3110    0.9510 os        1 O1G     -0.566200
     27 OP5       -10.8160   -2.2120   -4.5100 os        1 O1G     -0.568200
     28 P'        -12.2390   -1.2490   -4.8780 p5        1 O1G      1.314900
     29 OP6       -11.8000    0.0790   -4.3220 o         1 O1G     -0.932167
     30 OP7       -12.3400   -1.3640   -6.3720 o         1 O1G     -0.932167
     31 OP8       -13.3020   -1.9610   -4.0830 o         1 O1G     -0.932167
     32 H1         -4.8190   -3.3240   -4.2950 ho        1 O1G      0.467000
     33 H4         -6.3220    0.6750   -1.2310 ho        1 O1G      0.408000
     34 H5         -2.4780   -5.6630   -5.3340 hc        1 O1G      0.019367
     35 H6         -1.7230   -4.1410   -5.9540 hc        1 O1G      0.019367
     36 H7         -0.6730   -5.4510   -5.2550 hc        1 O1G      0.019367
     37 H8         -6.7430   -0.6840   -3.1630 h1        1 O1G      0.068700
     38 H9         -9.3710    0.7690   -1.8030 ho        1 O1G      0.455000
     39 H10        -8.0680   -3.4030   -2.4260 h1        1 O1G      0.034700
     40 H11        -8.7370   -2.5710   -4.7900 ho        1 O1G      0.458000
     41 H12        -4.5000   -1.7760   -0.9890 h4        1 O1G      0.009800
     42 H13        -9.2710   -0.6510   -3.2880 h1        1 O1G      0.084700
     43 H14        -1.8620   -1.4940    0.0210 h1        1 O1G      0.025700
     44 H15        -3.3500   -2.5120    0.4070 h1        1 O1G      0.025700
     45 H16       -11.4720   -1.9900   -2.5620 h1        1 O1G      0.009200
     46 H17       -10.4470   -3.4730   -2.9310 h1        1 O1G      0.009200
     47 H18        -0.1900   -3.7690   -0.9540 h4        1 O1G      0.148100
     48 H2         -8.6320   -0.5960    0.3430 h2        1 O1G      0.052700
     49 H3         -6.8020   -1.9570   -0.3270 h1        1 O1G      0.078700
@<TRIPOS>BOND
     1    1   23 1   
     2    1   24 1   
     3    1   25 1   
     4    1   26 1   
     5    2    3 1   
     6    2    8 ar  
     7    2   15 ar  
     8    3   32 1   
     9    4    6 1   
    10    4   12 1   
    11    4   18 1   
    12    4   48 1   
    13    5    8 ar  
    14    5   22 ar  
    15    6    7 1   
    16    6   10 1   
    17    6   49 1   
    18    7   33 1   
    19    8    9 1   
    20    9   34 1   
    21    9   35 1   
    22    9   36 1   
    23   10   11 1   
    24   10   13 1   
    25   10   37 1   
    26   11   16 2   
    27   12   38 1   
    28   13   14 1   
    29   13   17 1   
    30   13   39 1   
    31   14   40 1   
    32   15   16 1   
    33   15   19 ar  
    34   16   41 1   
    35   17   18 1   
    36   17   21 1   
    37   17   42 1   
    38   19   20 1   
    39   19   22 ar  
    40   20   26 1   
    41   20   43 1   
    42   20   44 1   
    43   21   27 1   
    44   21   45 1   
    45   21   46 1   
    46   22   47 1   
    47   27   28 1   
    48   28   29 1   
    49   28   30 1   
    50   28   31 1   
@<TRIPOS>SUBSTRUCTURE
     1 O1G         1 TEMP              0 ****  ****    0 ROOT
