@<TRIPOS>MOLECULE
O1G
   49    45     1     0     0
SMALL
bcc


@<TRIPOS>ATOM
      1 P          -1.7860   -4.8740   -0.9640 p3        1 O1G      2.511000
      2 C3         -0.3020   -0.5280    2.9010 c1        1 O1G      0.003000
      3 O3         -0.8870    0.7410    3.2040 o         1 O1G     -0.282000
      4 C1'         0.5120    3.3690   -0.4340 c3        1 O1G      0.122000
      5 N1'         0.8960   -2.4770    3.6170 n1        1 O1G     -0.152000
      6 C2'         0.8390    2.2990    0.4540 c3        1 O1G     -0.031000
      7 O2'         2.2870    2.4730    0.8980 oh        1 O1G     -0.344000
      8 C9A         0.3590   -1.2530    3.9020 c1        1 O1G     -0.102000
      9 C2A         0.4220   -0.6960    5.3750 c2        1 O1G     -0.135000
     10 C3'         0.6910    0.9670   -0.1100 c3        1 O1G     -0.070000
     11 N3'        -0.7600    0.6030   -0.2400 n2        1 O1G     -0.197000
     12 O3B         0.8520    4.6270    0.2170 oh        1 O1G     -0.360000
     13 C4'         1.4350    0.8720   -1.4320 c3        1 O1G      0.026000
     14 O4'         2.7870    0.9740   -1.1820 oh        1 O1G     -0.384000
     15 C4A        -0.4090   -1.0530    1.6280 c1        1 O1G     -0.165000
     16 C4B        -1.2960   -0.3380    0.5640 c1        1 O1G     -0.008000
     17 C5'         1.0350    1.9860   -2.5040 c3        1 O1G     -0.066000
     18 O5'         1.1970    3.3140   -1.7120 os        1 O1G     -0.286000
     19 C5A         0.1370   -2.2950    1.3450 c2        1 O1G     -0.054000
     20 C5T        -0.1900   -2.9890   -0.0080 c3        1 O1G      0.092000
     21 C6'        -0.2430    1.8270   -2.9170 c3        1 O1G      0.090000
     22 C6A         0.7890   -3.0050    2.3400 c1        1 O1G     -0.102000
     23 OP1        -0.8210   -4.8140   -2.1060 o         1 O1G     -1.244000
     24 OP2        -1.6580   -6.2210   -0.2600 o         1 O1G     -1.244000
     25 OP3        -3.1980   -4.7110   -1.4870 o         1 O1G     -1.244000
     26 OP4        -1.4560   -3.6720    0.0950 o         1 O1G     -0.725000
     27 OP5        -0.2580    1.4590   -4.2530 os        1 O1G     -0.737000
     28 P'         -1.6510    1.1950   -4.9340 p5        1 O1G      1.547500
     29 OP6        -2.4430    0.1990   -4.0980 o         1 O1G     -0.932833
     30 OP7        -1.4380    0.6350   -6.3170 o         1 O1G     -0.932833
     31 OP8        -2.4230    2.4980   -5.0270 o         1 O1G     -0.932833
     32 H1         -1.6500    0.6170    3.6890 ho        1 O1G      0.215000
     33 H2         -0.4310    3.3520   -0.5930 h2        1 O1G      0.118000
     34 H3          0.2390    2.3660    1.2750 h1        1 O1G      0.126000
     35 H4          2.3090    2.9210    1.6590 ho        1 O1G      0.228000
     36 H5         -0.4820   -0.6270    5.7370 ha        1 O1G      0.063333
     37 H6          0.8430    0.1910    5.3730 ha        1 O1G      0.063333
     38 H7          0.9560   -1.3130    5.9360 ha        1 O1G      0.063333
     39 H8          1.0000    0.2900    0.5010 h1        1 O1G      0.127000
     40 H9          0.3430    5.2730   -0.1060 ho        1 O1G      0.219000
     41 H10         1.2580   -0.0110   -1.8230 h1        1 O1G      0.104000
     42 H11         3.2220    0.4710   -1.7380 ho        1 O1G      0.264000
     43 H12        -2.2320   -0.5700    0.4780 ha        1 O1G      0.137000
     44 H13         1.6500    1.9630   -3.2670 h1        1 O1G      0.099000
     45 H14         0.4980   -3.6220   -0.2180 h1        1 O1G      0.061000
     46 H15        -0.2410   -2.3290   -0.7010 h1        1 O1G      0.061000
     47 H16        -0.7270    2.6670   -2.8090 h1        1 O1G      0.047000
     48 H17        -0.6740    1.1320   -2.3830 h1        1 O1G      0.047000
     49 H18         1.0970   -3.8850    2.4340 ha        1 O1G      0.294000
@<TRIPOS>BOND
     1    1   23 1   
     2    1   24 1   
     3    1   25 1   
     4    2    8 1   
     5    2   15 1   
     6    3   32 1   
     7    4    6 1   
     8    4   12 1   
     9    4   18 1   
    10    4   33 1   
    11    5    8 1   
    12    6    7 1   
    13    6   10 1   
    14    6   34 1   
    15    7   35 1   
    16    9   36 1   
    17    9   37 1   
    18    9   38 1   
    19   10   11 1   
    20   10   13 1   
    21   10   39 1   
    22   11   16 1   
    23   12   40 1   
    24   13   14 1   
    25   13   17 1   
    26   13   41 1   
    27   14   42 1   
    28   15   19 1   
    29   16   43 1   
    30   17   18 1   
    31   17   21 1   
    32   17   44 1   
    33   19   20 1   
    34   19   22 1   
    35   20   26 1   
    36   20   45 1   
    37   20   46 1   
    38   21   27 1   
    39   21   47 1   
    40   21   48 1   
    41   22   49 1   
    42   27   28 1   
    43   28   29 1   
    44   28   30 1   
    45   28   31 1   
@<TRIPOS>SUBSTRUCTURE
     1 O1G         1 TEMP              0 ****  ****    0 ROOT
