@<TRIPOS>MOLECULE
O1G
   49    50     1     0     0
SMALL
bcc


@<TRIPOS>ATOM
      1 P          -0.0950   -2.7680    1.5730 p5        1 O1G      1.316900
      2 C3         -3.0590   -3.6180   -3.5730 ca        1 O1G      0.039800
      3 O3         -3.9500   -3.6270   -4.6190 oh        1 O1G     -0.545100
      4 C1'        -8.4510   -0.6500   -0.7400 c3        1 O1G      0.316900
      5 N1'        -0.8170   -4.3130   -2.9470 nb        1 O1G     -0.669000
      6 C2'        -7.0240   -1.1570   -1.0260 c3        1 O1G      0.080100
      7 O2'        -6.0970   -0.1520   -0.6510 oh        1 O1G     -0.598800
      8 C9A        -1.8210   -4.2460   -3.8610 ca        1 O1G      0.283600
      9 C2A        -1.6330   -4.8370   -5.2180 c3        1 O1G     -0.103400
     10 C3'        -6.7860   -1.6000   -2.4900 c3        1 O1G      0.105500
     11 N3'        -5.5570   -2.3080   -2.7430 n2        1 O1G     -0.659900
     12 O3B        -8.5840    0.6890   -1.1770 oh        1 O1G     -0.678800
     13 C4'        -8.0260   -2.4070   -2.9970 c3        1 O1G      0.153100
     14 O4'        -7.8600   -2.6500   -4.3820 oh        1 O1G     -0.625800
     15 C4A        -3.2850   -3.0390   -2.2950 ca        1 O1G     -0.226900
     16 C4B        -4.5370   -2.3370   -1.9560 ce        1 O1G      0.498800
     17 C5'        -9.3150   -1.6170   -2.7310 c3        1 O1G      0.039100
     18 O5'        -9.4740   -1.4080   -1.3200 os        1 O1G     -0.428600
     19 C5A        -2.2490   -3.1460   -1.3510 ca        1 O1G     -0.123600
     20 C5T        -2.2870   -2.6230    0.0710 c3        1 O1G      0.240700
     21 C6'       -10.6000   -2.3590   -3.1970 c3        1 O1G      0.237400
     22 C6A        -1.0330   -3.7810   -1.7450 ca        1 O1G      0.349200
     23 OP1         0.8820   -3.2670    0.5350 o         1 O1G     -0.925500
     24 OP2         0.0030   -3.4080    2.9290 o         1 O1G     -0.925500
     25 OP3        -0.3440   -1.2830    1.5520 o         1 O1G     -0.925500
     26 OP4        -1.5770   -3.4120    0.9400 os        1 O1G     -0.566200
     27 OP5       -10.8030   -2.1540   -4.5340 os        1 O1G     -0.568200
     28 P'        -12.2240   -1.1810   -4.8840 p5        1 O1G      1.314900
     29 OP6       -11.7880    0.1320   -4.2900 o         1 O1G     -0.932167
     30 OP7       -12.3170   -1.2550   -6.3810 o         1 O1G     -0.932167
     31 OP8       -13.2910   -1.9140   -4.1140 o         1 O1G     -0.932167
     32 H1         -4.8050   -3.2640   -4.3230 ho        1 O1G      0.467000
     33 H4         -6.3260    0.6410   -1.1530 ho        1 O1G      0.408000
     34 H5         -1.6950   -4.0270   -5.9870 hc        1 O1G      0.019367
     35 H6         -0.6530   -5.3600   -5.3230 hc        1 O1G      0.019367
     36 H7         -2.4580   -5.5650   -5.4220 hc        1 O1G      0.019367
     37 H8         -6.7380   -0.6620   -3.1250 h1        1 O1G      0.068700
     38 H9         -9.3720    0.7520   -1.7400 ho        1 O1G      0.455000
     39 H10        -8.0650   -3.4010   -2.4710 h1        1 O1G      0.034700
     40 H11        -8.7230   -2.5040   -4.8140 ho        1 O1G      0.458000
     41 H12        -4.5070   -1.8180   -0.9690 h4        1 O1G      0.009800
     42 H13        -9.2650   -0.6260   -3.2630 h1        1 O1G      0.084700
     43 H14        -1.8750   -1.5670    0.0660 h1        1 O1G      0.025700
     44 H15        -3.3650   -2.5980    0.4110 h1        1 O1G      0.025700
     45 H16       -11.4690   -1.9850   -2.5850 h1        1 O1G      0.009200
     46 H17       -10.4410   -3.4580   -2.9890 h1        1 O1G      0.009200
     47 H18        -0.1960   -3.8110   -0.9700 h4        1 O1G      0.148100
     48 H2         -8.6450   -0.6710    0.3720 h2        1 O1G      0.052700
     49 H3         -6.8110   -2.0150   -0.3270 h1        1 O1G      0.078700
@<TRIPOS>BOND
     1    1   23 1   
     2    1   24 1   
     3    1   25 1   
     4    1   26 1   
     5    2    3 1   
     6    2    8 ar  
     7    2   15 ar  
     8    3   32 1   
     9    4    6 1   
    10    4   12 1   
    11    4   18 1   
    12    4   48 1   
    13    5    8 ar  
    14    5   22 ar  
    15    6    7 1   
    16    6   10 1   
    17    6   49 1   
    18    7   33 1   
    19    8    9 1   
    20    9   34 1   
    21    9   35 1   
    22    9   36 1   
    23   10   11 1   
    24   10   13 1   
    25   10   37 1   
    26   11   16 2   
    27   12   38 1   
    28   13   14 1   
    29   13   17 1   
    30   13   39 1   
    31   14   40 1   
    32   15   16 1   
    33   15   19 ar  
    34   16   41 1   
    35   17   18 1   
    36   17   21 1   
    37   17   42 1   
    38   19   20 1   
    39   19   22 ar  
    40   20   26 1   
    41   20   43 1   
    42   20   44 1   
    43   21   27 1   
    44   21   45 1   
    45   21   46 1   
    46   22   47 1   
    47   27   28 1   
    48   28   29 1   
    49   28   30 1   
    50   28   31 1   
@<TRIPOS>SUBSTRUCTURE
     1 O1G         1 TEMP              0 ****  ****    0 ROOT
