@<TRIPOS>MOLECULE
O1Z
   46    49     1     0     0
SMALL
bcc


@<TRIPOS>ATOM
      1 C1         -0.0570    0.2400    0.0710 ca        1 O1Z     -0.024000
      2 S1          0.2080    1.1340    5.0210 ss        1 O1Z     -0.146300
      3 C2          1.3540    0.4110    0.0940 ca        1 O1Z     -0.126000
      4 N2          1.6210    0.9330    7.2140 nc        1 O1Z     -0.772000
      5 C3          2.0590    0.2450    1.2580 ca        1 O1Z     -0.089000
      6 N3         -0.5100    2.0830    7.4520 nu        1 O1Z     -0.811900
      7 O3          3.3170   -0.8170    3.6330 o         1 O1Z     -0.594100
      8 C4          0.0220   -0.2710    2.4660 ca        1 O1Z     -0.091000
      9 N4          3.4730   -0.4120    6.4390 nv        1 O1Z     -0.941500
     10 C5         -0.7290   -0.1120    1.2700 ca        1 O1Z     -0.045000
     11 C6         -0.8120    0.4040   -1.1230 ca        1 O1Z     -0.121000
     12 C7         -2.1730    0.2220   -1.1170 ca        1 O1Z     -0.122000
     13 C8         -2.8430   -0.1330    0.0790 ca        1 O1Z     -0.131000
     14 C9         -2.1380   -0.2970    1.2460 ca        1 O1Z     -0.113000
     15 C10         1.3870   -0.0890    2.4660 ca        1 O1Z     -0.145600
     16 C11         2.2060   -0.2540    3.6960 c         1 O1Z      0.643300
     17 C12         1.6710    0.2900    4.9150 cd        1 O1Z     -0.422000
     18 C13         2.3070    0.2450    6.1890 cc        1 O1Z      0.730200
     19 C14         0.4760    1.4480    6.7160 cd        1 O1Z      0.697300
     20 C15        -0.2720    2.4860    8.8300 c3        1 O1Z      0.201500
     21 C16        -1.6060    2.7900    9.5360 c3        1 O1Z     -0.093400
     22 C17        -1.3620    3.1050   10.9970 c3        1 O1Z     -0.074900
     23 C18        -0.4120    4.2730   11.1620 c3        1 O1Z     -0.080400
     24 C19         0.8920    4.0220   10.4330 c3        1 O1Z     -0.074900
     25 C20         0.6580    3.7030    8.9720 c3        1 O1Z     -0.093400
     26 H2          1.8690    0.6740   -0.8430 ha        1 O1Z      0.136000
     27 H3          3.1550    0.3530    1.2850 ha        1 O1Z      0.151000
     28 HN3        -1.0460    2.7390    6.9220 hn        1 O1Z      0.414800
     29 H4         -0.5140   -0.5620    3.3870 ha        1 O1Z      0.147000
     30 HN4         3.9150   -0.3330    7.3210 hn        1 O1Z      0.455800
     31 HN4A        3.9630   -0.8080    5.6690 hn        1 O1Z      0.455800
     32 H6         -0.2820    0.6780   -2.0480 ha        1 O1Z      0.134000
     33 H7         -2.7600    0.3480   -2.0390 ha        1 O1Z      0.133000
     34 H8         -3.9330   -0.2750    0.0580 ha        1 O1Z      0.133000
     35 H9         -2.6500   -0.5740    2.1800 ha        1 O1Z      0.134000
     36 H15         0.2110    1.6100    9.3590 h1        1 O1Z      0.088700
     37 H16        -2.2920    1.9070    9.4550 hc        1 O1Z      0.048200
     38 H16A       -2.1100    3.6620    9.0420 hc        1 O1Z      0.048200
     39 H17        -2.3400    3.3440   11.4900 hc        1 O1Z      0.045200
     40 H17A       -0.9380    2.2010   11.5090 hc        1 O1Z      0.045200
     41 H18        -0.2070    4.4390   12.2520 hc        1 O1Z      0.041700
     42 H18A       -0.8910    5.2050   10.7640 hc        1 O1Z      0.041700
     43 H19         1.4350    3.1680   10.9190 hc        1 O1Z      0.045200
     44 H19A        1.5480    4.9270   10.5140 hc        1 O1Z      0.045200
     45 H20         0.2010    4.5910    8.4620 hc        1 O1Z      0.048200
     46 H20A        1.6400    3.4890    8.4760 hc        1 O1Z      0.048200
@<TRIPOS>BOND
     1    1    3 ar  
     2    1   10 ar  
     3    1   11 ar  
     4    2   17 1   
     5    2   19 1   
     6    3    5 ar  
     7    3   26 1   
     8    4   18 1   
     9    4   19 2   
    10    5   15 ar  
    11    5   27 1   
    12    6   19 1   
    13    6   20 1   
    14    6   28 1   
    15    7   16 2   
    16    8   10 ar  
    17    8   15 ar  
    18    8   29 1   
    19    9   18 1   
    20    9   30 1   
    21    9   31 1   
    22   10   14 ar  
    23   11   12 ar  
    24   11   32 1   
    25   12   13 ar  
    26   12   33 1   
    27   13   14 ar  
    28   13   34 1   
    29   14   35 1   
    30   15   16 1   
    31   16   17 1   
    32   17   18 2   
    33   20   21 1   
    34   20   25 1   
    35   20   36 1   
    36   21   22 1   
    37   21   37 1   
    38   21   38 1   
    39   22   23 1   
    40   22   39 1   
    41   22   40 1   
    42   23   24 1   
    43   23   41 1   
    44   23   42 1   
    45   24   25 1   
    46   24   43 1   
    47   24   44 1   
    48   25   45 1   
    49   25   46 1   
@<TRIPOS>SUBSTRUCTURE
     1 O1Z         1 TEMP              0 ****  ****    0 ROOT
