@<TRIPOS>MOLECULE
O1Z
   48    51     1     0     0
SMALL
bcc


@<TRIPOS>ATOM
      1 C1          0.2990    1.4130    0.9780 ca        1 O1Z     -0.003000
      2 S1          0.5140    0.3830    5.7660 ss        1 O1Z      0.393700
      3 C2          1.7090    1.2550    0.9580 ca        1 O1Z     -0.072000
      4 N2          1.6600   -0.8130    7.7640 nc        1 O1Z     -0.576000
      5 C3          2.3510    0.5410    1.9430 ca        1 O1Z     -0.092000
      6 N3         -0.2200    0.5780    8.4690 n4        1 O1Z     -0.726700
      7 O3          3.3630   -1.4210    3.8850 o         1 O1Z     -0.511100
      8 C4          0.2220    0.0850    3.0330 ca        1 O1Z     -0.117000
      9 N4          3.4510   -2.0820    6.6250 n4        1 O1Z     -0.800300
     10 C5         -0.4550    0.8110    2.0250 ca        1 O1Z     -0.040000
     11 C6         -0.3840    2.1370   -0.0400 ca        1 O1Z     -0.114000
     12 C7         -1.7530    2.2420   -0.0190 ca        1 O1Z     -0.083000
     13 C8         -2.5050    1.6300    1.0180 ca        1 O1Z     -0.085000
     14 C9         -1.8740    0.9320    2.0160 ca        1 O1Z     -0.139000
     15 C10         1.6050   -0.0340    3.0040 ca        1 O1Z     -0.191600
     16 C11         2.3330   -0.7560    4.0460 c         1 O1Z      0.636300
     17 C12         1.7880   -0.5850    5.4200 cd        1 O1Z     -0.292000
     18 C13         2.3150   -1.1690    6.6010 cc        1 O1Z      0.427200
     19 C14         0.6500    0.0420    7.4330 cd        1 O1Z      0.337300
     20 C15        -0.1550    2.1000    8.5820 c3        1 O1Z      0.126500
     21 C16        -0.6930    2.5410    9.9490 c3        1 O1Z     -0.100400
     22 C17        -0.5580    4.0490   10.0670 c3        1 O1Z     -0.078900
     23 C18        -1.2790    4.7630    8.9450 c3        1 O1Z     -0.095400
     24 C19        -0.8060    4.2830    7.5900 c3        1 O1Z     -0.078900
     25 C20        -0.9460    2.7760    7.4600 c3        1 O1Z     -0.100400
     26 H2          2.2840    1.7040    0.1300 ha        1 O1Z      0.173000
     27 H3          3.4440    0.3980    1.9190 ha        1 O1Z      0.168000
     28 HN3        -1.1880    0.2920    8.2650 hn        1 O1Z      0.475300
     29 H4         -0.3950   -0.4680    3.7640 ha        1 O1Z      0.120000
     30 HN4         3.8990   -2.0900    5.6830 hn        1 O1Z      0.496800
     31 HN4A        4.1390   -1.7790    7.3300 hn        1 O1Z      0.496800
     32 H6          0.2070    2.6020   -0.8460 ha        1 O1Z      0.165000
     33 H7         -2.2860    2.7960   -0.8100 ha        1 O1Z      0.169000
     34 H8         -3.6040    1.7190    1.0010 ha        1 O1Z      0.162000
     35 H9         -2.4550    0.4430    2.8110 ha        1 O1Z      0.132000
     36 H15         0.9390    2.3770    8.5070 hx        1 O1Z      0.116700
     37 H16        -1.7730    2.2540   10.0540 hc        1 O1Z      0.064200
     38 H16A       -0.1140    2.0540   10.7780 hc        1 O1Z      0.064200
     39 H17        -0.9880    4.3670   11.0550 hc        1 O1Z      0.077450
     40 H17A        0.5280    4.3330   10.0680 hc        1 O1Z      0.077450
     41 H18        -1.0950    5.8680    9.0300 hc        1 O1Z      0.079700
     42 H18A       -2.3850    4.6030    9.0400 hc        1 O1Z      0.079700
     43 H19         0.2650    4.5790    7.4310 hc        1 O1Z      0.077450
     44 H19A       -1.4150    4.7700    6.7820 hc        1 O1Z      0.077450
     45 H20        -0.5600    2.4510    6.4550 hc        1 O1Z      0.064200
     46 H20A       -2.0330    2.5000    7.5260 hc        1 O1Z      0.064200
     47 H32         0.0410    0.1830    9.3900 hn        1 O1Z      0.475300
     48 H43         3.1280   -3.0330    6.8550 hn        1 O1Z      0.496800
@<TRIPOS>BOND
     1    1    3 ar  
     2    1   10 ar  
     3    1   11 ar  
     4    2   17 1   
     5    2   19 1   
     6    3    5 ar  
     7    3   26 1   
     8    4   18 1   
     9    4   19 2   
    10    5   15 ar  
    11    5   27 1   
    12    6   19 1   
    13    6   20 1   
    14    6   28 1   
    15    6   47 1   
    16    7   16 2   
    17    8   10 ar  
    18    8   15 ar  
    19    8   29 1   
    20    9   18 1   
    21    9   30 1   
    22    9   31 1   
    23    9   48 1   
    24   10   14 ar  
    25   11   12 ar  
    26   11   32 1   
    27   12   13 ar  
    28   12   33 1   
    29   13   14 ar  
    30   13   34 1   
    31   14   35 1   
    32   15   16 1   
    33   16   17 1   
    34   17   18 2   
    35   20   21 1   
    36   20   25 1   
    37   20   36 1   
    38   21   22 1   
    39   21   37 1   
    40   21   38 1   
    41   22   23 1   
    42   22   39 1   
    43   22   40 1   
    44   23   24 1   
    45   23   41 1   
    46   23   42 1   
    47   24   25 1   
    48   24   43 1   
    49   24   44 1   
    50   25   45 1   
    51   25   46 1   
@<TRIPOS>SUBSTRUCTURE
     1 O1Z         1 TEMP              0 ****  ****    0 ROOT
