@<TRIPOS>MOLECULE
O1Z
   46    49     1     0     0
SMALL
bcc


@<TRIPOS>ATOM
      1 C1         -4.8140    0.4500   -0.5430 ca        1 O1Z     -0.024000
      2 S1          0.1730    0.1260    0.0980 ss        1 O1Z     -0.146300
      3 C2         -4.6980   -0.8540   -1.0980 ca        1 O1Z     -0.126000
      4 N2          2.2290   -1.4270    0.5490 nc        1 O1Z     -0.772000
      5 C3         -3.6260   -1.6520   -0.7910 ca        1 O1Z     -0.089000
      6 N3          2.7570    0.9220    0.1940 nh        1 O1Z     -0.811900
      7 O3         -1.6710   -3.3100    0.5410 o         1 O1Z     -0.594100
      8 C4         -2.6990    0.0740    0.6370 ca        1 O1Z     -0.091000
      9 N4          1.1240   -3.5290    0.9950 nh        1 O1Z     -0.941500
     10 C5         -3.8050    0.9150    0.3400 ca        1 O1Z     -0.045000
     11 C6         -5.9150    1.2970   -0.8420 ca        1 O1Z     -0.121000
     12 C7         -6.0050    2.5480   -0.2830 ca        1 O1Z     -0.122000
     13 C8         -5.0000    3.0110    0.6010 ca        1 O1Z     -0.131000
     14 C9         -3.9250    2.2140    0.9070 ca        1 O1Z     -0.113000
     15 C10        -2.6030   -1.1810    0.0780 ca        1 O1Z     -0.145600
     16 C11        -1.4650   -2.0920    0.3710 c         1 O1Z      0.643300
     17 C12        -0.1530   -1.5060    0.4080 cd        1 O1Z     -0.422000
     18 C13         1.0600   -2.2100    0.6580 cc        1 O1Z      0.730200
     19 C14         1.8870   -0.1530    0.2590 cd        1 O1Z      0.697300
     20 C15         4.1980    0.7180    0.1850 c3        1 O1Z      0.201500
     21 C16         4.9270    2.0350    0.5120 c3        1 O1Z     -0.093400
     22 C17         6.4190    1.7940    0.6060 c3        1 O1Z     -0.074900
     23 C18         6.9690    1.2040   -0.6750 c3        1 O1Z     -0.080400
     24 C19         6.2340   -0.0670   -1.0480 c3        1 O1Z     -0.074900
     25 C20         4.7410    0.1630   -1.1430 c3        1 O1Z     -0.093400
     26 H2         -5.4900   -1.2110   -1.7740 ha        1 O1Z      0.136000
     27 H3         -3.5360   -2.6720   -1.1980 ha        1 O1Z      0.151000
     28 HN3         2.4450    1.6550   -0.4090 hn        1 O1Z      0.414800
     29 H4         -1.9310    0.4440    1.3390 ha        1 O1Z      0.147000
     30 HN4         1.9980   -3.9860    1.0680 hn        1 O1Z      0.455800
     31 HN4A        0.2820   -4.0590    0.9750 hn        1 O1Z      0.455800
     32 H6         -6.6920    0.9280   -1.5290 ha        1 O1Z      0.134000
     33 H7         -6.8570    3.2050   -0.5120 ha        1 O1Z      0.133000
     34 H8         -5.0960    4.0160    1.0380 ha        1 O1Z      0.133000
     35 H9         -3.1400    2.5640    1.5940 ha        1 O1Z      0.134000
     36 H15         4.4390   -0.0260    1.0030 h1        1 O1Z      0.088700
     37 H16         4.7180    2.7950   -0.2850 hc        1 O1Z      0.048200
     38 H16A        4.5530    2.4470    1.4850 hc        1 O1Z      0.048200
     39 H17         6.9340    2.7660    0.8240 hc        1 O1Z      0.045200
     40 H17A        6.6330    1.1000    1.4610 hc        1 O1Z      0.045200
     41 H18         6.8700    1.9520   -1.5050 hc        1 O1Z      0.041700
     42 H18A        8.0610    0.9840   -0.5490 hc        1 O1Z      0.041700
     43 H19         6.6130   -0.4450   -2.0340 hc        1 O1Z      0.045200
     44 H19A        6.4430   -0.8590   -0.2820 hc        1 O1Z      0.045200
     45 H20         4.2310   -0.8060   -1.3850 hc        1 O1Z      0.048200
     46 H20A        4.5230    0.8840   -1.9730 hc        1 O1Z      0.048200
@<TRIPOS>BOND
     1    1    3 ar  
     2    1   10 ar  
     3    1   11 ar  
     4    2   17 1   
     5    2   19 1   
     6    3    5 ar  
     7    3   26 1   
     8    4   18 1   
     9    4   19 2   
    10    5   15 ar  
    11    5   27 1   
    12    6   19 1   
    13    6   20 1   
    14    6   28 1   
    15    7   16 2   
    16    8   10 ar  
    17    8   15 ar  
    18    8   29 1   
    19    9   18 1   
    20    9   30 1   
    21    9   31 1   
    22   10   14 ar  
    23   11   12 ar  
    24   11   32 1   
    25   12   13 ar  
    26   12   33 1   
    27   13   14 ar  
    28   13   34 1   
    29   14   35 1   
    30   15   16 1   
    31   16   17 1   
    32   17   18 2   
    33   20   21 1   
    34   20   25 1   
    35   20   36 1   
    36   21   22 1   
    37   21   37 1   
    38   21   38 1   
    39   22   23 1   
    40   22   39 1   
    41   22   40 1   
    42   23   24 1   
    43   23   41 1   
    44   23   42 1   
    45   24   25 1   
    46   24   43 1   
    47   24   44 1   
    48   25   45 1   
    49   25   46 1   
@<TRIPOS>SUBSTRUCTURE
     1 O1Z         1 TEMP              0 ****  ****    0 ROOT
