@<TRIPOS>MOLECULE
O1Z
   46    44     1     0     0
SMALL
bcc


@<TRIPOS>ATOM
      1 C1         -0.6590   -0.8870   -5.4830 c1        1 O1Z     -0.034500
      2 S1          0.3280   -0.1570   -0.1160 ss        1 O1Z      0.438000
      3 C2          0.5440   -0.2620   -5.1020 c1        1 O1Z     -0.112750
      4 N2          1.7720   -0.5280    1.7700 n2        1 O1Z     -0.246000
      5 C3          1.1120   -0.5440   -3.8670 c1        1 O1Z     -0.089000
      6 N3         -0.1210    1.1180    2.1540 nh        1 O1Z     -0.256000
      7 O3          2.3520   -2.6310   -2.1420 o         1 O1Z     -0.355000
      8 C4         -0.6930   -2.0620   -3.3800 c1        1 O1Z     -0.112750
      9 N4          3.3330   -2.3380    0.5950 nh        1 O1Z     -0.339000
     10 C5         -1.2700   -1.7770   -4.6310 c1        1 O1Z     -0.034500
     11 C6         -1.2580   -0.5700   -6.7160 c1        1 O1Z     -0.112750
     12 C7         -2.4660   -1.1550   -7.0730 c1        1 O1Z     -0.126500
     13 C8         -3.0850   -2.0550   -6.2110 c1        1 O1Z     -0.126500
     14 C9         -2.4950   -2.3690   -4.9940 c1        1 O1Z     -0.112750
     15 C10         0.4940   -1.4440   -3.0050 c1        1 O1Z     -0.125000
     16 C11         1.4870   -1.8070   -1.9220 c2        1 O1Z      0.363000
     17 C12         1.3570   -1.1980   -0.5430 c2        1 O1Z     -0.606000
     18 C13         2.2360   -1.4360    0.5770 c2        1 O1Z      0.209000
     19 C14         0.6370    0.2290    1.3470 c2        1 O1Z     -0.073000
     20 C15         0.1920    1.2690    3.5450 c3        1 O1Z      0.004000
     21 C16        -1.0460    0.9580    4.3630 c3        1 O1Z     -0.172000
     22 C17        -0.8620    1.2660    5.8330 c3        1 O1Z     -0.153500
     23 C18        -0.3490    2.6740    6.0700 c3        1 O1Z     -0.159000
     24 C19         0.8900    2.9850    5.2530 c3        1 O1Z     -0.153500
     25 C20         0.7050    2.6770    3.7830 c3        1 O1Z     -0.172000
     26 H2          0.9780    0.3700   -5.7070 ha        1 O1Z      0.137750
     27 H3          1.9470   -0.1100   -3.6040 ha        1 O1Z      0.151000
     28 HN3        -0.8140    1.5860    1.7890 hn        1 O1Z      0.210000
     29 H4         -1.1270   -2.6930   -2.7750 ha        1 O1Z      0.137750
     30 HN4         4.0970   -2.1370    0.1350 hn        1 O1Z      0.251000
     31 HN4A        3.2730   -3.1220    1.0620 hn        1 O1Z      0.251000
     32 H6         -0.8250    0.0620   -7.3220 ha        1 O1Z      0.137750
     33 H7         -2.8820   -0.9350   -7.9290 ha        1 O1Z      0.133000
     34 H8         -3.9340   -2.4660   -6.4620 ha        1 O1Z      0.133000
     35 H9         -2.9290   -3.0010   -4.3890 ha        1 O1Z      0.137750
     36 H15         0.8960    0.6320    3.7820 h1        1 O1Z      0.128000
     37 H16        -1.7930    1.4890    4.0200 hc        1 O1Z      0.087500
     38 H16A       -1.2610    0.0090    4.2630 hc        1 O1Z      0.087500
     39 H17        -1.7220    1.1610    6.2880 hc        1 O1Z      0.084500
     40 H17A       -0.2230    0.6280    6.2120 hc        1 O1Z      0.084500
     41 H18        -0.1360    2.7770    7.0190 hc        1 O1Z      0.081000
     42 H18A       -1.0530    3.3110    5.8330 hc        1 O1Z      0.081000
     43 H19         1.1050    3.9340    5.3530 hc        1 O1Z      0.084500
     44 H19A        1.6360    2.4540    5.5960 hc        1 O1Z      0.084500
     45 H20         1.5650    2.7820    3.3280 hc        1 O1Z      0.087500
     46 H20A        0.0670    3.3140    3.4040 hc        1 O1Z      0.087500
@<TRIPOS>BOND
     1    1    3 1   
     2    1   11 1   
     3    2   17 1   
     4    2   19 1   
     5    3   26 1   
     6    4   18 1   
     7    4   19 1   
     8    5   15 1   
     9    5   27 1   
    10    6   19 1   
    11    6   20 1   
    12    6   28 1   
    13    7   16 1   
    14    8   10 1   
    15    8   29 1   
    16    9   18 1   
    17    9   30 1   
    18    9   31 1   
    19   10   14 1   
    20   11   32 1   
    21   12   13 1   
    22   12   33 1   
    23   13   34 1   
    24   14   35 1   
    25   15   16 1   
    26   16   17 1   
    27   17   18 1   
    28   20   21 1   
    29   20   25 1   
    30   20   36 1   
    31   21   22 1   
    32   21   37 1   
    33   21   38 1   
    34   22   23 1   
    35   22   39 1   
    36   22   40 1   
    37   23   24 1   
    38   23   41 1   
    39   23   42 1   
    40   24   25 1   
    41   24   43 1   
    42   24   44 1   
    43   25   45 1   
    44   25   46 1   
@<TRIPOS>SUBSTRUCTURE
     1 O1Z         1 TEMP              0 ****  ****    0 ROOT
