@<TRIPOS>MOLECULE
O1Z
   46    49     1     0     0
SMALL
bcc


@<TRIPOS>ATOM
      1 C1         -0.0600    0.2370    0.0710 ca        1 O1Z     -0.024000
      2 S1          0.2100    1.1360    5.0210 ss        1 O1Z     -0.146300
      3 C2          1.3510    0.4110    0.0920 ca        1 O1Z     -0.126000
      4 N2          1.6260    0.9380    7.2110 nc        1 O1Z     -0.772000
      5 C3          2.0570    0.2460    1.2560 ca        1 O1Z     -0.089000
      6 N3         -0.5070    2.0860    7.4500 nh        1 O1Z     -0.811900
      7 O3          3.3190   -0.8120    3.6300 o         1 O1Z     -0.594100
      8 C4          0.0220   -0.2710    2.4670 ca        1 O1Z     -0.091000
      9 N4          3.4780   -0.4050    6.4360 nh        1 O1Z     -0.941500
     10 C5         -0.7300   -0.1140    1.2710 ca        1 O1Z     -0.045000
     11 C6         -0.8170    0.3990   -1.1220 ca        1 O1Z     -0.121000
     12 C7         -2.1780    0.2150   -1.1140 ca        1 O1Z     -0.122000
     13 C8         -2.8460   -0.1390    0.0830 ca        1 O1Z     -0.131000
     14 C9         -2.1390   -0.3010    1.2500 ca        1 O1Z     -0.113000
     15 C10         1.3870   -0.0870    2.4650 ca        1 O1Z     -0.145600
     16 C11         2.2080   -0.2500    3.6940 c         1 O1Z      0.643300
     17 C12         1.6740    0.2940    4.9130 cd        1 O1Z     -0.422000
     18 C13         2.3110    0.2510    6.1860 cc        1 O1Z      0.730200
     19 C14         0.4790    1.4520    6.7150 cd        1 O1Z      0.697300
     20 C15        -0.2680    2.4900    8.8290 c3        1 O1Z      0.201500
     21 C16        -1.6020    2.7930    9.5360 c3        1 O1Z     -0.093400
     22 C17        -1.3560    3.1090   10.9960 c3        1 O1Z     -0.074900
     23 C18        -0.4080    4.2780   11.1600 c3        1 O1Z     -0.080400
     24 C19         0.8950    4.0290   10.4300 c3        1 O1Z     -0.074900
     25 C20         0.6600    3.7090    8.9690 c3        1 O1Z     -0.093400
     26 H2          1.8640    0.6730   -0.8450 ha        1 O1Z      0.136000
     27 H3          3.1530    0.3570    1.2810 ha        1 O1Z      0.151000
     28 HN3        -1.0440    2.7410    6.9210 hn        1 O1Z      0.414800
     29 H4         -0.5120   -0.5620    3.3880 ha        1 O1Z      0.147000
     30 HN4         3.9200   -0.3250    7.3170 hn        1 O1Z      0.455800
     31 HN4A        3.9670   -0.8010    5.6650 hn        1 O1Z      0.455800
     32 H6         -0.2890    0.6730   -2.0480 ha        1 O1Z      0.134000
     33 H7         -2.7650    0.3390   -2.0360 ha        1 O1Z      0.133000
     34 H8         -3.9360   -0.2830    0.0630 ha        1 O1Z      0.133000
     35 H9         -2.6490   -0.5790    2.1850 ha        1 O1Z      0.134000
     36 H15         0.2170    1.6160    9.3580 h1        1 O1Z      0.088700
     37 H16        -2.1070    3.6630    9.0420 hc        1 O1Z      0.048200
     38 H16A       -2.2860    1.9080    9.4560 hc        1 O1Z      0.048200
     39 H17        -0.9310    2.2070   11.5090 hc        1 O1Z      0.045200
     40 H17A       -2.3350    3.3460   11.4900 hc        1 O1Z      0.045200
     41 H18        -0.8890    5.2100   10.7610 hc        1 O1Z      0.041700
     42 H18A       -0.2030    4.4460   12.2490 hc        1 O1Z      0.041700
     43 H19         1.5500    4.9350   10.5090 hc        1 O1Z      0.045200
     44 H19A        1.4400    3.1770   10.9160 hc        1 O1Z      0.045200
     45 H20         1.6430    3.4960    8.4730 hc        1 O1Z      0.048200
     46 H20A        0.2020    4.5960    8.4590 hc        1 O1Z      0.048200
@<TRIPOS>BOND
     1    1    3 ar  
     2    1   10 ar  
     3    1   11 ar  
     4    2   17 1   
     5    2   19 1   
     6    3    5 ar  
     7    3   26 1   
     8    4   18 1   
     9    4   19 2   
    10    5   15 ar  
    11    5   27 1   
    12    6   19 1   
    13    6   20 1   
    14    6   28 1   
    15    7   16 2   
    16    8   10 ar  
    17    8   15 ar  
    18    8   29 1   
    19    9   18 1   
    20    9   30 1   
    21    9   31 1   
    22   10   14 ar  
    23   11   12 ar  
    24   11   32 1   
    25   12   13 ar  
    26   12   33 1   
    27   13   14 ar  
    28   13   34 1   
    29   14   35 1   
    30   15   16 1   
    31   16   17 1   
    32   17   18 2   
    33   20   21 1   
    34   20   25 1   
    35   20   36 1   
    36   21   22 1   
    37   21   37 1   
    38   21   38 1   
    39   22   23 1   
    40   22   39 1   
    41   22   40 1   
    42   23   24 1   
    43   23   41 1   
    44   23   42 1   
    45   24   25 1   
    46   24   43 1   
    47   24   44 1   
    48   25   45 1   
    49   25   46 1   
@<TRIPOS>SUBSTRUCTURE
     1 O1Z         1 TEMP              0 ****  ****    0 ROOT
