@<TRIPOS>MOLECULE
O22
   38    39     1     0     0
SMALL
bcc


@<TRIPOS>ATOM
      1 O2          0.1890    0.6840    0.4870 o         1 O22     -0.448100
      2 C15         1.3880    0.5640    0.2640 c         1 O22      0.585700
      3 N4          2.2360    0.7260    1.5280 n4        1 O22     -0.764400
      4 C12         2.0910    0.3010   -0.9640 ca        1 O22     -0.288600
      5 C11         3.4910    0.1960   -1.0850 ca        1 O22     -0.012000
      6 C10         4.0760   -0.0680   -2.3020 ca        1 O22     -0.200500
      7 C13         1.2990    0.1400   -2.1270 ca        1 O22     -0.012000
      8 C14         1.8710   -0.1250   -3.3520 ca        1 O22     -0.200500
      9 C9          3.2830   -0.2500   -3.4840 ca        1 O22      0.296600
     10 N3          3.9270   -0.4680   -4.6740 nh        1 O22     -0.723300
     11 C8          3.3670   -0.9710   -5.8800 ca        1 O22      0.707200
     12 C7          4.0400   -0.6590   -7.0790 ca        1 O22     -0.393300
     13 C6          3.5390   -1.1740   -8.3090 ca        1 O22      0.317600
     14 N2          4.1630   -0.8950   -9.4870 nh        1 O22     -0.850200
     15 C4          2.3700   -1.9870   -8.2640 ca        1 O22     -0.251300
     16 C5          1.8110   -2.5350   -9.4390 cg        1 O22      0.243800
     17 N1          1.3440   -2.9900  -10.4030 n1        1 O22     -0.344800
     18 N5          2.2470   -1.7520   -5.8180 nb        1 O22     -0.820000
     19 C3          1.7770   -2.2350   -6.9940 ca        1 O22      0.743600
     20 O1          0.6560   -3.0210   -7.0320 os        1 O22     -0.427100
     21 C2          0.0170   -3.3650   -5.7850 c3        1 O22      0.142400
     22 C1         -1.1560   -4.2360   -6.1710 c3        1 O22     -0.108100
     23 H1          1.6200    0.9020    2.3310 hn        1 O22      0.461467
     24 H2          2.7750   -0.1250    1.6950 hn        1 O22      0.461467
     25 H3          4.1530    0.3170   -0.2130 ha        1 O22      0.143000
     26 H4          5.1750   -0.1450   -2.3620 ha        1 O22      0.173500
     27 H5          0.2010    0.2350   -2.0440 ha        1 O22      0.143000
     28 H6          1.2110   -0.2310   -4.2300 ha        1 O22      0.173500
     29 H7          4.9260   -0.4200   -4.6750 hn        1 O22      0.460800
     30 H8          4.9360   -0.0240   -7.0780 ha        1 O22      0.155000
     31 H9          3.8050   -1.2510  -10.3400 hn        1 O22      0.452300
     32 H10         4.9680   -0.3210   -9.5020 hn        1 O22      0.452300
     33 H11        -0.3180   -2.4270   -5.2720 h1        1 O22      0.048200
     34 H12         0.7450   -3.9170   -5.1370 h1        1 O22      0.048200
     35 H13        -1.6980   -4.5420   -5.2450 hc        1 O22      0.058367
     36 H14        -0.8070   -5.1480   -6.7120 hc        1 O22      0.058367
     37 H15        -1.8560   -3.6790   -6.8400 hc        1 O22      0.058367
     38 H43         2.8780    1.5130    1.4160 hn        1 O22      0.461467
@<TRIPOS>BOND
     1    1    2 2   
     2    2    3 1   
     3    2    4 1   
     4    3   23 1   
     5    3   24 1   
     6    3   38 1   
     7    4    5 ar  
     8    4    7 ar  
     9    5    6 ar  
    10    5   25 1   
    11    6    9 ar  
    12    6   26 1   
    13    7    8 ar  
    14    7   27 1   
    15    8    9 ar  
    16    8   28 1   
    17    9   10 1   
    18   10   11 1   
    19   10   29 1   
    20   11   12 ar  
    21   11   18 ar  
    22   12   13 ar  
    23   12   30 1   
    24   13   14 1   
    25   13   15 ar  
    26   14   31 1   
    27   14   32 1   
    28   15   16 1   
    29   15   19 ar  
    30   16   17 3   
    31   18   19 ar  
    32   19   20 1   
    33   20   21 1   
    34   21   22 1   
    35   21   33 1   
    36   21   34 1   
    37   22   35 1   
    38   22   36 1   
    39   22   37 1   
@<TRIPOS>SUBSTRUCTURE
     1 O22         1 TEMP              0 ****  ****    0 ROOT
