@<TRIPOS>MOLECULE
O22
   38    39     1     0     0
SMALL
bcc


@<TRIPOS>ATOM
      1 O2          0.2260    0.7460    0.4430 o         1 O22     -0.448100
      2 C15         1.4230    0.6090    0.2230 c         1 O22      0.585700
      3 N4          2.2710    0.7720    1.4870 nz        1 O22     -0.764400
      4 C12         2.1250    0.3250   -1.0010 ca        1 O22     -0.288600
      5 C11         3.5240    0.2020   -1.1190 ca        1 O22     -0.012000
      6 C10         4.1080   -0.0800   -2.3320 ca        1 O22     -0.200500
      7 C13         1.3330    0.1630   -2.1640 ca        1 O22     -0.012000
      8 C14         1.9040   -0.1210   -3.3860 ca        1 O22     -0.200500
      9 C9          3.3150   -0.2650   -3.5140 ca        1 O22      0.296600
     10 N3          3.9580   -0.5020   -4.7010 nu        1 O22     -0.723300
     11 C8          3.3930   -1.0100   -5.9030 ca        1 O22      0.707200
     12 C7          4.0690   -0.7150   -7.1040 ca        1 O22     -0.393300
     13 C6          3.5630   -1.2370   -8.3300 ca        1 O22      0.317600
     14 N2          4.1910   -0.9740   -9.5100 nv        1 O22     -0.850200
     15 C4          2.3860   -2.0370   -8.2770 ca        1 O22     -0.251300
     16 C5          1.8220   -2.5890   -9.4480 cg        1 O22      0.243800
     17 N1          1.3500   -3.0480  -10.4080 n1        1 O22     -0.344800
     18 N5          2.2650   -1.7780   -5.8340 nb        1 O22     -0.820000
     19 C3          1.7900   -2.2670   -7.0060 ca        1 O22      0.743600
     20 O1          0.6620   -3.0420   -7.0370 os        1 O22     -0.427100
     21 C2          0.0180   -3.3690   -5.7870 c3        1 O22      0.142400
     22 C1         -1.1630   -4.2310   -6.1660 c3        1 O22     -0.108100
     23 H1          1.6570    0.9630    2.2870 hn        1 O22      0.461467
     24 H2          2.9230    1.5500    1.3690 hn        1 O22      0.461467
     25 H3          4.1860    0.3240   -0.2470 ha        1 O22      0.143000
     26 H4          5.2050   -0.1720   -2.3900 ha        1 O22      0.173500
     27 H5          0.2360    0.2710   -2.0840 ha        1 O22      0.143000
     28 H6          1.2440   -0.2270   -4.2640 ha        1 O22      0.173500
     29 H7          4.9570   -0.4650   -4.7010 hn        1 O22      0.460800
     30 H8          4.9720   -0.0890   -7.1080 ha        1 O22      0.155000
     31 H9          3.8290   -1.3340  -10.3600 hn        1 O22      0.452300
     32 H10         5.0010   -0.4080   -9.5290 hn        1 O22      0.452300
     33 H11         0.7410   -3.9220   -5.1340 h1        1 O22      0.048200
     34 H12        -0.3070   -2.4220   -5.2830 h1        1 O22      0.048200
     35 H13        -1.7090   -4.5240   -5.2380 hc        1 O22      0.058367
     36 H14        -1.8570   -3.6740   -6.8410 hc        1 O22      0.058367
     37 H15        -0.8230   -5.1520   -6.6980 hc        1 O22      0.058367
     38 H43         2.8000   -0.0840    1.6630 hn        1 O22      0.461467
@<TRIPOS>BOND
     1    1    2 2   
     2    2    3 1   
     3    2    4 1   
     4    3   23 1   
     5    3   24 1   
     6    3   38 1   
     7    4    5 ar  
     8    4    7 ar  
     9    5    6 ar  
    10    5   25 1   
    11    6    9 ar  
    12    6   26 1   
    13    7    8 ar  
    14    7   27 1   
    15    8    9 ar  
    16    8   28 1   
    17    9   10 1   
    18   10   11 1   
    19   10   29 1   
    20   11   12 ar  
    21   11   18 ar  
    22   12   13 ar  
    23   12   30 1   
    24   13   14 1   
    25   13   15 ar  
    26   14   31 1   
    27   14   32 1   
    28   15   16 1   
    29   15   19 ar  
    30   16   17 3   
    31   18   19 ar  
    32   19   20 1   
    33   20   21 1   
    34   21   22 1   
    35   21   33 1   
    36   21   34 1   
    37   22   35 1   
    38   22   36 1   
    39   22   37 1   
@<TRIPOS>SUBSTRUCTURE
     1 O22         1 TEMP              0 ****  ****    0 ROOT
