@<TRIPOS>MOLECULE
O22
   37    28     1     0     0
SMALL
bcc


@<TRIPOS>ATOM
      1 O2          2.0700    4.8670    3.2830 o         1 O22     -0.373000
      2 C15         2.3540    3.8030    3.7920 c1        1 O22      0.347000
      3 N4          2.9860    3.7690    5.0810 n3        1 O22     -0.435000
      4 C12         2.0370    2.4980    3.0610 c1        1 O22     -0.030000
      5 C11         0.8820    1.7650    3.3920 c1        1 O22     -0.127000
      6 C10         0.5670    0.6130    2.6830 c1        1 O22     -0.127000
      7 C13         2.8530    2.0730    2.0370 c1        1 O22     -0.118000
      8 C14         2.5370    0.9170    1.3260 c1        1 O22     -0.118000
      9 C9          1.3900    0.1870    1.6530 c1        1 O22     -0.030000
     10 N3          1.0790   -1.0340    0.9350 n2        1 O22     -0.254000
     11 C8          0.3740   -0.9680   -0.3570 c1        1 O22      0.206000
     12 C7          1.0910   -0.8430   -1.5250 c1        1 O22     -0.337000
     13 C6          0.4440   -0.8520   -2.7240 c1        1 O22      0.223000
     14 N2          1.1840   -0.8350   -3.9160 n3        1 O22     -0.366000
     15 C4         -0.9210   -0.9860   -2.7640 c1        1 O22      0.017000
     16 C5         -1.6640   -1.0420   -4.1390 c1        1 O22     -0.064000
     17 N1         -2.2070   -1.0840   -5.1450 n1        1 O22     -0.063000
     18 N5         -0.9860   -1.1010   -0.4000 n1        1 O22     -0.301000
     19 C3         -1.6330   -1.1110   -1.5930 c1        1 O22      0.017000
     20 O1         -3.0450   -1.1620   -1.6270 o         1 O22     -0.198000
     21 C2         -3.5710   -2.4740   -1.7250 c3        1 O22     -0.010000
     22 C1         -4.9700   -2.4190   -2.3480 c3        1 O22     -0.223000
     23 H1          2.5350    3.4130    5.8070 hn        1 O22      0.225500
     24 H2          3.8480    4.0540    5.1750 hn        1 O22      0.225500
     25 H3          0.3090    2.0630    4.1100 ha        1 O22      0.139000
     26 H4         -0.2370    0.1010    2.9120 ha        1 O22      0.139000
     27 H5          3.6710    2.5920    1.8040 ha        1 O22      0.157000
     28 H6          3.1280    0.6110    0.5840 ha        1 O22      0.157000
     29 H7          1.3520   -1.8380    1.2640 hn        1 O22      0.239000
     30 H8          2.0800   -0.8450   -1.5000 ha        1 O22      0.158000
     31 H9          2.0860   -0.9900   -3.8950 hn        1 O22      0.233000
     32 H10         0.7840   -0.6460   -4.6840 hn        1 O22      0.233000
     33 H11        -3.6270   -2.8890   -0.7980 h1        1 O22      0.092000
     34 H12        -2.9890   -3.0150   -2.2890 h1        1 O22      0.092000
     35 H13        -4.8970   -2.1100   -3.2990 hc        1 O22      0.090667
     36 H14        -5.3630   -3.2860   -2.3250 hc        1 O22      0.090667
     37 H15        -5.5300   -1.7950   -1.8430 hc        1 O22      0.090667
@<TRIPOS>BOND
     1    1    2 1   
     2    2    3 1   
     3    3   23 1   
     4    3   24 1   
     5    4    7 1   
     6    5    6 1   
     7    5   25 1   
     8    6   26 1   
     9    7   27 1   
    10    8    9 1   
    11    8   28 1   
    12   10   11 1   
    13   10   29 1   
    14   11   18 1   
    15   12   13 1   
    16   12   30 1   
    17   13   14 1   
    18   14   31 1   
    19   14   32 1   
    20   15   19 1   
    21   16   17 1   
    22   20   21 1   
    23   21   22 1   
    24   21   33 1   
    25   21   34 1   
    26   22   35 1   
    27   22   36 1   
    28   22   37 1   
@<TRIPOS>SUBSTRUCTURE
     1 O22         1 TEMP              0 ****  ****    0 ROOT
