@<TRIPOS>MOLECULE
O22
   40    41     1     0     0
SMALL
bcc


@<TRIPOS>ATOM
      1 O2          1.2850   -1.3390    0.7420 o         1 O22     -0.331100
      2 C15         2.0750   -0.4890    0.3720 c         1 O22      0.547700
      3 N4          2.7800    0.2690    1.4700 n4        1 O22     -0.753400
      4 C12         2.3890   -0.1140   -1.0240 ca        1 O22     -0.135600
      5 C11         3.7020   -0.0430   -1.5040 ca        1 O22     -0.050000
      6 C10         3.9410    0.2200   -2.8530 ca        1 O22     -0.081500
      7 C13         1.3070    0.0720   -1.8980 ca        1 O22     -0.050000
      8 C14         1.5330    0.3450   -3.2490 ca        1 O22     -0.081500
      9 C9          2.8540    0.4210   -3.7240 ca        1 O22      0.006600
     10 N3          3.1030    0.7700   -5.1340 n4        1 O22     -0.630100
     11 C8          2.9730   -0.3640   -6.0980 ca        1 O22      0.565200
     12 C7          4.0110   -0.5780   -7.0230 ca        1 O22     -0.269300
     13 C6          3.8200   -1.6180   -7.9700 ca        1 O22      0.067600
     14 N2          4.8520   -1.8810   -8.9760 n4        1 O22     -0.717000
     15 C4          2.6550   -2.3870   -7.9530 ca        1 O22     -0.028300
     16 C5          2.4150   -3.4340   -8.8730 cg        1 O22      0.117800
     17 N1          2.1690   -4.3070   -9.6040 n1        1 O22     -0.130800
     18 N5          1.8210   -1.0790   -6.0350 nb        1 O22     -0.725000
     19 C3          1.6550   -2.0750   -6.9440 ca        1 O22      0.759600
     20 O1          0.5600   -2.8470   -6.9910 os        1 O22     -0.383100
     21 C2         -0.5580   -2.6080   -6.0750 c3        1 O22      0.150400
     22 C1         -1.5830   -3.6400   -6.4700 c3        1 O22     -0.123100
     23 H1          2.5100   -0.1240    2.3890 hn        1 O22      0.486467
     24 H2          3.7980    0.1990    1.3690 hn        1 O22      0.486467
     25 H3          4.5690   -0.2150   -0.8410 ha        1 O22      0.192500
     26 H4          4.9880    0.2670   -3.2040 ha        1 O22      0.190500
     27 H5          0.2650   -0.0050   -1.5290 ha        1 O22      0.192500
     28 H6          0.6630    0.4880   -3.9170 ha        1 O22      0.190500
     29 H7          4.0550    1.1590   -5.2190 hn        1 O22      0.488800
     30 H8          4.9280    0.0320   -7.0320 ha        1 O22      0.189000
     31 H9          5.3400   -1.0100   -9.2300 hn        1 O22      0.495467
     32 H10         4.4230   -2.2820   -9.8290 hn        1 O22      0.495467
     33 H11        -0.1850   -2.7520   -5.0290 h1        1 O22      0.066700
     34 H12        -0.9220   -1.5610   -6.2350 h1        1 O22      0.066700
     35 H13        -2.4790   -3.5140   -5.8110 hc        1 O22      0.088033
     36 H14        -1.8970   -3.5090   -7.5340 hc        1 O22      0.088033
     37 H15        -1.1820   -4.6750   -6.3420 hc        1 O22      0.088033
     38 H43         2.5090    1.2600    1.4480 hn        1 O22      0.486467
     39 H32         2.4190    1.4990   -5.4110 hn        1 O22      0.488800
     40 H23         5.5380   -2.5580   -8.6050 hn        1 O22      0.495467
@<TRIPOS>BOND
     1    1    2 2   
     2    2    3 1   
     3    2    4 1   
     4    3   23 1   
     5    3   24 1   
     6    3   38 1   
     7    4    5 ar  
     8    4    7 ar  
     9    5    6 ar  
    10    5   25 1   
    11    6    9 ar  
    12    6   26 1   
    13    7    8 ar  
    14    7   27 1   
    15    8    9 ar  
    16    8   28 1   
    17    9   10 1   
    18   10   11 1   
    19   10   29 1   
    20   10   39 1   
    21   11   12 ar  
    22   11   18 ar  
    23   12   13 ar  
    24   12   30 1   
    25   13   14 1   
    26   13   15 ar  
    27   14   31 1   
    28   14   32 1   
    29   14   40 1   
    30   15   16 1   
    31   15   19 ar  
    32   16   17 3   
    33   18   19 ar  
    34   19   20 1   
    35   20   21 1   
    36   21   22 1   
    37   21   33 1   
    38   21   34 1   
    39   22   35 1   
    40   22   36 1   
    41   22   37 1   
@<TRIPOS>SUBSTRUCTURE
     1 O22         1 TEMP              0 ****  ****    0 ROOT
