@<TRIPOS>MOLECULE
O22
   37    38     1     0     0
SMALL
bcc


@<TRIPOS>ATOM
      1 O2          5.5630   -1.5000    0.0450 o         1 O22     -0.611100
      2 C15         5.3880   -0.2690   -0.0790 c         1 O22      0.673700
      3 N4          6.4710    0.5580   -0.2550 n         1 O22     -0.675000
      4 C12         4.0300    0.3400   -0.0310 ca        1 O22     -0.160600
      5 C11         3.6890    1.4690   -0.7800 ca        1 O22     -0.073000
      6 C10         2.4020    1.9910   -0.7200 ca        1 O22     -0.157500
      7 C13         3.0630   -0.2660    0.7770 ca        1 O22     -0.073000
      8 C14         1.7760    0.2520    0.8600 ca        1 O22     -0.157500
      9 C9          1.4220    1.3920    0.1060 ca        1 O22      0.166600
     10 N3          0.1530    1.9950    0.2230 nh        1 O22     -0.729300
     11 C8         -1.0620    1.3010    0.0930 ca        1 O22      0.737200
     12 C7         -2.2580    2.0670    0.1150 ca        1 O22     -0.428300
     13 C6         -3.5100    1.4110    0.0380 ca        1 O22      0.309600
     14 N2         -4.6770    2.1300    0.0130 nh        1 O22     -0.857200
     15 C4         -3.5220   -0.0120   -0.0530 ca        1 O22     -0.284300
     16 C5         -4.7310   -0.7340   -0.1200 cg        1 O22      0.267800
     17 N1         -5.7270   -1.3350   -0.1730 n1        1 O22     -0.391800
     18 N5         -1.0620   -0.0660   -0.0150 nb        1 O22     -0.817000
     19 C3         -2.2640   -0.6790   -0.0790 ca        1 O22      0.745600
     20 O1         -2.3470   -2.0450   -0.1790 os        1 O22     -0.439100
     21 C2         -1.1160   -2.7970   -0.2310 c3        1 O22      0.140400
     22 C1         -1.5390   -4.2440   -0.3360 c3        1 O22     -0.106100
     23 H1          7.3810    0.1700   -0.2550 hn        1 O22      0.312000
     24 H2          6.3690    1.5380   -0.2730 hn        1 O22      0.312000
     25 H3          4.4250    1.9470   -1.4460 ha        1 O22      0.146500
     26 H4          2.1560    2.8770   -1.3250 ha        1 O22      0.146500
     27 H5          3.3320   -1.1700    1.3500 ha        1 O22      0.146500
     28 H6          1.0400   -0.2390    1.5150 ha        1 O22      0.146500
     29 H7          0.1100    2.9380   -0.1040 hn        1 O22      0.430800
     30 H8         -2.2160    3.1610    0.1970 ha        1 O22      0.146000
     31 H9         -4.6520    3.0920    0.2380 hn        1 O22      0.435300
     32 H10        -5.5420    1.6520    0.0870 hn        1 O22      0.435300
     33 H11        -0.5240   -2.4760   -1.1260 h1        1 O22      0.054700
     34 H12        -0.5270   -2.6080    0.7030 h1        1 O22      0.054700
     35 H13        -0.6260   -4.8830   -0.3840 hc        1 O22      0.051700
     36 H14        -2.1500   -4.5400    0.5500 hc        1 O22      0.051700
     37 H15        -2.1520   -4.4080   -1.2550 hc        1 O22      0.051700
@<TRIPOS>BOND
     1    1    2 2   
     2    2    3 1   
     3    2    4 1   
     4    3   23 1   
     5    3   24 1   
     6    4    5 ar  
     7    4    7 ar  
     8    5    6 ar  
     9    5   25 1   
    10    6    9 ar  
    11    6   26 1   
    12    7    8 ar  
    13    7   27 1   
    14    8    9 ar  
    15    8   28 1   
    16    9   10 1   
    17   10   11 1   
    18   10   29 1   
    19   11   12 ar  
    20   11   18 ar  
    21   12   13 ar  
    22   12   30 1   
    23   13   14 1   
    24   13   15 ar  
    25   14   31 1   
    26   14   32 1   
    27   15   16 1   
    28   15   19 ar  
    29   16   17 3   
    30   18   19 ar  
    31   19   20 1   
    32   20   21 1   
    33   21   22 1   
    34   21   33 1   
    35   21   34 1   
    36   22   35 1   
    37   22   36 1   
    38   22   37 1   
@<TRIPOS>SUBSTRUCTURE
     1 O22         1 TEMP              0 ****  ****    0 ROOT
