@<TRIPOS>MOLECULE
O23
   48    52     1     0     0
SMALL
bcc


@<TRIPOS>ATOM
      1 O           0.1010    1.2840    0.1480 o         1 O23     -0.430100
      2 C           1.2700    0.9310    0.0740 c         1 O23      0.587700
      3 N           1.9420    0.6480    1.4210 ny        1 O23     -0.646800
      4 C1          1.1310   -0.2460    2.2620 cx        1 O23     -0.000500
      5 C3          1.4240   -1.7300    2.3390 cx        1 O23     -0.102900
      6 C2          1.7120   -0.8570    3.5210 cx        1 O23     -0.102900
      7 C4          2.0940    0.7300   -1.1070 ca        1 O23     -0.243600
      8 C9          1.4220    0.4180   -2.3070 ca        1 O23     -0.048500
      9 C8          2.1380    0.2240   -3.4760 ca        1 O23     -0.150500
     10 C7          3.5440    0.3460   -3.4930 ca        1 O23      0.117200
     11 C6          4.2040    0.6910   -2.2930 ca        1 O23     -0.150500
     12 C5          3.4920    0.8780   -1.1190 ca        1 O23     -0.048500
     13 C10         4.2390    0.1640   -4.7300 cc        1 O23     -0.209300
     14 N2          5.5690   -0.2320   -4.9240 na        1 O23      0.115700
     15 C13         6.5660   -0.6730   -4.0800 cc        1 O23     -0.313600
     16 C14         7.7870   -1.0350   -4.6440 cd        1 O23      0.454200
     17 N3          8.0910   -1.0050   -5.9650 nd        1 O23     -0.746000
     18 C15         7.1190   -0.6060   -6.8350 cc        1 O23      0.747200
     19 C12         5.7960   -0.2110   -6.3240 cc        1 O23     -0.185600
     20 N1          4.6650    0.1930   -7.0080 nd        1 O23     -0.257600
     21 C11         3.7200    0.4100   -6.0550 cd        1 O23      0.068600
     22 N4          7.3200   -0.5640   -8.1840 nu        1 O23     -0.836900
     23 C16         8.5860   -0.9170   -8.7900 c3        1 O23      0.303100
     24 C17         8.5430   -0.8210  -10.2680 cc        1 O23     -0.183400
     25 S           8.8030   -2.1290  -11.2820 ss        1 O23      0.070200
     26 C20         8.6390   -1.2290  -12.6720 cc        1 O23     -0.160100
     27 C19         8.3750    0.0970  -12.3980 cd        1 O23     -0.156000
     28 C18         8.3210    0.3380  -10.9920 cd        1 O23     -0.135000
     29 H1          2.0590    1.5370    1.9210 hn        1 O23      0.453300
     30 H2          0.0680    0.0970    2.2640 hx        1 O23      0.159700
     31 H3          2.2710   -2.1600    1.7700 hc        1 O23      0.109200
     32 H4          0.5570   -2.4190    2.3590 hc        1 O23      0.109200
     33 H5          2.7640   -0.6610    3.8010 hc        1 O23      0.109200
     34 H6          1.0550   -0.9020    4.4120 hc        1 O23      0.109200
     35 H7          0.3220    0.3280   -2.3070 ha        1 O23      0.144500
     36 H8          1.6050   -0.0330   -4.4070 ha        1 O23      0.165500
     37 H9          5.2930    0.8560   -2.2930 ha        1 O23      0.165500
     38 H10         4.0450    1.1880   -0.2190 ha        1 O23      0.144500
     39 H11         6.3490   -0.7460   -3.0070 h4        1 O23      0.169000
     40 H12         8.6110   -1.3830   -3.9920 h4        1 O23      0.046100
     41 H13         2.7120    0.7500   -6.3020 h4        1 O23      0.192000
     42 H14         6.5830   -0.2470   -8.7750 hn        1 O23      0.473800
     43 H15         8.8620   -1.9670   -8.4760 h1        1 O23      0.070700
     44 H16         9.3870   -0.2230   -8.3920 h1        1 O23      0.070700
     45 H17         8.7370   -1.6580  -13.6690 h4        1 O23      0.181000
     46 H18         8.2280    0.8790  -13.1470 ha        1 O23      0.162000
     47 H19         8.1340    1.3240  -10.5590 ha        1 O23      0.156000
     48 HN3         2.8650    0.2320    1.2620 hn        1 O23      0.453300
@<TRIPOS>BOND
     1    1    2 2   
     2    2    3 1   
     3    2    7 1   
     4    3    4 1   
     5    3   29 1   
     6    3   48 1   
     7    4    5 1   
     8    4    6 1   
     9    4   30 1   
    10    5    6 1   
    11    5   31 1   
    12    5   32 1   
    13    6   33 1   
    14    6   34 1   
    15    7    8 ar  
    16    7   12 ar  
    17    8    9 ar  
    18    8   35 1   
    19    9   10 ar  
    20    9   36 1   
    21   10   11 ar  
    22   10   13 1   
    23   11   12 ar  
    24   11   37 1   
    25   12   38 1   
    26   13   14 1   
    27   13   21 2   
    28   14   15 1   
    29   14   19 1   
    30   15   16 2   
    31   15   39 1   
    32   16   17 1   
    33   16   40 1   
    34   17   18 2   
    35   18   19 1   
    36   18   22 1   
    37   19   20 2   
    38   20   21 1   
    39   21   41 1   
    40   22   23 1   
    41   22   42 1   
    42   23   24 1   
    43   23   43 1   
    44   23   44 1   
    45   24   25 1   
    46   24   28 2   
    47   25   26 1   
    48   26   27 2   
    49   26   45 1   
    50   27   28 1   
    51   27   46 1   
    52   28   47 1   
@<TRIPOS>SUBSTRUCTURE
     1 O23         1 TEMP              0 ****  ****    0 ROOT
