@<TRIPOS>MOLECULE
O23
   48    52     1     0     0
SMALL
bcc


@<TRIPOS>ATOM
      1 O           0.1210    1.3160    0.1590 o         1 O23     -0.430100
      2 C           1.2850    0.9490    0.0810 c         1 O23      0.587700
      3 N           1.9540    0.6500    1.4270 n4        1 O23     -0.646800
      4 C1          1.1330   -0.2400    2.2620 cx        1 O23     -0.000500
      5 C3          1.4110   -1.7280    2.3300 cx        1 O23     -0.102900
      6 C2          1.7070   -0.8660    3.5170 cx        1 O23     -0.102900
      7 C4          2.1060    0.7440   -1.1000 ca        1 O23     -0.243600
      8 C9          1.4300    0.4480   -2.3020 ca        1 O23     -0.048500
      9 C8          2.1430    0.2510   -3.4730 ca        1 O23     -0.150500
     10 C7          3.5500    0.3570   -3.4890 ca        1 O23      0.117200
     11 C6          4.2140    0.6860   -2.2880 ca        1 O23     -0.150500
     12 C5          3.5060    0.8750   -1.1130 ca        1 O23     -0.048500
     13 C10         4.2430    0.1730   -4.7280 cc        1 O23     -0.209300
     14 N2          5.5670   -0.2380   -4.9250 na        1 O23      0.115700
     15 C13         6.5590   -0.6970   -4.0830 cc        1 O23     -0.313600
     16 C14         7.7760   -1.0700   -4.6500 cd        1 O23      0.454200
     17 N3          8.0800   -1.0360   -5.9710 nd        1 O23     -0.746000
     18 C15         7.1130   -0.6200   -6.8380 cc        1 O23      0.747200
     19 C12         5.7950   -0.2110   -6.3240 cc        1 O23     -0.185600
     20 N1          4.6680    0.2100   -7.0050 nd        1 O23     -0.257600
     21 C11         3.7270    0.4330   -6.0510 cd        1 O23      0.068600
     22 N4          7.3140   -0.5720   -8.1870 nh        1 O23     -0.836900
     23 C16         8.5760   -0.9360   -8.7960 c3        1 O23      0.303100
     24 C17         8.5340   -0.8300  -10.2720 cc        1 O23     -0.183400
     25 S           8.7790   -2.1350  -11.2950 ss        1 O23      0.070200
     26 C20         8.6260   -1.2240  -12.6790 cc        1 O23     -0.160100
     27 C19         8.3770    0.1040  -12.3960 cd        1 O23     -0.156000
     28 C18         8.3250    0.3360  -10.9890 cd        1 O23     -0.135000
     29 H1          2.8730    0.2250    1.2660 hn        1 O23      0.453300
     30 H2          0.0740    0.1140    2.2660 hx        1 O23      0.159700
     31 H3          2.2520   -2.1640    1.7590 hc        1 O23      0.109200
     32 H4          0.5350   -2.4070    2.3450 hc        1 O23      0.109200
     33 H5          2.7610   -0.6830    3.7990 hc        1 O23      0.109200
     34 H6          1.0500   -0.9090    4.4090 hc        1 O23      0.109200
     35 H7          0.3290    0.3710   -2.3020 ha        1 O23      0.144500
     36 H8          1.6070    0.0070   -4.4050 ha        1 O23      0.165500
     37 H9          5.3060    0.8380   -2.2880 ha        1 O23      0.165500
     38 H10         4.0630    1.1740   -0.2110 ha        1 O23      0.144500
     39 H11         6.3420   -0.7730   -3.0110 h4        1 O23      0.169000
     40 H12         8.5960   -1.4320   -4.0000 h4        1 O23      0.046100
     41 H13         2.7230    0.7870   -6.2960 h4        1 O23      0.192000
     42 H14         6.5800   -0.2420   -8.7760 hn        1 O23      0.473800
     43 H15         9.3850   -0.2540   -8.3930 h1        1 O23      0.070700
     44 H16         8.8390   -1.9920   -8.4880 h1        1 O23      0.070700
     45 H17         8.7190   -1.6470  -13.6790 h4        1 O23      0.181000
     46 H18         8.2390    0.8920  -13.1400 ha        1 O23      0.162000
     47 H19         8.1500    1.3210  -10.5500 ha        1 O23      0.156000
     48 HN3         2.0810    1.5340    1.9330 hn        1 O23      0.453300
@<TRIPOS>BOND
     1    1    2 2   
     2    2    3 1   
     3    2    7 1   
     4    3    4 1   
     5    3   29 1   
     6    3   48 1   
     7    4    5 1   
     8    4    6 1   
     9    4   30 1   
    10    5    6 1   
    11    5   31 1   
    12    5   32 1   
    13    6   33 1   
    14    6   34 1   
    15    7    8 ar  
    16    7   12 ar  
    17    8    9 ar  
    18    8   35 1   
    19    9   10 ar  
    20    9   36 1   
    21   10   11 ar  
    22   10   13 1   
    23   11   12 ar  
    24   11   37 1   
    25   12   38 1   
    26   13   14 1   
    27   13   21 2   
    28   14   15 1   
    29   14   19 1   
    30   15   16 2   
    31   15   39 1   
    32   16   17 1   
    33   16   40 1   
    34   17   18 2   
    35   18   19 1   
    36   18   22 1   
    37   19   20 2   
    38   20   21 1   
    39   21   41 1   
    40   22   23 1   
    41   22   42 1   
    42   23   24 1   
    43   23   43 1   
    44   23   44 1   
    45   24   25 1   
    46   24   28 2   
    47   25   26 1   
    48   26   27 2   
    49   26   45 1   
    50   27   28 1   
    51   27   46 1   
    52   28   47 1   
@<TRIPOS>SUBSTRUCTURE
     1 O23         1 TEMP              0 ****  ****    0 ROOT
