@<TRIPOS>MOLECULE
O25
   54    56     1     0     0
SMALL
bcc


@<TRIPOS>ATOM
      1 C1          0.3520    0.6250   -0.3920 cc        1 O25     -0.287600
      2 C2         -0.5710    0.0030   -1.3590 c3        1 O25      0.191100
      3 N5         -1.7400    0.8580   -1.7310 n4        1 O25     -0.774000
      4 C10        -2.5970    0.1940   -2.7760 c3        1 O25      0.113800
      5 C13        -3.7970    1.0370   -3.1460 c3        1 O25     -0.145100
      6 C14         1.6680    1.0560   -0.6460 cd        1 O25     -0.023300
      7 N16         2.2150    1.4210    0.5930 na        1 O25      0.068400
      8 C17         3.5990    1.7760    0.8140 c3        1 O25     -0.006700
      9 C20         3.8010    2.8730    1.8590 c         1 O25      0.527100
     10 N21         3.4130    2.5110    3.2890 n4        1 O25     -0.494200
     11 C23         4.1670    3.2010    4.3060 cc        1 O25     -0.182500
     12 C24         5.3270    2.6800    4.9710 cd        1 O25     -0.203600
     13 C25         5.8260    1.3530    4.6850 c         1 O25      0.602700
     14 N26         6.8990    0.7660    5.5530 n4        1 O25     -0.741400
     15 O29         5.4410    0.6050    3.7830 o         1 O25     -0.496100
     16 C30         5.8380    3.6250    5.9010 cd        1 O25     -0.016300
     17 C31         7.0270    3.4900    6.7730 c3        1 O25     -0.048100
     18 C34         7.4240    4.7990    7.4430 c3        1 O25     -0.083400
     19 C37         6.2230    5.5650    7.9470 c3        1 O25     -0.082400
     20 C40         5.3090    5.9460    6.7970 c3        1 O25     -0.041100
     21 C43         5.0390    4.7860    5.9190 cc        1 O25     -0.104400
     22 S44         3.7950    4.7140    4.8710 ss        1 O25      0.474200
     23 O45         4.2690    3.9740    1.6510 o         1 O25     -0.344100
     24 N46         1.3390    1.2390    1.6020 nd        1 O25     -0.529800
     25 C47         0.1950    0.7690    1.0470 cc        1 O25      0.299600
     26 C48        -1.0360    0.4410    1.8970 c3        1 O25      0.630600
     27 F49        -2.1720    0.2990    1.1390 f         1 O25     -0.204300
     28 F50        -0.9070   -0.7240    2.5970 f         1 O25     -0.204300
     29 F51        -1.3350    1.4080    2.8170 f         1 O25     -0.204300
     30 H2         -0.0160   -0.2530   -2.3120 hx        1 O25      0.130200
     31 H2A        -0.9850   -0.9570   -0.9200 hx        1 O25      0.130200
     32 HN5        -2.3170    1.0360   -0.8950 hn        1 O25      0.456300
     33 H10        -2.9310   -0.8010   -2.3600 hx        1 O25      0.112700
     34 H10A       -1.9510    0.0120   -3.6830 hx        1 O25      0.112700
     35 H13        -3.5000    2.0210   -3.5850 hc        1 O25      0.092367
     36 H13A       -4.4720    1.2130   -2.2720 hc        1 O25      0.092367
     37 H13B       -4.3830    0.4760   -3.9230 hc        1 O25      0.092367
     38 H14         2.2350    1.1210   -1.5820 h4        1 O25      0.226000
     39 H17         4.1920    0.8640    1.1340 h1        1 O25      0.144200
     40 H17A        4.0280    2.1700   -0.1610 h1        1 O25      0.144200
     41 HN21        3.5260    1.4900    3.4070 hn        1 O25      0.486800
     42 HN26        7.7960    1.2410    5.3760 hn        1 O25      0.491133
     43 HN2A        7.0100   -0.2390    5.3380 hn        1 O25      0.491133
     44 H31         6.8030    2.7360    7.5800 hc        1 O25      0.058700
     45 H31A        7.9140    3.1420    6.1770 hc        1 O25      0.058700
     46 H34         8.1120    4.5690    8.3010 hc        1 O25      0.087200
     47 H34A        7.9980    5.4320    6.7150 hc        1 O25      0.087200
     48 H37         5.6610    4.9550    8.7010 hc        1 O25      0.088200
     49 H37A        6.5660    6.5030    8.4640 hc        1 O25      0.088200
     50 H40         5.8000    6.7600    6.1880 hc        1 O25      0.101700
     51 H40A        4.3490    6.3690    7.2050 hc        1 O25      0.101700
     52 H52        -1.4180    1.7630   -2.0900 hn        1 O25      0.456300
     53 H212        2.4090    2.7310    3.4130 hn        1 O25      0.486800
     54 H263        6.6590    0.8780    6.5480 hn        1 O25      0.491133
@<TRIPOS>BOND
     1    1    2 1   
     2    1    6 2   
     3    1   25 1   
     4    2    3 1   
     5    2   30 1   
     6    2   31 1   
     7    3    4 1   
     8    3   32 1   
     9    3   52 1   
    10    4    5 1   
    11    4   33 1   
    12    4   34 1   
    13    5   35 1   
    14    5   36 1   
    15    5   37 1   
    16    6    7 1   
    17    6   38 1   
    18    7    8 1   
    19    7   24 1   
    20    8    9 1   
    21    8   39 1   
    22    8   40 1   
    23    9   10 1   
    24    9   23 2   
    25   10   11 1   
    26   10   41 1   
    27   10   53 1   
    28   11   12 2   
    29   11   22 1   
    30   12   13 1   
    31   12   16 1   
    32   13   14 1   
    33   13   15 2   
    34   14   42 1   
    35   14   43 1   
    36   14   54 1   
    37   16   17 1   
    38   16   21 2   
    39   17   18 1   
    40   17   44 1   
    41   17   45 1   
    42   18   19 1   
    43   18   46 1   
    44   18   47 1   
    45   19   20 1   
    46   19   48 1   
    47   19   49 1   
    48   20   21 1   
    49   20   50 1   
    50   20   51 1   
    51   21   22 1   
    52   24   25 2   
    53   25   26 1   
    54   26   27 1   
    55   26   28 1   
    56   26   29 1   
@<TRIPOS>SUBSTRUCTURE
     1 O25         1 TEMP              0 ****  ****    0 ROOT
