@<TRIPOS>MOLECULE
O25
   53    55     1     0     0
SMALL
bcc


@<TRIPOS>ATOM
      1 C1          0.1800    0.3280   -0.4440 cc        1 O25     -0.319600
      2 C2         -0.8480    0.2080   -1.4860 c3        1 O25      0.207100
      3 N5         -1.8560    1.3180   -1.4330 n4        1 O25     -0.774000
      4 C10        -2.8440    1.2240   -2.5550 c3        1 O25      0.109800
      5 C13        -3.8830    2.3230   -2.5000 c3        1 O25     -0.140100
      6 C14         1.5380    0.6560   -0.6270 cd        1 O25     -0.050300
      7 N16         2.1520    0.5070    0.6200 na        1 O25      0.112400
      8 C17         3.5590    0.7420    0.8930 c3        1 O25     -0.009700
      9 C20         3.7680    1.9020    1.8790 c         1 O25      0.646100
     10 N21         4.6270    1.6750    2.9530 n         1 O25     -0.426100
     11 C23         4.9540    2.6500    3.8750 cc        1 O25      0.094500
     12 C24         5.8230    2.4550    4.9970 cd        1 O25     -0.305600
     13 C25         6.3820    1.1730    5.2790 c         1 O25      0.604700
     14 N26         7.1020    0.9820    6.5990 n4        1 O25     -0.750400
     15 O29         6.3550    0.1360    4.6110 o         1 O25     -0.504100
     16 C30         5.9890    3.6870    5.7300 cd        1 O25     -0.050300
     17 C31         6.8500    3.9140    6.9130 c3        1 O25     -0.029100
     18 C34         7.0060    5.3910    7.2470 c3        1 O25     -0.077400
     19 C37         5.6980    6.1410    7.1300 c3        1 O25     -0.077400
     20 C40         5.1700    6.0790    5.7090 c3        1 O25     -0.018100
     21 C43         5.2300    4.7010    5.1790 cc        1 O25     -0.140400
     22 S44         4.3830    4.2220    3.8290 ss        1 O25      0.288200
     23 O45         3.2280    3.0070    1.7100 o         1 O25     -0.541100
     24 N46         1.2830    0.1340    1.5730 nd        1 O25     -0.420800
     25 C47         0.0720    0.0070    0.9680 cc        1 O25      0.251600
     26 C48        -1.1670   -0.4440    1.7290 c3        1 O25      0.632600
     27 F49        -2.3340   -0.1480    1.0570 f         1 O25     -0.215967
     28 F50        -1.2180   -1.7930    1.9440 f         1 O25     -0.215967
     29 F51        -1.3220    0.1400    2.9550 f         1 O25     -0.215967
     30 H2         -0.3750    0.2200   -2.5120 hx        1 O25      0.118700
     31 H2A        -1.4170   -0.7630   -1.3600 hx        1 O25      0.118700
     32 HN5        -2.3600    1.2700   -0.5350 hn        1 O25      0.456300
     33 H10        -3.3420    0.2130   -2.4860 hx        1 O25      0.107700
     34 H10A       -2.2690    1.2770   -3.5240 hx        1 O25      0.107700
     35 H13        -4.4870    2.2790   -1.5600 hc        1 O25      0.085033
     36 H13A       -4.5810    2.1800   -3.3660 hc        1 O25      0.085033
     37 H13B       -3.4220    3.3370   -2.5910 hc        1 O25      0.085033
     38 H14         2.0890    0.9530   -1.5240 h4        1 O25      0.209000
     39 H17         4.0130   -0.2200    1.2700 h1        1 O25      0.116200
     40 H17A        4.0640    1.0350   -0.0740 h1        1 O25      0.116200
     41 HN21        5.0220    0.7620    3.0740 hn        1 O25      0.361500
     42 HN26        7.9950    1.4850    6.5830 hn        1 O25      0.470800
     43 HN2A        7.2840   -0.0200    6.7470 hn        1 O25      0.470800
     44 H31         6.4000    3.3960    7.8060 hc        1 O25      0.038700
     45 H31A        7.8810    3.5060    6.7330 hc        1 O25      0.038700
     46 H34         7.7610    5.8490    6.5560 hc        1 O25      0.068700
     47 H34A        7.4040    5.4850    8.2920 hc        1 O25      0.068700
     48 H37         4.9440    5.7070    7.8370 hc        1 O25      0.067700
     49 H37A        5.8530    7.2140    7.4190 hc        1 O25      0.067700
     50 H40         5.7870    6.7540    5.0510 hc        1 O25      0.075700
     51 H40A        4.1130    6.4610    5.6850 hc        1 O25      0.075700
     52 H52        -1.3770    2.2240   -1.4750 hn        1 O25      0.456300
     53 H263        6.5310    1.3470    7.3670 hn        1 O25      0.470800
@<TRIPOS>BOND
     1    1    2 1   
     2    1    6 2   
     3    1   25 1   
     4    2    3 1   
     5    2   30 1   
     6    2   31 1   
     7    3    4 1   
     8    3   32 1   
     9    3   52 1   
    10    4    5 1   
    11    4   33 1   
    12    4   34 1   
    13    5   35 1   
    14    5   36 1   
    15    5   37 1   
    16    6    7 1   
    17    6   38 1   
    18    7    8 1   
    19    7   24 1   
    20    8    9 1   
    21    8   39 1   
    22    8   40 1   
    23    9   10 1   
    24    9   23 2   
    25   10   11 1   
    26   10   41 1   
    27   11   12 2   
    28   11   22 1   
    29   12   13 1   
    30   12   16 1   
    31   13   14 1   
    32   13   15 2   
    33   14   42 1   
    34   14   43 1   
    35   14   53 1   
    36   16   17 1   
    37   16   21 2   
    38   17   18 1   
    39   17   44 1   
    40   17   45 1   
    41   18   19 1   
    42   18   46 1   
    43   18   47 1   
    44   19   20 1   
    45   19   48 1   
    46   19   49 1   
    47   20   21 1   
    48   20   50 1   
    49   20   51 1   
    50   21   22 1   
    51   24   25 2   
    52   25   26 1   
    53   26   27 1   
    54   26   28 1   
    55   26   29 1   
@<TRIPOS>SUBSTRUCTURE
     1 O25         1 TEMP              0 ****  ****    0 ROOT
