@<TRIPOS>MOLECULE
O25
   51    53     1     0     0
SMALL
bcc


@<TRIPOS>ATOM
      1 C1          3.5600    1.2190   -0.8450 cc        1 O25     -0.195600
      2 C2          4.9130    0.6450   -1.0110 c3        1 O25      0.236100
      3 N5          4.9100   -0.8060   -1.0760 n3        1 O25     -0.819200
      4 C10         6.2480   -1.3640   -1.1330 c3        1 O25      0.162800
      5 C13         6.2750   -2.8740   -0.9670 c3        1 O25     -0.098100
      6 C14         2.7550    1.7890   -1.8410 cd        1 O25     -0.114300
      7 N16         1.5860    2.2410   -1.2040 na        1 O25      0.093400
      8 C17         0.4740    2.8640   -1.8880 c3        1 O25     -0.015700
      9 C20        -0.7370    1.9320   -2.0660 c         1 O25      0.636100
     10 N21        -1.3930    1.5290   -0.9230 n         1 O25     -0.414100
     11 C23        -2.5230    0.7240   -0.9190 cc        1 O25      0.074500
     12 C24        -3.2330    0.3680    0.2430 cd        1 O25     -0.231600
     13 C25        -2.8460    0.8560    1.5790 c         1 O25      0.701700
     14 N26        -3.0390    0.0430    2.6670 n         1 O25     -0.664000
     15 O29        -2.3340    1.9890    1.7490 o         1 O25     -0.644100
     16 C30        -4.3520   -0.4660   -0.0670 cd        1 O25     -0.053300
     17 C31        -5.3290   -1.0080    0.9010 c3        1 O25     -0.018100
     18 C34        -6.5980   -1.4800    0.2100 c3        1 O25     -0.074400
     19 C37        -6.2850   -2.3160   -1.0130 c3        1 O25     -0.072400
     20 C40        -5.5150   -1.5140   -2.0490 c3        1 O25      0.002900
     21 C43        -4.4420   -0.7160   -1.4280 cc        1 O25     -0.167400
     22 S44        -3.2240    0.0240   -2.2920 ss        1 O25      0.130200
     23 O45        -1.0870    1.5880   -3.2110 o         1 O25     -0.584100
     24 N46         1.5910    1.9720    0.1060 nd        1 O25     -0.453800
     25 C47         2.7770    1.3510    0.3680 cc        1 O25      0.222600
     26 C48         3.1620    0.9090    1.7650 c3        1 O25      0.632600
     27 F49         4.2060    0.0160    1.8010 f         1 O25     -0.230633
     28 F50         3.5640    1.9350    2.5830 f         1 O25     -0.230633
     29 F51         2.1620    0.2810    2.4630 f         1 O25     -0.230633
     30 H2          5.3580    1.0240   -1.9770 h1        1 O25      0.044200
     31 H2A         5.5620    1.0330   -0.1660 h1        1 O25      0.044200
     32 HN5         4.3980   -1.1900   -0.3020 hn        1 O25      0.366800
     33 H10         6.6760   -1.0970   -2.1410 h1        1 O25      0.028200
     34 H10A        6.9310   -0.9080   -0.3530 h1        1 O25      0.028200
     35 H13         7.3270   -3.2310   -1.0740 hc        1 O25      0.040700
     36 H13A        5.8990   -3.1750    0.0410 hc        1 O25      0.040700
     37 H13B        5.6480   -3.3750   -1.7420 hc        1 O25      0.040700
     38 H14         2.9180    1.9040   -2.9130 h4        1 O25      0.194000
     39 H17         0.1490    3.7880   -1.3260 h1        1 O25      0.103200
     40 H17A        0.8220    3.1590   -2.9190 h1        1 O25      0.103200
     41 HN21       -1.1150    1.9030   -0.0310 hn        1 O25      0.374500
     42 HN26       -3.3550   -0.8860    2.5600 hn        1 O25      0.314500
     43 HN2A       -2.7330    0.3490    3.5570 hn        1 O25      0.314500
     44 H31        -4.8660   -1.8800    1.4410 hc        1 O25      0.051700
     45 H31A       -5.5920   -0.2300    1.6660 hc        1 O25      0.051700
     46 H34        -7.2080   -2.0810    0.9330 hc        1 O25      0.045700
     47 H34A       -7.2100   -0.5910   -0.0930 hc        1 O25      0.045700
     48 H37        -5.6820   -3.2110   -0.7080 hc        1 O25      0.044200
     49 H37A       -7.2380   -2.6890   -1.4700 hc        1 O25      0.044200
     50 H40        -5.0870   -2.2140   -2.8170 hc        1 O25      0.050200
     51 H40A       -6.2250   -0.8240   -2.5840 hc        1 O25      0.050200
@<TRIPOS>BOND
     1    1    2 1   
     2    1    6 2   
     3    1   25 1   
     4    2    3 1   
     5    2   30 1   
     6    2   31 1   
     7    3    4 1   
     8    3   32 1   
     9    4    5 1   
    10    4   33 1   
    11    4   34 1   
    12    5   35 1   
    13    5   36 1   
    14    5   37 1   
    15    6    7 1   
    16    6   38 1   
    17    7    8 1   
    18    7   24 1   
    19    8    9 1   
    20    8   39 1   
    21    8   40 1   
    22    9   10 1   
    23    9   23 2   
    24   10   11 1   
    25   10   41 1   
    26   11   12 2   
    27   11   22 1   
    28   12   13 1   
    29   12   16 1   
    30   13   14 1   
    31   13   15 2   
    32   14   42 1   
    33   14   43 1   
    34   16   17 1   
    35   16   21 2   
    36   17   18 1   
    37   17   44 1   
    38   17   45 1   
    39   18   19 1   
    40   18   46 1   
    41   18   47 1   
    42   19   20 1   
    43   19   48 1   
    44   19   49 1   
    45   20   21 1   
    46   20   50 1   
    47   20   51 1   
    48   21   22 1   
    49   24   25 2   
    50   25   26 1   
    51   26   27 1   
    52   26   28 1   
    53   26   29 1   
@<TRIPOS>SUBSTRUCTURE
     1 O25         1 TEMP              0 ****  ****    0 ROOT
