@<TRIPOS>MOLECULE
O25
   51    47     1     0     0
SMALL
bcc


@<TRIPOS>ATOM
      1 C1         -2.8620    2.8110   -0.8190 c1        1 O25     -0.114000
      2 C2         -4.0420    3.7930   -0.9660 c2        1 O25     -0.010000
      3 N5         -3.5770    5.1330   -0.7640 n3        1 O25     -0.299000
      4 C10        -4.1990    6.0250   -1.7560 c3        1 O25     -0.073000
      5 C13        -4.1960    7.4370   -1.2290 c3        1 O25     -0.216000
      6 C14        -2.2640    2.1300   -1.8230 c1        1 O25     -0.147000
      7 N16        -1.3530    1.2850   -1.2680 n2        1 O25     -0.077500
      8 C17        -0.5030    0.3590   -1.9840 c2        1 O25     -0.029000
      9 C20         0.0250   -0.7260   -0.9970 c2        1 O25      0.284000
     10 N21         1.2530   -1.4630   -1.3100 n         1 O25     -0.276000
     11 C23         1.7070   -2.4930   -0.4380 c2        1 O25     -0.221000
     12 C24         3.1010   -3.0790   -0.4220 c1        1 O25     -0.195000
     13 C25         4.2270   -2.8150   -1.4940 c1        1 O25      0.362000
     14 N26         3.9490   -2.0120   -2.6310 n3        1 O25     -0.429000
     15 O29         5.3090   -3.3430   -1.3790 o         1 O25     -0.369000
     16 C30         3.2350   -4.0040    0.8570 c1        1 O25     -0.027000
     17 C31         4.3870   -4.9140    1.4410 c2        1 O25     -0.113000
     18 C34         4.0440   -5.7520    2.5560 c3        1 O25     -0.152000
     19 C37         3.1020   -5.1990    3.5400 c3        1 O25     -0.151000
     20 C40         1.8480   -4.6850    3.0260 c3        1 O25     -0.082000
     21 C43         1.9100   -3.9710    1.6140 c2        1 O25     -0.423000
     22 S44         0.9350   -3.0370    0.8320 ss        1 O25      0.654000
     23 O45        -0.6150   -0.9960    0.0160 o         1 O25     -0.335000
     24 N46        -1.3960    1.4530    0.1160 n2        1 O25     -0.077500
     25 C47        -2.3090    2.3760    0.3890 c1        1 O25     -0.147000
     26 C48        -2.6980    2.9000    1.8000 c2        1 O25      0.512000
     27 F49        -2.1550    2.1070    2.7510 f         1 O25     -0.159000
     28 F50        -2.2380    4.1800    1.9530 f         1 O25     -0.159000
     29 F51        -4.0020    2.8900    1.9160 f         1 O25     -0.159000
     30 H2         -4.7390    3.5760   -0.2850 h4        1 O25      0.086500
     31 H2A        -4.4330    3.7110   -1.8810 h4        1 O25      0.086500
     32 HN5        -3.7970    5.4020    0.0560 hn        1 O25      0.158000
     33 H10        -5.1520    5.7290   -1.9240 h1        1 O25      0.068500
     34 H10A       -3.6770    5.9850   -2.6170 h1        1 O25      0.068500
     35 H13        -4.8460    7.5140   -0.4960 hc        1 O25      0.082000
     36 H13A       -3.2890    7.6590   -0.8900 hc        1 O25      0.082000
     37 H13B       -4.4540    8.0930   -1.9900 hc        1 O25      0.082000
     38 H14        -2.5140    2.1760   -2.7940 DU        1 O25      0.194000
     39 H17         0.2500    0.8420   -2.3720 ha        1 O25      0.140500
     40 H17A       -1.0120   -0.0690   -2.6890 ha        1 O25      0.140500
     41 HN21        1.6780   -1.3280   -2.1210 hn        1 O25      0.266000
     42 HN26        4.0130   -2.3560   -3.4320 hn        1 O25      0.227000
     43 HN2A        3.7880   -1.1000   -2.5280 hn        1 O25      0.227000
     44 H31         5.1150   -4.3360    1.7170 ha        1 O25      0.107500
     45 H31A        4.7090   -5.4800    0.7330 ha        1 O25      0.107500
     46 H34         3.6680   -6.5510    2.2150 hc        1 O25      0.084500
     47 H34A        4.8700   -5.9830    3.0270 hc        1 O25      0.084500
     48 H37         2.8720   -5.9440    4.1700 hc        1 O25      0.082000
     49 H37A        3.5550   -4.4490    3.9750 hc        1 O25      0.082000
     50 H40         1.5320   -4.0200    3.6670 hc        1 O25      0.088500
     51 H40A        1.2370   -5.4600    2.9320 hc        1 O25      0.088500
@<TRIPOS>BOND
     1    1    6 1   
     2    1   25 1   
     3    2    3 1   
     4    2   30 1   
     5    2   31 1   
     6    3    4 1   
     7    3   32 1   
     8    4    5 1   
     9    4   33 1   
    10    4   34 1   
    11    5   35 1   
    12    5   36 1   
    13    5   37 1   
    14    6    7 1   
    15    7   24 1   
    16    8    9 1   
    17    8   39 1   
    18    8   40 1   
    19    9   10 1   
    20    9   23 1   
    21   10   11 1   
    22   10   41 1   
    23   11   12 1   
    24   11   22 1   
    25   12   16 1   
    26   13   14 1   
    27   13   15 1   
    28   14   42 1   
    29   14   43 1   
    30   16   21 1   
    31   17   18 1   
    32   17   44 1   
    33   17   45 1   
    34   18   19 1   
    35   18   46 1   
    36   18   47 1   
    37   19   20 1   
    38   19   48 1   
    39   19   49 1   
    40   20   21 1   
    41   20   50 1   
    42   20   51 1   
    43   21   22 1   
    44   24   25 1   
    45   26   27 1   
    46   26   28 1   
    47   26   29 1   
@<TRIPOS>SUBSTRUCTURE
     1 O25         1 TEMP              0 ****  ****    0 ROOT
