@<TRIPOS>MOLECULE
O25
   53    55     1     0     0
SMALL
bcc


@<TRIPOS>ATOM
      1 C1          0.1950    0.3370   -0.4610 cc        1 O25     -0.319600
      2 C2         -0.8340    0.2160   -1.5010 c3        1 O25      0.207100
      3 N5         -1.8540    1.3150   -1.4350 ny        1 O25     -0.774000
      4 C10        -2.8440    1.2210   -2.5550 c3        1 O25      0.109800
      5 C13        -3.8950    2.3080   -2.4870 c3        1 O25     -0.140100
      6 C14         1.5490    0.6820   -0.6430 cd        1 O25     -0.050300
      7 N16         2.1670    0.5270    0.6010 na        1 O25      0.112400
      8 C17         3.5720    0.7740    0.8720 c3        1 O25     -0.009700
      9 C20         3.7720    1.9250    1.8710 c         1 O25      0.646100
     10 N21         4.6320    1.6920    2.9430 ns        1 O25     -0.426100
     11 C23         4.9520    2.6600    3.8750 cc        1 O25      0.093500
     12 C24         5.8210    2.4610    4.9950 cd        1 O25     -0.305600
     13 C25         6.3900    1.1790    5.2640 c         1 O25      0.604700
     14 N26         7.1100    0.9800    6.5830 nz        1 O25     -0.750400
     15 O29         6.3700    0.1490    4.5870 o         1 O25     -0.504100
     16 C30         5.9780    3.6860    5.7410 cd        1 O25     -0.050300
     17 C31         6.8370    3.9070    6.9280 c3        1 O25     -0.029100
     18 C34         6.9820    5.3810    7.2770 c3        1 O25     -0.077400
     19 C37         5.6700    6.1240    7.1660 c3        1 O25     -0.077400
     20 C40         5.1430    6.0730    5.7440 c3        1 O25     -0.018100
     21 C43         5.2130    4.7000    5.2000 cc        1 O25     -0.140400
     22 S44         4.3700    4.2290    3.8440 ss        1 O25      0.288200
     23 O45         3.2240    3.0270    1.7130 o         1 O25     -0.541100
     24 N46         1.3050    0.1350    1.5520 nd        1 O25     -0.420800
     25 C47         0.0940    0.0010    0.9490 cc        1 O25      0.251600
     26 C48        -1.1380   -0.4710    1.7080 c3        1 O25      0.632600
     27 F49        -2.3100   -0.1820    1.0420 f         1 O25     -0.215967
     28 F50        -1.1740   -1.8220    1.9100 f         1 O25     -0.215967
     29 F51        -1.2970    0.0990    2.9400 f         1 O25     -0.215967
     30 H2         -0.3640    0.2440   -2.5280 hx        1 O25      0.118700
     31 H2A        -1.3920   -0.7620   -1.3830 hx        1 O25      0.118700
     32 HN5        -2.3560    1.2530   -0.5350 hn        1 O25      0.456300
     33 H10        -3.3310    0.2050   -2.4950 hx        1 O25      0.107700
     34 H10A       -2.2720    1.2900   -3.5250 hx        1 O25      0.107700
     35 H13        -3.4450    3.3280   -2.5680 hc        1 O25      0.085033
     36 H13A       -4.4960    2.2480   -1.5460 hc        1 O25      0.085033
     37 H13B       -4.5930    2.1660   -3.3530 hc        1 O25      0.085033
     38 H14         2.0950    0.9940   -1.5380 h4        1 O25      0.209000
     39 H17         4.0720    1.0830   -0.0930 h1        1 O25      0.116200
     40 H17A        4.0380   -0.1880    1.2370 h1        1 O25      0.116200
     41 HN21        5.0340    0.7820    3.0550 hn        1 O25      0.361500
     42 HN26        8.0000    1.4890    6.5730 hn        1 O25      0.470800
     43 HN2A        7.2990   -0.0220    6.7210 hn        1 O25      0.470800
     44 H31         6.3900    3.3770    7.8140 hc        1 O25      0.038700
     45 H31A        7.8720    3.5080    6.7440 hc        1 O25      0.038700
     46 H34         7.7350    5.8520    6.5900 hc        1 O25      0.068700
     47 H34A        7.3790    5.4680    8.3220 hc        1 O25      0.068700
     48 H37         5.8170    7.1950    7.4660 hc        1 O25      0.067700
     49 H37A        4.9180    5.6770    7.8670 hc        1 O25      0.067700
     50 H40         5.7550    6.7590    5.0940 hc        1 O25      0.075700
     51 H40A        4.0830    6.4470    5.7230 hc        1 O25      0.075700
     52 H52        -1.3860    2.2260   -1.4690 hn        1 O25      0.456300
     53 H263        6.5370    1.3340    7.3540 hn        1 O25      0.470800
@<TRIPOS>BOND
     1    1    2 1   
     2    1    6 2   
     3    1   25 1   
     4    2    3 1   
     5    2   30 1   
     6    2   31 1   
     7    3    4 1   
     8    3   32 1   
     9    3   52 1   
    10    4    5 1   
    11    4   33 1   
    12    4   34 1   
    13    5   35 1   
    14    5   36 1   
    15    5   37 1   
    16    6    7 1   
    17    6   38 1   
    18    7    8 1   
    19    7   24 1   
    20    8    9 1   
    21    8   39 1   
    22    8   40 1   
    23    9   10 1   
    24    9   23 2   
    25   10   11 1   
    26   10   41 1   
    27   11   12 2   
    28   11   22 1   
    29   12   13 1   
    30   12   16 1   
    31   13   14 1   
    32   13   15 2   
    33   14   42 1   
    34   14   43 1   
    35   14   53 1   
    36   16   17 1   
    37   16   21 2   
    38   17   18 1   
    39   17   44 1   
    40   17   45 1   
    41   18   19 1   
    42   18   46 1   
    43   18   47 1   
    44   19   20 1   
    45   19   48 1   
    46   19   49 1   
    47   20   21 1   
    48   20   50 1   
    49   20   51 1   
    50   21   22 1   
    51   24   25 2   
    52   25   26 1   
    53   26   27 1   
    54   26   28 1   
    55   26   29 1   
@<TRIPOS>SUBSTRUCTURE
     1 O25         1 TEMP              0 ****  ****    0 ROOT
