@<TRIPOS>MOLECULE
O26
   59    61     1     0     0
SMALL
bcc


@<TRIPOS>ATOM
      1 C1         -0.2470   -0.3350   -0.2380 cc        1 O26     -0.372600
      2 C2          1.1390    0.0650    0.0020 cc        1 O26      0.385600
      3 C3          2.2050    0.4580   -0.9850 c3        1 O26     -0.092300
      4 C4          2.9280   -0.8010   -1.4550 c3        1 O26     -0.088100
      5 C5          1.6170    1.1950   -2.1810 c3        1 O26     -0.088100
      6 C6          3.2290    1.3850   -0.3260 c3        1 O26     -0.088100
      7 N7          1.3860    0.0070    1.3400 nd        1 O26     -0.489800
      8 N8          0.2450   -0.3760    1.9510 na        1 O26      0.105400
      9 C9          0.1400   -0.5340    3.3850 c3        1 O26     -0.002700
     10 C10         0.9280   -1.7460    3.9050 c         1 O26      0.645100
     11 O11         0.9420   -2.8370    3.3160 o         1 O26     -0.545100
     12 N12         1.6020   -1.5820    5.1180 ns        1 O26     -0.431100
     13 C13         2.2870   -2.6040    5.7410 cc        1 O26      0.102500
     14 S14         2.4140   -4.1600    5.1350 ss        1 O26      0.279200
     15 C15         3.3090   -4.7210    6.4220 cc        1 O26     -0.141400
     16 C16         3.7740   -6.1200    6.5170 c3        1 O26     -0.018100
     17 C17         4.8750   -6.2600    7.5520 c3        1 O26     -0.077400
     18 C18         4.4990   -5.5490    8.8320 c3        1 O26     -0.077400
     19 C19         4.2980   -4.0550    8.6200 c3        1 O26     -0.029100
     20 C20         3.5530   -3.7520    7.3760 cd        1 O26     -0.051300
     21 C21         2.9850   -2.4840    6.9870 cd        1 O26     -0.309600
     22 C22         3.0670   -1.2300    7.6620 c         1 O26      0.603700
     23 O23         2.5080   -0.1590    7.4110 o         1 O26     -0.505100
     24 N24         3.9900   -1.1210    8.8600 nz        1 O26     -0.750400
     25 C25        -0.7760   -0.6160    1.0400 cd        1 O26     -0.060300
     26 C26        -1.0320   -0.3650   -1.4730 c3        1 O26      0.215100
     27 N27        -0.6940   -1.5640   -2.3220 ny        1 O26     -0.768000
     28 C28        -1.4940   -1.6090   -3.5640 c3        1 O26      0.076100
     29 H4          3.7130   -0.5250   -2.2000 hc        1 O26      0.046922
     30 H4A         3.4190   -1.3130   -0.5930 hc        1 O26      0.046922
     31 H4B         2.2210   -1.5180   -1.9360 hc        1 O26      0.046922
     32 H5          1.1110    0.4910   -2.8840 hc        1 O26      0.046922
     33 H5A         2.4370    1.7000   -2.7510 hc        1 O26      0.046922
     34 H5B         0.8920    1.9760   -1.8490 hc        1 O26      0.046922
     35 H6          2.7240    2.2900    0.0870 hc        1 O26      0.046922
     36 H6A         3.7700    0.8620    0.4980 hc        1 O26      0.046922
     37 H6B         3.9820    1.7090   -1.0840 hc        1 O26      0.046922
     38 H9         -0.9440   -0.7100    3.6480 h1        1 O26      0.111200
     39 H9A         0.4870    0.4230    3.8750 h1        1 O26      0.111200
     40 HN12        1.5950   -0.6830    5.5590 hn        1 O26      0.360500
     41 H16         4.1500   -6.4760    5.5200 hc        1 O26      0.074700
     42 H16A        2.9070   -6.7790    6.8040 hc        1 O26      0.074700
     43 H17         5.8330   -5.8400    7.1490 hc        1 O26      0.067700
     44 H17A        5.0470   -7.3490    7.7630 hc        1 O26      0.067700
     45 H18         3.5540   -5.9950    9.2420 hc        1 O26      0.067700
     46 H18A        5.3030   -5.7000    9.6000 hc        1 O26      0.067700
     47 H19         5.3110   -3.5660    8.5750 hc        1 O26      0.038200
     48 H19A        3.7420   -3.6670    9.5160 hc        1 O26      0.038200
     49 HN24        3.5970   -1.6450    9.6490 hn        1 O26      0.469800
     50 HN2A        4.0860   -0.1330    9.1280 hn        1 O26      0.469800
     51 H25        -1.7770   -0.9330    1.3410 h4        1 O26      0.196000
     52 H26        -0.8480    0.5570   -2.1010 hx        1 O26      0.111700
     53 H26A       -2.1370   -0.4230   -1.2410 hx        1 O26      0.111700
     54 HN27       -0.8530   -2.4170   -1.7730 hn        1 O26      0.454800
     55 H28        -1.2080   -2.5200   -4.1590 hx        1 O26      0.110700
     56 H28A       -1.2930   -0.6870   -4.1740 hx        1 O26      0.110700
     57 H28B       -2.5870   -1.6560   -3.3100 hx        1 O26      0.110700
     58 H243        4.9100   -1.5100    8.6320 hn        1 O26      0.469800
     59 H272        0.3080   -1.5260   -2.5540 hn        1 O26      0.454800
@<TRIPOS>BOND
     1    1    2 1   
     2    1   25 2   
     3    1   26 1   
     4    2    3 1   
     5    2    7 2   
     6    3    4 1   
     7    3    5 1   
     8    3    6 1   
     9    4   29 1   
    10    4   30 1   
    11    4   31 1   
    12    5   32 1   
    13    5   33 1   
    14    5   34 1   
    15    6   35 1   
    16    6   36 1   
    17    6   37 1   
    18    7    8 1   
    19    8    9 1   
    20    8   25 1   
    21    9   10 1   
    22    9   38 1   
    23    9   39 1   
    24   10   11 2   
    25   10   12 1   
    26   12   13 1   
    27   12   40 1   
    28   13   14 1   
    29   13   21 2   
    30   14   15 1   
    31   15   16 1   
    32   15   20 2   
    33   16   17 1   
    34   16   41 1   
    35   16   42 1   
    36   17   18 1   
    37   17   43 1   
    38   17   44 1   
    39   18   19 1   
    40   18   45 1   
    41   18   46 1   
    42   19   20 1   
    43   19   47 1   
    44   19   48 1   
    45   20   21 1   
    46   21   22 1   
    47   22   23 2   
    48   22   24 1   
    49   24   49 1   
    50   24   50 1   
    51   24   58 1   
    52   25   51 1   
    53   26   27 1   
    54   26   52 1   
    55   26   53 1   
    56   27   28 1   
    57   27   54 1   
    58   27   59 1   
    59   28   55 1   
    60   28   56 1   
    61   28   57 1   
@<TRIPOS>SUBSTRUCTURE
     1 O26         1 TEMP              0 ****  ****    0 ROOT
