@<TRIPOS>MOLECULE
O26
   60    62     1     0     0
SMALL
bcc


@<TRIPOS>ATOM
      1 C1         -0.3670   -0.3870   -0.0390 cc        1 O26     -0.340600
      2 C2          1.0610   -0.4790    0.2860 cc        1 O26      0.440600
      3 C3          2.2510   -0.1300   -0.5700 c3        1 O26     -0.101300
      4 C4          2.5690   -1.3210   -1.4700 c3        1 O26     -0.090100
      5 C5          1.9760    1.1040   -1.4190 c3        1 O26     -0.090100
      6 C6          3.4750    0.1640    0.2970 c3        1 O26     -0.090100
      7 N7          1.1920   -0.9940    1.5380 nd        1 O26     -0.596800
      8 N8         -0.0510   -1.2490    2.0130 na        1 O26      0.053400
      9 C9         -0.3100   -1.6040    3.3860 c3        1 O26     -0.000700
     10 C10         0.6100   -2.7020    3.9180 c         1 O26      0.531100
     11 O11         0.2720   -3.8080    4.2880 o         1 O26     -0.352100
     12 N12         2.0870   -2.3270    4.0240 n4        1 O26     -0.498200
     13 C13         2.8190   -3.0550    5.0290 cc        1 O26     -0.172500
     14 S14         3.5150   -4.5370    4.7750 ss        1 O26      0.461200
     15 C15         4.0910   -4.6880    6.2910 cc        1 O26     -0.103400
     16 C16         4.8620   -5.8590    6.7660 c3        1 O26     -0.040100
     17 C17         5.6340   -5.5320    8.0310 c3        1 O26     -0.082400
     18 C18         4.7390   -4.8540    9.0410 c3        1 O26     -0.083400
     19 C19         4.1960   -3.5260    8.5270 c3        1 O26     -0.047100
     20 C20         3.7740   -3.5860    7.1090 cd        1 O26     -0.018300
     21 C21         3.0420   -2.6120    6.3740 cd        1 O26     -0.203600
     22 C22         2.5680   -1.3240    6.8300 c         1 O26      0.601700
     23 O23         1.8480   -0.5430    6.2020 o         1 O26     -0.492100
     24 N24         2.9770   -0.8230    8.1830 n4        1 O26     -0.741400
     25 C25        -1.0370   -0.8830    1.0940 cd        1 O26     -0.031300
     26 C26        -1.0560    0.2220   -1.1880 c3        1 O26      0.196100
     27 N27        -1.0610   -0.6420   -2.4160 n4        1 O26     -0.763000
     28 C28        -1.8070   -0.0090   -3.5310 c3        1 O26      0.074100
     29 H4          2.8640   -2.2090   -0.8610 hc        1 O26      0.051589
     30 H4A         1.6910   -1.5990   -2.0990 hc        1 O26      0.051589
     31 H4B         3.4200   -1.0570   -2.1470 hc        1 O26      0.051589
     32 H5          1.5000    1.9110   -0.8120 hc        1 O26      0.051589
     33 H5A         2.9410    1.5010   -1.8280 hc        1 O26      0.051589
     34 H5B         1.3250    0.8570   -2.2920 hc        1 O26      0.051589
     35 H6          3.2620    1.0030    1.0010 hc        1 O26      0.051589
     36 H6A         4.3330    0.4590   -0.3580 hc        1 O26      0.051589
     37 H6B         3.7820   -0.7380    0.8770 hc        1 O26      0.051589
     38 H9         -1.3700   -2.0010    3.4650 h1        1 O26      0.137200
     39 H9A        -0.2060   -0.7000    4.0620 h1        1 O26      0.137200
     40 HN12        2.1460   -1.3120    4.2160 hn        1 O26      0.487300
     41 H16         4.1480   -6.7070    6.9750 hc        1 O26      0.100700
     42 H16A        5.5760   -6.2130    5.9710 hc        1 O26      0.100700
     43 H17         6.5130   -4.8790    7.7890 hc        1 O26      0.087200
     44 H17A        6.0370   -6.4870    8.4670 hc        1 O26      0.087200
     45 H18         3.8820   -5.5320    9.3010 hc        1 O26      0.086700
     46 H18A        5.3130   -4.6640    9.9880 hc        1 O26      0.086700
     47 H19         3.3270   -3.2500    9.1840 hc        1 O26      0.057700
     48 H19A        5.0060   -2.7510    8.6350 hc        1 O26      0.057700
     49 HN24        2.7070    0.1700    8.2840 hn        1 O26      0.490467
     50 HN2A        2.5060   -1.3690    8.9190 hn        1 O26      0.490467
     51 H25        -2.1070   -0.9920    1.3020 h4        1 O26      0.214000
     52 H26        -2.1380    0.4280   -0.9240 hx        1 O26      0.124200
     53 H26A       -0.5720    1.2070   -1.4650 hx        1 O26      0.124200
     54 HN27       -1.4850   -1.5500   -2.1930 hn        1 O26      0.455300
     55 H28        -2.8750    0.1620   -3.2260 hx        1 O26      0.119700
     56 H28A       -1.7780   -0.6900   -4.4270 hx        1 O26      0.119700
     57 H28B       -1.3310    0.9750   -3.7940 hx        1 O26      0.119700
     58 H122        2.5240   -2.4930    3.1010 hn        1 O26      0.487300
     59 H243        3.9950   -0.9130    8.3090 hn        1 O26      0.490467
     60 H272       -0.0890   -0.8130   -2.7090 hn        1 O26      0.455300
@<TRIPOS>BOND
     1    1    2 1   
     2    1   25 2   
     3    1   26 1   
     4    2    3 1   
     5    2    7 2   
     6    3    4 1   
     7    3    5 1   
     8    3    6 1   
     9    4   29 1   
    10    4   30 1   
    11    4   31 1   
    12    5   32 1   
    13    5   33 1   
    14    5   34 1   
    15    6   35 1   
    16    6   36 1   
    17    6   37 1   
    18    7    8 1   
    19    8    9 1   
    20    8   25 1   
    21    9   10 1   
    22    9   38 1   
    23    9   39 1   
    24   10   11 2   
    25   10   12 1   
    26   12   13 1   
    27   12   40 1   
    28   12   58 1   
    29   13   14 1   
    30   13   21 2   
    31   14   15 1   
    32   15   16 1   
    33   15   20 2   
    34   16   17 1   
    35   16   41 1   
    36   16   42 1   
    37   17   18 1   
    38   17   43 1   
    39   17   44 1   
    40   18   19 1   
    41   18   45 1   
    42   18   46 1   
    43   19   20 1   
    44   19   47 1   
    45   19   48 1   
    46   20   21 1   
    47   21   22 1   
    48   22   23 2   
    49   22   24 1   
    50   24   49 1   
    51   24   50 1   
    52   24   59 1   
    53   25   51 1   
    54   26   27 1   
    55   26   52 1   
    56   26   53 1   
    57   27   28 1   
    58   27   54 1   
    59   27   60 1   
    60   28   55 1   
    61   28   56 1   
    62   28   57 1   
@<TRIPOS>SUBSTRUCTURE
     1 O26         1 TEMP              0 ****  ****    0 ROOT
