@<TRIPOS>MOLECULE
O26
   57    59     1     0     0
SMALL
bcc


@<TRIPOS>ATOM
      1 C1         -4.1160   -0.6190   -0.9110 cc        1 O26     -0.255600
      2 C2         -3.4620   -0.7290    0.3890 cc        1 O26      0.344600
      3 C3         -3.8480   -0.1190    1.7070 c3        1 O26     -0.075300
      4 C4         -3.1760    1.2460    1.8270 c3        1 O26     -0.086433
      5 C5         -5.3560    0.0450    1.8280 c3        1 O26     -0.086433
      6 C6         -3.3760   -1.0000    2.8640 c3        1 O26     -0.086433
      7 N7         -2.3320   -1.4840    0.2580 nd        1 O26     -0.519800
      8 N8         -2.2470   -1.8660   -1.0290 na        1 O26      0.073400
      9 C9         -1.1610   -2.6510   -1.5580 c3        1 O26     -0.005700
     10 C10         0.1360   -1.8580   -1.7860 c         1 O26      0.634100
     11 O11         0.6260   -1.7870   -2.9300 o         1 O26     -0.592100
     12 N12         0.7310   -1.2700   -0.6880 n         1 O26     -0.417100
     13 C13         1.9200   -0.5600   -0.7500 cc        1 O26      0.081500
     14 S14         2.8090   -0.2930   -2.1670 ss        1 O26      0.132200
     15 C15         4.0080    0.5610   -1.3830 cc        1 O26     -0.172400
     16 C16         5.2070    1.0900   -2.0580 c3        1 O26      0.003900
     17 C17         5.9570    2.0740   -1.1770 c3        1 O26     -0.072400
     18 C18         6.0690    1.5650    0.2450 c3        1 O26     -0.074400
     19 C19         4.7010    1.3890    0.8810 c3        1 O26     -0.018100
     20 C20         3.7670    0.6840   -0.0240 cd        1 O26     -0.054300
     21 C21         2.5460    0.0420    0.3570 cd        1 O26     -0.237600
     22 C22         1.9880   -0.0420    1.7180 c         1 O26      0.702700
     23 O23         1.3420   -1.0410    2.1140 o         1 O26     -0.644100
     24 N24         2.1590    1.0180    2.5740 n         1 O26     -0.670000
     25 C25        -3.3010   -1.3470   -1.7900 cd        1 O26     -0.116300
     26 C26        -5.3640    0.0580   -1.3260 c3        1 O26      0.240100
     27 N27        -5.2250    1.4930   -1.5160 n3        1 O26     -0.824200
     28 C28        -6.4700    2.2070   -1.4200 c3        1 O26      0.150100
     29 H4         -3.4900    1.9150    0.9910 hc        1 O26      0.039700
     30 H4A        -3.4650    1.7220    2.7940 hc        1 O26      0.039700
     31 H4B        -2.0660    1.1350    1.7980 hc        1 O26      0.039700
     32 H5         -5.8780   -0.8990    1.5450 hc        1 O26      0.039700
     33 H5A        -5.6240    0.2960    2.8830 hc        1 O26      0.039700
     34 H5B        -5.7200    0.8760    1.1760 hc        1 O26      0.039700
     35 H6         -2.2610   -1.0630    2.8910 hc        1 O26      0.039700
     36 H6A        -3.7240   -0.5660    3.8330 hc        1 O26      0.039700
     37 H6B        -3.7930   -2.0290    2.7610 hc        1 O26      0.039700
     38 H9         -0.9340   -3.5110   -0.8640 h1        1 O26      0.097700
     39 H9A        -1.4780   -3.0570   -2.5620 h1        1 O26      0.097700
     40 HN12        0.3380   -1.4040    0.2280 hn        1 O26      0.376500
     41 H16         5.8890    0.2350   -2.3210 hc        1 O26      0.049700
     42 H16A        4.9210    1.5960   -3.0200 hc        1 O26      0.049700
     43 H17         6.9810    2.2420   -1.6010 hc        1 O26      0.043700
     44 H17A        5.4230    3.0610   -1.1790 hc        1 O26      0.043700
     45 H18         6.6110    0.5830    0.2470 hc        1 O26      0.045200
     46 H18A        6.6700    2.2860    0.8580 hc        1 O26      0.045200
     47 H19         4.8120    0.8230    1.8440 hc        1 O26      0.049700
     48 H19A        4.2820    2.4050    1.1230 hc        1 O26      0.049700
     49 HN24        2.6140    1.8430    2.2850 hn        1 O26      0.313000
     50 HN2A        1.7730    0.9710    3.4830 hn        1 O26      0.313000
     51 H25        -3.3960   -1.5300   -2.8610 h4        1 O26      0.183000
     52 H26        -5.6890   -0.3630   -2.3240 h1        1 O26      0.038700
     53 H26A       -6.1830   -0.2000   -0.5880 h1        1 O26      0.038700
     54 HN27       -4.5480    1.8720   -0.8810 hn        1 O26      0.363800
     55 H28        -7.1760    1.8200   -2.2010 h1        1 O26      0.028700
     56 H28A       -6.9740    2.1130   -0.4180 h1        1 O26      0.028700
     57 H28B       -6.2740    3.2930   -1.6190 h1        1 O26      0.028700
@<TRIPOS>BOND
     1    1    2 1   
     2    1   25 2   
     3    1   26 1   
     4    2    3 1   
     5    2    7 2   
     6    3    4 1   
     7    3    5 1   
     8    3    6 1   
     9    4   29 1   
    10    4   30 1   
    11    4   31 1   
    12    5   32 1   
    13    5   33 1   
    14    5   34 1   
    15    6   35 1   
    16    6   36 1   
    17    6   37 1   
    18    7    8 1   
    19    8    9 1   
    20    8   25 1   
    21    9   10 1   
    22    9   38 1   
    23    9   39 1   
    24   10   11 2   
    25   10   12 1   
    26   12   13 1   
    27   12   40 1   
    28   13   14 1   
    29   13   21 2   
    30   14   15 1   
    31   15   16 1   
    32   15   20 2   
    33   16   17 1   
    34   16   41 1   
    35   16   42 1   
    36   17   18 1   
    37   17   43 1   
    38   17   44 1   
    39   18   19 1   
    40   18   45 1   
    41   18   46 1   
    42   19   20 1   
    43   19   47 1   
    44   19   48 1   
    45   20   21 1   
    46   21   22 1   
    47   22   23 2   
    48   22   24 1   
    49   24   49 1   
    50   24   50 1   
    51   25   51 1   
    52   26   27 1   
    53   26   52 1   
    54   26   53 1   
    55   27   28 1   
    56   27   54 1   
    57   28   55 1   
    58   28   56 1   
    59   28   57 1   
@<TRIPOS>SUBSTRUCTURE
     1 O26         1 TEMP              0 ****  ****    0 ROOT
