@<TRIPOS>MOLECULE
O26
   59    61     1     0     0
SMALL
bcc


@<TRIPOS>ATOM
      1 C1         -0.2220   -0.3110   -0.2460 cc        1 O26     -0.372600
      2 C2          1.1570    0.0970    0.0160 cc        1 O26      0.385600
      3 C3          2.2320    0.5140   -0.9520 c3        1 O26     -0.092300
      4 C4          2.9710   -0.7320   -1.4310 c3        1 O26     -0.088100
      5 C5          1.6510    1.2630   -2.1440 c3        1 O26     -0.088100
      6 C6          3.2390    1.4400   -0.2660 c3        1 O26     -0.088100
      7 N7          1.3880    0.0220    1.3560 nd        1 O26     -0.489800
      8 N8          0.2430   -0.3790    1.9470 na        1 O26      0.105400
      9 C9          0.1210   -0.5590    3.3780 c3        1 O26     -0.002700
     10 C10         0.9170   -1.7700    3.8910 c         1 O26      0.645100
     11 O11         0.9530   -2.8520    3.2850 o         1 O26     -0.545100
     12 N12         1.5720   -1.6160    5.1160 n         1 O26     -0.431100
     13 C13         2.2600   -2.6390    5.7330 cc        1 O26      0.102500
     14 S14         2.4160   -4.1830    5.1050 ss        1 O26      0.279200
     15 C15         3.2990   -4.7540    6.3970 cc        1 O26     -0.141400
     16 C16         3.7810   -6.1480    6.4780 c3        1 O26     -0.018100
     17 C17         4.8670   -6.2900    7.5270 c3        1 O26     -0.077400
     18 C18         4.4630   -5.6040    8.8120 c3        1 O26     -0.077400
     19 C19         4.2460   -4.1090    8.6190 c3        1 O26     -0.029100
     20 C20         3.5160   -3.7970    7.3690 cd        1 O26     -0.051300
     21 C21         2.9380   -2.5290    6.9910 cd        1 O26     -0.309600
     22 C22         2.9940   -1.2850    7.6860 c         1 O26      0.603700
     23 O23         2.4250   -0.2180    7.4440 o         1 O26     -0.505100
     24 N24         3.8980   -1.1840    8.8990 n4        1 O26     -0.750400
     25 C25        -0.7640   -0.6150    1.0200 cd        1 O26     -0.061300
     26 C26        -0.9930   -0.3300   -1.4910 c3        1 O26      0.215100
     27 N27        -0.6330   -1.5140   -2.3530 n4        1 O26     -0.768000
     28 C28        -1.4170   -1.5470   -3.6060 c3        1 O26      0.076100
     29 H4          3.7630   -0.4380   -2.1620 hc        1 O26      0.046922
     30 H4A         3.4560   -1.2520   -0.5700 hc        1 O26      0.046922
     31 H4B         2.2760   -1.4480   -1.9310 hc        1 O26      0.046922
     32 H5          1.1600    0.5650   -2.8630 hc        1 O26      0.046922
     33 H5A         0.9160    2.0340   -1.8090 hc        1 O26      0.046922
     34 H5B         2.4740    1.7840   -2.6960 hc        1 O26      0.046922
     35 H6          2.7200    2.3340    0.1530 hc        1 O26      0.046922
     36 H6A         3.7740    0.9090    0.5570 hc        1 O26      0.046922
     37 H6B         3.9990    1.7820   -1.0110 hc        1 O26      0.046922
     38 H9         -0.9640   -0.7520    3.6240 h1        1 O26      0.111200
     39 H9A         0.4520    0.3940    3.8860 h1        1 O26      0.111200
     40 HN12        1.5460   -0.7240    5.5700 hn        1 O26      0.360500
     41 H16         2.9170   -6.8220    6.7400 hc        1 O26      0.074700
     42 H16A        4.1770   -6.4830    5.4810 hc        1 O26      0.074700
     43 H17         5.8260   -5.8520    7.1450 hc        1 O26      0.067700
     44 H17A        5.0500   -7.3800    7.7240 hc        1 O26      0.067700
     45 H18         5.2560   -5.7570    9.5900 hc        1 O26      0.067700
     46 H18A        3.5170   -6.0670    9.2000 hc        1 O26      0.067700
     47 H19         5.2530   -3.6070    8.5970 hc        1 O26      0.038200
     48 H19A        3.6720   -3.7420    9.5120 hc        1 O26      0.038200
     49 HN24        3.5010   -1.7240    9.6740 hn        1 O26      0.469800
     50 HN2A        3.9780   -0.1990    9.1830 hn        1 O26      0.469800
     51 H25        -1.7670   -0.9450    1.3050 h4        1 O26      0.196000
     52 H26        -2.0990   -0.4010   -1.2740 hx        1 O26      0.111700
     53 H26A       -0.8080    0.6030   -2.1040 hx        1 O26      0.111700
     54 HN27        0.3720   -1.4630   -2.5730 hn        1 O26      0.454800
     55 H28        -1.1170   -2.4460   -4.2100 hx        1 O26      0.110700
     56 H28A       -1.2170   -0.6140   -4.2000 hx        1 O26      0.110700
     57 H28B       -2.5130   -1.6070   -3.3670 hx        1 O26      0.110700
     58 H243        4.8270   -1.5570    8.6780 hn        1 O26      0.469800
     59 H272       -0.7910   -2.3760   -1.8190 hn        1 O26      0.454800
@<TRIPOS>BOND
     1    1    2 1   
     2    1   25 2   
     3    1   26 1   
     4    2    3 1   
     5    2    7 2   
     6    3    4 1   
     7    3    5 1   
     8    3    6 1   
     9    4   29 1   
    10    4   30 1   
    11    4   31 1   
    12    5   32 1   
    13    5   33 1   
    14    5   34 1   
    15    6   35 1   
    16    6   36 1   
    17    6   37 1   
    18    7    8 1   
    19    8    9 1   
    20    8   25 1   
    21    9   10 1   
    22    9   38 1   
    23    9   39 1   
    24   10   11 2   
    25   10   12 1   
    26   12   13 1   
    27   12   40 1   
    28   13   14 1   
    29   13   21 2   
    30   14   15 1   
    31   15   16 1   
    32   15   20 2   
    33   16   17 1   
    34   16   41 1   
    35   16   42 1   
    36   17   18 1   
    37   17   43 1   
    38   17   44 1   
    39   18   19 1   
    40   18   45 1   
    41   18   46 1   
    42   19   20 1   
    43   19   47 1   
    44   19   48 1   
    45   20   21 1   
    46   21   22 1   
    47   22   23 2   
    48   22   24 1   
    49   24   49 1   
    50   24   50 1   
    51   24   58 1   
    52   25   51 1   
    53   26   27 1   
    54   26   52 1   
    55   26   53 1   
    56   27   28 1   
    57   27   54 1   
    58   27   59 1   
    59   28   55 1   
    60   28   56 1   
    61   28   57 1   
@<TRIPOS>SUBSTRUCTURE
     1 O26         1 TEMP              0 ****  ****    0 ROOT
