@<TRIPOS>MOLECULE
O26
   57    53     1     0     0
SMALL
bcc


@<TRIPOS>ATOM
      1 C1         -0.8410   -1.8760   -3.0690 c1        1 O26     -0.170000
      2 C2          0.5090   -2.1180   -3.1120 c1        1 O26     -0.084500
      3 C3          1.3420   -2.3490   -4.3740 c2        1 O26      0.018000
      4 C4          1.1570   -1.1490   -5.3400 c3        1 O26     -0.205000
      5 C5          0.8940   -3.6190   -5.0560 c3        1 O26     -0.205000
      6 C6          2.7310   -2.4690   -4.0080 c3        1 O26     -0.205000
      7 N7          0.9670   -2.2100   -1.8170 n2        1 O26     -0.123000
      8 N8         -0.1010   -2.0240   -0.9710 n2        1 O26     -0.123000
      9 C9         -0.0710   -2.1260    0.4620 c2        1 O26     -0.015000
     10 C10         0.0880   -0.7000    1.0840 c2        1 O26      0.275000
     11 O11        -0.0350    0.2930    0.3770 o         1 O26     -0.348000
     12 N12         0.2830   -0.5490    2.5470 n         1 O26     -0.279000
     13 C13         0.3270    0.7550    3.1350 c2        1 O26     -0.212000
     14 S14         0.0570    2.1410    2.3790 ss        1 O26      0.663000
     15 C15         0.1300    3.2830    3.4480 c1        1 O26     -0.432000
     16 C16         0.0790    4.8570    3.3780 c2        1 O26     -0.080000
     17 C17         0.4630    5.5700    4.5680 c3        1 O26     -0.151000
     18 C18         0.1110    4.9480    5.8770 c3        1 O26     -0.153000
     19 C19         0.5140    3.5910    6.0720 c3        1 O26     -0.106000
     20 C20         0.4290    2.6420    4.7950 c2        1 O26     -0.028000
     21 C21         0.5490    1.0550    4.5830 c1        1 O26     -0.210000
     22 C22         0.8080    0.0360    5.6660 c1        1 O26      0.364000
     23 O23         0.9690    0.3900    6.7880 o         1 O26     -0.362000
     24 N24         0.7810   -1.3330    5.3620 n3        1 O26     -0.433000
     25 C25        -1.2190   -1.8170   -1.7390 c1        1 O26     -0.084500
     26 C26        -1.7640   -1.5790   -4.3000 c2        1 O26     -0.006000
     27 N27        -3.1660   -1.6910   -3.9010 n3        1 O26     -0.304000
     28 C28        -3.9790   -1.0900   -4.8890 c3        1 O26     -0.125000
     29 H4          0.3340   -1.2530   -5.8280 hc        1 O26      0.079778
     30 H4A         1.8950   -1.1160   -5.9560 hc        1 O26      0.079778
     31 H4B         1.1260   -0.3540   -4.8480 hc        1 O26      0.079778
     32 H5         -0.0460   -3.6720   -5.0390 hc        1 O26      0.079778
     33 H5A         1.2770   -4.3990   -4.5820 hc        1 O26      0.079778
     34 H5B         1.2090   -3.6170   -6.0010 hc        1 O26      0.079778
     35 H6          2.8440   -3.2640   -3.3450 hc        1 O26      0.079778
     36 H6A         3.0400   -1.6110   -3.5630 hc        1 O26      0.079778
     37 H6B         3.2890   -2.6390   -4.8440 hc        1 O26      0.079778
     38 H9         -0.8990   -2.5240    0.7740 ha        1 O26      0.137500
     39 H9A         0.6400   -2.6540    0.7180 ha        1 O26      0.137500
     40 HN12        0.3540   -1.2880    3.0750 hn        1 O26      0.269000
     41 H16        -0.8270    5.1190    3.1520 ha        1 O26      0.087000
     42 H16A        0.7220    5.1690    2.5890 ha        1 O26      0.087000
     43 H17         0.0330    6.4580    4.5340 hc        1 O26      0.083500
     44 H17A        1.4020    5.6980    4.5460 hc        1 O26      0.083500
     45 H18         0.5640    5.4730    6.5640 hc        1 O26      0.081500
     46 H18A       -0.8970    4.9730    5.9570 hc        1 O26      0.081500
     47 H19        -0.0570    3.2300    6.7130 hc        1 O26      0.103500
     48 H19A        1.4860    3.6090    6.3630 hc        1 O26      0.103500
     49 HN24        1.5070   -1.8980    5.6330 hn        1 O26      0.220000
     50 HN2A        0.1030   -1.6730    4.8780 hn        1 O26      0.220000
     51 H25        -2.1820   -1.6470   -1.3840 DU        1 O26      0.185000
     52 H26        -1.5740   -2.2280   -5.0160 h4        1 O26      0.081500
     53 H26A       -1.5960   -0.7010   -4.6160 h4        1 O26      0.081500
     54 HN27       -3.2990   -1.2460   -3.0610 hn        1 O26      0.151000
     55 H28        -3.9120   -1.5940   -5.7090 h1        1 O26      0.070667
     56 H28A       -3.6640   -0.1300   -5.0520 h1        1 O26      0.070667
     57 H28B       -4.8830   -1.0820   -4.5940 h1        1 O26      0.070667
@<TRIPOS>BOND
     1    1    2 1   
     2    1   25 1   
     3    2    7 1   
     4    3    4 1   
     5    3    5 1   
     6    3    6 1   
     7    4   29 1   
     8    4   30 1   
     9    4   31 1   
    10    5   32 1   
    11    5   33 1   
    12    5   34 1   
    13    6   35 1   
    14    6   36 1   
    15    6   37 1   
    16    7    8 1   
    17    8   25 1   
    18    9   10 1   
    19    9   38 1   
    20    9   39 1   
    21   10   11 1   
    22   10   12 1   
    23   12   13 1   
    24   12   40 1   
    25   13   14 1   
    26   13   21 1   
    27   14   15 1   
    28   15   20 1   
    29   16   17 1   
    30   16   41 1   
    31   16   42 1   
    32   17   18 1   
    33   17   43 1   
    34   17   44 1   
    35   18   19 1   
    36   18   45 1   
    37   18   46 1   
    38   19   20 1   
    39   19   47 1   
    40   19   48 1   
    41   20   21 1   
    42   22   23 1   
    43   22   24 1   
    44   24   49 1   
    45   24   50 1   
    46   26   27 1   
    47   26   52 1   
    48   26   53 1   
    49   27   28 1   
    50   27   54 1   
    51   28   55 1   
    52   28   56 1   
    53   28   57 1   
@<TRIPOS>SUBSTRUCTURE
     1 O26         1 TEMP              0 ****  ****    0 ROOT
