@<TRIPOS>MOLECULE
O27
   62    66     1     0     0
SMALL
bcc


@<TRIPOS>ATOM
      1 F1          2.1820   -4.2380   -1.0290 f         1 O27     -0.231967
      2 C2          2.2880   -3.1340   -0.2210 c3        1 O27      0.633600
      3 F3          1.1480   -3.1580    0.5450 f         1 O27     -0.231967
      4 F4          3.2930   -3.4540    0.6590 f         1 O27     -0.231967
      5 C5          2.5060   -1.8360   -0.9680 cc        1 O27      0.230600
      6 N6          1.6090   -1.3740   -1.8900 nd        1 O27     -0.463800
      7 N7          2.1060   -0.2310   -2.3770 na        1 O27      0.103400
      8 C8          3.3320    0.1030   -1.7710 cd        1 O27     -0.089600
      9 C9          3.6220   -0.9280   -0.8560 cc        1 O27     -0.190600
     10 C10         4.8300   -0.9430   -0.0240 c3        1 O27     -0.008100
     11 C11         5.8550    0.0470   -0.5590 c3        1 O27     -0.078400
     12 C12         5.2360    1.3840   -0.9210 c3        1 O27     -0.073400
     13 C13         4.1970    1.2710   -2.0290 c3        1 O27     -0.016100
     14 C14         1.4240    0.5810   -3.3600 c3        1 O27     -0.015700
     15 C15         0.3210    1.4750   -2.7700 c         1 O27      0.635100
     16 O16         0.4060    2.7130   -2.8870 o         1 O27     -0.589100
     17 C22        -2.8630    0.8740   -0.9020 cc        1 O27     -0.230600
     18 O28        -2.6060   -1.3650   -1.6750 o         1 O27     -0.630100
     19 S19        -2.0760    3.1890   -1.6450 ss        1 O27      0.129200
     20 C27        -2.8730   -0.5940   -0.7240 c         1 O27      0.703700
     21 N17        -0.7380    0.8490   -2.1500 n         1 O27     -0.417100
     22 C21        -3.8610    1.8020   -0.4740 cc        1 O27     -0.050300
     23 C20        -3.5260    3.1010   -0.8280 cd        1 O27     -0.167400
     24 C18        -1.8200    1.5170   -1.5910 cd        1 O27      0.064500
     25 C23        -5.1460    1.4630    0.1760 c3        1 O27     -0.017100
     26 C24        -5.8600    2.6920    0.7130 c3        1 O27     -0.075400
     27 C25        -5.8030    3.8550   -0.2540 c3        1 O27     -0.072400
     28 C26        -4.3670    4.2730   -0.5220 c3        1 O27      0.003900
     29 N29        -3.1400   -1.0810    0.5370 n         1 O27     -0.553900
     30 C30        -3.0960   -2.4810    0.8590 c3        1 O27      0.073700
     31 C31        -2.0520   -2.8280    1.9750 c3        1 O27      0.123800
     32 N32        -2.6320   -3.8050    2.8840 n3        1 O27     -0.794200
     33 C33        -4.0790   -3.7980    2.6920 c3        1 O27      0.142800
     34 C34        -4.4320   -3.0500    1.3980 c3        1 O27     -0.121400
     35 H10         4.5540   -0.6730    1.0330 hc        1 O27      0.063700
     36 H10A        5.2720   -1.9750    0.0050 hc        1 O27      0.063700
     37 H11         6.6470    0.2050    0.2170 hc        1 O27      0.048700
     38 H11A        6.3510   -0.3880   -1.4660 hc        1 O27      0.048700
     39 H12         4.7550    1.8270   -0.0100 hc        1 O27      0.051700
     40 H12A        6.0410    2.0890   -1.2560 hc        1 O27      0.051700
     41 H13         4.7080    1.1420   -3.0220 hc        1 O27      0.063700
     42 H13A        3.5930    2.2170   -2.0790 hc        1 O27      0.063700
     43 H14         2.1880    1.2640   -3.8330 h1        1 O27      0.104200
     44 H14A        0.9700   -0.0790   -4.1550 h1        1 O27      0.104200
     45 HN17       -0.7940   -0.1540   -2.1500 hn        1 O27      0.370500
     46 H23        -5.7980    0.9500   -0.5840 hc        1 O27      0.053200
     47 H23A       -4.9960    0.7450    1.0240 hc        1 O27      0.053200
     48 H24        -6.9300    2.4290    0.9220 hc        1 O27      0.043700
     49 H24A       -5.3920    2.9980    1.6850 hc        1 O27      0.043700
     50 H25        -6.2950    3.5640   -1.2190 hc        1 O27      0.045700
     51 H25A       -6.3690    4.7260    0.1670 hc        1 O27      0.045700
     52 H26        -3.9580    4.7980    0.3840 hc        1 O27      0.049700
     53 H26A       -4.3440    5.0060   -1.3730 hc        1 O27      0.049700
     54 HN29       -3.2820   -0.4440    1.2840 hn        1 O27      0.316500
     55 H30        -2.8150   -3.0420   -0.0810 h1        1 O27      0.093700
     56 H31        -1.1030   -3.2010    1.5060 h1        1 O27      0.059700
     57 H31A       -1.7980   -1.9170    2.5840 h1        1 O27      0.059700
     58 HN32       -2.2620   -4.7180    2.6930 hn        1 O27      0.351800
     59 H33        -4.4950   -4.8410    2.6740 h1        1 O27      0.047200
     60 H33A       -4.5300   -3.2670    3.5760 h1        1 O27      0.047200
     61 H34        -5.1820   -2.2490    1.6060 hc        1 O27      0.053700
     62 H34A       -4.8770   -3.7440    0.6440 hc        1 O27      0.053700
@<TRIPOS>BOND
     1    1    2 1   
     2    2    3 1   
     3    2    4 1   
     4    2    5 1   
     5    5    6 2   
     6    5    9 1   
     7    6    7 1   
     8    7    8 1   
     9    7   14 1   
    10    8    9 2   
    11    8   13 1   
    12    9   10 1   
    13   10   11 1   
    14   10   35 1   
    15   10   36 1   
    16   11   12 1   
    17   11   37 1   
    18   11   38 1   
    19   12   13 1   
    20   12   39 1   
    21   12   40 1   
    22   13   41 1   
    23   13   42 1   
    24   14   15 1   
    25   14   43 1   
    26   14   44 1   
    27   15   16 2   
    28   15   21 1   
    29   17   20 1   
    30   17   22 1   
    31   17   24 2   
    32   18   20 2   
    33   19   23 1   
    34   19   24 1   
    35   20   29 1   
    36   21   24 1   
    37   21   45 1   
    38   22   23 2   
    39   22   25 1   
    40   23   28 1   
    41   25   26 1   
    42   25   46 1   
    43   25   47 1   
    44   26   27 1   
    45   26   48 1   
    46   26   49 1   
    47   27   28 1   
    48   27   50 1   
    49   27   51 1   
    50   28   52 1   
    51   28   53 1   
    52   29   30 1   
    53   29   54 1   
    54   30   31 1   
    55   30   34 1   
    56   30   55 1   
    57   31   32 1   
    58   31   56 1   
    59   31   57 1   
    60   32   33 1   
    61   32   58 1   
    62   33   34 1   
    63   33   59 1   
    64   33   60 1   
    65   34   61 1   
    66   34   62 1   
@<TRIPOS>SUBSTRUCTURE
     1 O27         1 TEMP              0 ****  ****    0 ROOT
