@<TRIPOS>MOLECULE
O27
   62    60     1     0     0
SMALL
bcc


@<TRIPOS>ATOM
      1 F1         -3.1520    4.4320   -4.0070 f         1 O27     -0.161000
      2 C2         -2.1110    4.6170   -4.7980 c3        1 O27      0.514000
      3 F3         -1.7970    5.9240   -4.8250 f         1 O27     -0.161000
      4 F4         -2.4070    4.2080   -6.0230 f         1 O27     -0.161000
      5 C5         -0.9130    3.8150   -4.2680 c2        1 O27     -0.194000
      6 N6         -0.8630    3.1110   -3.0520 n2        1 O27     -0.025000
      7 N7          0.4650    2.6200   -2.8760 n2        1 O27     -0.117000
      8 C8          1.2000    3.0080   -3.9450 c1        1 O27     -0.064000
      9 C9          0.3290    3.7690   -4.8340 c1        1 O27     -0.110000
     10 C10         0.9570    4.3640   -6.1510 c2        1 O27     -0.095250
     11 C11         2.3520    4.2290   -6.3020 c3        1 O27     -0.153500
     12 C12         2.9480    3.0130   -5.8040 c3        1 O27     -0.153500
     13 C13         2.6550    2.6690   -4.4510 c2        1 O27     -0.095250
     14 C14         0.9630    1.9320   -1.7120 c2        1 O27     -0.022000
     15 C15        -0.1660    1.0270   -1.1170 c2        1 O27      0.288000
     16 O16        -1.1380    0.7570   -1.7870 o         1 O27     -0.354000
     17 C22        -0.9530   -1.2150    2.0350 c1        1 O27     -0.212000
     18 O28         0.2260    0.2920    3.4200 o         1 O27     -0.400000
     19 S19        -2.1770   -1.1610   -0.1650 ss        1 O27      0.678000
     20 C27        -0.0410   -0.8570    3.1980 c1        1 O27      0.379000
     21 N17         0.0190    0.3950    0.1870 n         1 O27     -0.272000
     22 C21        -2.1630   -2.2560    2.0880 c1        1 O27     -0.043000
     23 C20        -2.8980   -2.2090    0.7390 c1        1 O27     -0.433000
     24 C18        -0.9580   -0.5510    0.6760 c2        1 O27     -0.198000
     25 C23        -2.6110   -3.3230    3.1120 c2        1 O27     -0.095250
     26 C24        -3.6110   -4.2920    2.6520 c3        1 O27     -0.153500
     27 C25        -4.6280   -3.8060    1.7320 c3        1 O27     -0.153500
     28 C26        -4.1600   -3.1260    0.5560 c2        1 O27     -0.095250
     29 N29         0.5290   -1.9080    4.0250 n3        1 O27     -0.360000
     30 C30         1.4470   -1.5510    5.1490 c3        1 O27     -0.003000
     31 C31         1.5740   -2.7800    6.1760 c3        1 O27     -0.106000
     32 N32         2.9520   -3.3700    5.9420 n3        1 O27     -0.274000
     33 C33         3.3710   -2.8160    4.8240 c3        1 O27     -0.093000
     34 C34         2.6130   -1.3690    4.7140 c3        1 O27     -0.205000
     35 H10         0.7450    5.3020   -6.1830 ha        1 O27      0.096250
     36 H10A        0.5300    3.9320   -6.9100 ha        1 O27      0.096250
     37 H11         2.7820    4.9880   -5.8380 hc        1 O27      0.087125
     38 H11A        2.5710    4.3020   -7.3030 hc        1 O27      0.087125
     39 H12         2.6150    2.2890   -6.3570 hc        1 O27      0.087125
     40 H12A        3.9180    3.1290   -5.8620 hc        1 O27      0.087125
     41 H13         2.7610    1.7040   -4.3760 ha        1 O27      0.096250
     42 H13A        3.2730    3.1720   -3.8890 ha        1 O27      0.096250
     43 H14         1.7450    1.3640   -1.9680 ha        1 O27      0.145000
     44 H14A        1.2410    2.5860   -1.0430 ha        1 O27      0.145000
     45 HN17        0.7560    0.5620    0.6640 hn        1 O27      0.278000
     46 H23        -2.9820   -2.8500    3.9050 ha        1 O27      0.096250
     47 H23A       -1.8240   -3.8150    3.3950 ha        1 O27      0.096250
     48 H24        -3.1410   -5.0230    2.2160 hc        1 O27      0.087125
     49 H24A       -4.0670   -4.6540    3.4420 hc        1 O27      0.087125
     50 H25        -5.1420   -4.6110    1.4150 hc        1 O27      0.087125
     51 H25A       -5.1850   -3.1600    2.2340 hc        1 O27      0.087125
     52 H26        -4.8820   -2.5520    0.2570 ha        1 O27      0.096250
     53 H26A       -3.9160   -3.8240   -0.1010 ha        1 O27      0.096250
     54 HN29        0.2100   -2.7680    3.9530 hn        1 O27      0.230000
     55 H30         1.1280   -0.7610    5.6070 h1        1 O27      0.130000
     56 H31         1.4990   -2.4680    7.0690 h1        1 O27      0.092500
     57 H31A        0.8520   -3.4800    5.9820 h1        1 O27      0.092500
     58 HN32        3.5330   -3.1190    6.6610 hn        1 O27      0.145000
     59 H33         3.1290   -3.3800    4.0600 h1        1 O27      0.088500
     60 H33A        4.3470   -2.6860    4.8540 h1        1 O27      0.088500
     61 H34         3.0740   -0.7070    5.2600 hc        1 O27      0.100500
     62 H34A        2.5810   -1.0640    3.7500 hc        1 O27      0.100500
@<TRIPOS>BOND
     1    1    2 1   
     2    2    3 1   
     3    2    4 1   
     4    2    5 1   
     5    5    6 1   
     6    5    9 1   
     7    6    7 1   
     8    7    8 1   
     9    8    9 1   
    10   10   11 1   
    11   10   35 1   
    12   10   36 1   
    13   11   12 1   
    14   11   37 1   
    15   11   38 1   
    16   12   13 1   
    17   12   39 1   
    18   12   40 1   
    19   13   41 1   
    20   13   42 1   
    21   14   15 1   
    22   14   43 1   
    23   14   44 1   
    24   15   16 1   
    25   15   21 1   
    26   17   22 1   
    27   17   24 1   
    28   18   20 1   
    29   19   23 1   
    30   19   24 1   
    31   20   29 1   
    32   21   24 1   
    33   21   45 1   
    34   22   23 1   
    35   25   26 1   
    36   25   46 1   
    37   25   47 1   
    38   26   27 1   
    39   26   48 1   
    40   26   49 1   
    41   27   28 1   
    42   27   50 1   
    43   27   51 1   
    44   28   52 1   
    45   28   53 1   
    46   29   30 1   
    47   29   54 1   
    48   30   31 1   
    49   30   34 1   
    50   30   55 1   
    51   31   32 1   
    52   31   56 1   
    53   31   57 1   
    54   32   33 1   
    55   32   58 1   
    56   33   34 1   
    57   33   59 1   
    58   33   60 1   
    59   34   61 1   
    60   34   62 1   
@<TRIPOS>SUBSTRUCTURE
     1 O27         1 TEMP              0 ****  ****    0 ROOT
