@<TRIPOS>MOLECULE
O28
   52    55     1     0     0
SMALL
bcc


@<TRIPOS>ATOM
      1 F1         -0.1900    2.7090    0.5450 f         1 O28     -0.214633
      2 C2          1.1300    2.7640    0.9140 c3        1 O28      0.625600
      3 F3          1.1700    3.7220    1.9000 f         1 O28     -0.214633
      4 F4          1.3850    1.5810    1.5450 f         1 O28     -0.214633
      5 C5          2.0730    3.0750   -0.2440 cc        1 O28      0.304600
      6 N6          1.8330    4.0960   -1.1130 nd        1 O28     -0.621800
      7 N7          2.8760    4.1310   -1.9750 na        1 O28      0.055400
      8 C8          3.7890    3.0790   -1.7160 cd        1 O28     -0.039600
      9 C9          3.3030    2.3970   -0.5840 cc        1 O28     -0.158600
     10 C10         4.0040    1.2590    0.0260 c3        1 O28     -0.026100
     11 C11         5.0540    0.7100   -0.9290 c3        1 O28     -0.085400
     12 C12         5.8730    1.8020   -1.5860 c3        1 O28     -0.079400
     13 C13         5.0280    2.7390   -2.4430 c3        1 O28     -0.031100
     14 C14         2.8040    4.8240   -3.2340 c3        1 O28     -0.001700
     15 C15         2.3330    6.2700   -3.1150 c         1 O28      0.549100
     16 O16         2.9270    7.2650   -3.4870 o         1 O28     -0.394100
     17 N17         0.9290    6.4870   -2.5500 n4        1 O28     -0.509200
     18 C18         0.9260    7.3180   -1.3730 cc        1 O28     -0.156500
     19 S19         1.0760    6.7440    0.1710 ss        1 O28      0.506200
     20 C20         0.9430    8.2080    0.8750 cc        1 O28     -0.135400
     21 C21         0.7760    9.2520   -0.0550 cd        1 O28     -0.029300
     22 C22         0.7780    8.7420   -1.3800 cd        1 O28     -0.207600
     23 C23         0.6140   10.6600    0.3690 c3        1 O28     -0.042100
     24 C24         0.3720   10.7980    1.8660 c3        1 O28     -0.081400
     25 C25         1.2630    9.8800    2.6710 c3        1 O28     -0.080400
     26 C26         0.9810    8.4270    2.3380 c3        1 O28     -0.034100
     27 C27         0.6310    9.4780   -2.6170 c         1 O28      0.599700
     28 O28         0.3370    9.0280   -3.7240 o         1 O28     -0.457100
     29 N29         0.8860   10.9610   -2.6060 n4        1 O28     -0.744400
     30 H10         4.4940    1.5970    0.9820 hc        1 O28      0.085700
     31 H10A        3.2720    0.4500    0.2990 hc        1 O28      0.085700
     32 H11         4.5520    0.0910   -1.7190 hc        1 O28      0.071200
     33 H11A        5.7390    0.0290   -0.3570 hc        1 O28      0.071200
     34 H12         6.6580    1.3370   -2.2400 hc        1 O28      0.070700
     35 H12A        6.4020    2.3990   -0.7960 hc        1 O28      0.070700
     36 H13         4.7610    2.2310   -3.4110 hc        1 O28      0.072700
     37 H13A        5.6220    3.6590   -2.6910 hc        1 O28      0.072700
     38 H14         2.1120    4.3000   -3.9630 h1        1 O28      0.135200
     39 H14A        3.8490    4.8520   -3.6780 h1        1 O28      0.135200
     40 HN17        0.3530    6.9400   -3.2820 hn        1 O28      0.488800
     41 H23         1.5480   11.2320    0.1070 hc        1 O28      0.052700
     42 H23A       -0.2620   11.1290   -0.1570 hc        1 O28      0.052700
     43 H24         0.5590   11.8640    2.1650 hc        1 O28      0.080200
     44 H24A       -0.7040   10.5720    2.0920 hc        1 O28      0.080200
     45 H25         2.3410   10.1170    2.4730 hc        1 O28      0.079700
     46 H25A        1.0790   10.0440    3.7670 hc        1 O28      0.079700
     47 H26        -0.0150    8.1320    2.7770 hc        1 O28      0.094700
     48 H26A        1.7620    7.7740    2.8150 hc        1 O28      0.094700
     49 HN29        0.9650   11.3060   -3.5760 hn        1 O28      0.484800
     50 HN2A        0.1060   11.4480   -2.1450 hn        1 O28      0.484800
     51 H172        0.4930    5.5770   -2.3220 hn        1 O28      0.488800
     52 H293        1.7520   11.1680   -2.0950 hn        1 O28      0.484800
@<TRIPOS>BOND
     1    1    2 1   
     2    2    3 1   
     3    2    4 1   
     4    2    5 1   
     5    5    6 2   
     6    5    9 1   
     7    6    7 1   
     8    7    8 1   
     9    7   14 1   
    10    8    9 2   
    11    8   13 1   
    12    9   10 1   
    13   10   11 1   
    14   10   30 1   
    15   10   31 1   
    16   11   12 1   
    17   11   32 1   
    18   11   33 1   
    19   12   13 1   
    20   12   34 1   
    21   12   35 1   
    22   13   36 1   
    23   13   37 1   
    24   14   15 1   
    25   14   38 1   
    26   14   39 1   
    27   15   16 2   
    28   15   17 1   
    29   17   18 1   
    30   17   40 1   
    31   17   51 1   
    32   18   19 1   
    33   18   22 2   
    34   19   20 1   
    35   20   21 2   
    36   20   26 1   
    37   21   22 1   
    38   21   23 1   
    39   22   27 1   
    40   23   24 1   
    41   23   41 1   
    42   23   42 1   
    43   24   25 1   
    44   24   43 1   
    45   24   44 1   
    46   25   26 1   
    47   25   45 1   
    48   25   46 1   
    49   26   47 1   
    50   26   48 1   
    51   27   28 2   
    52   27   29 1   
    53   29   49 1   
    54   29   50 1   
    55   29   52 1   
@<TRIPOS>SUBSTRUCTURE
     1 O28         1 TEMP              0 ****  ****    0 ROOT
