@<TRIPOS>MOLECULE
O28
   50    47     1     0     0
SMALL
bcc


@<TRIPOS>ATOM
      1 F1          1.2010   -2.7650    4.0340 f         1 O28     -0.160333
      2 C2          1.6360   -3.7690    3.3020 c3        1 O28      0.514000
      3 F3          2.9820   -3.8500    3.4020 f         1 O28     -0.160333
      4 F4          1.0950   -4.8960    3.7330 f         1 O28     -0.160333
      5 C5          1.2390   -3.5350    1.8230 c2        1 O28     -0.192000
      6 N6          0.5620   -2.4000    1.3160 n2        1 O28     -0.050000
      7 N7          0.3470   -2.5970   -0.0900 n2        1 O28     -0.106000
      8 C8          0.8690   -3.8010   -0.4310 c1        1 O28     -0.054000
      9 C9          1.4410   -4.4070    0.7830 c1        1 O28     -0.115000
     10 C10         2.1490   -5.8200    0.6430 c2        1 O28     -0.096500
     11 C11         2.2950   -6.3350   -0.6770 c3        1 O28     -0.153500
     12 C12         1.2260   -6.0560   -1.6150 c3        1 O28     -0.153500
     13 C13         0.8450   -4.6810   -1.7600 c2        1 O28     -0.096500
     14 C14        -0.3870   -1.6900   -0.9830 c2        1 O28     -0.029000
     15 C15        -0.1490   -0.2330   -0.5380 c2        1 O28      0.282000
     16 O16         0.9700    0.1610   -0.3660 o         1 O28     -0.339000
     17 N17        -1.2620    0.7000   -0.4820 n         1 O28     -0.277000
     18 C18        -1.0140    2.1050   -0.2190 c2        1 O28     -0.219000
     19 S19         0.4130    2.8010   -0.1340 ss        1 O28      0.653000
     20 C20         0.1820    4.3380    0.0350 c1        1 O28     -0.425000
     21 C21        -1.3190    4.5830    0.0540 c1        1 O28     -0.027000
     22 C22        -2.0570    3.1730   -0.1060 c1        1 O28     -0.197000
     23 C23        -1.8200    6.0670    0.1550 c2        1 O28     -0.096500
     24 C24        -0.8140    7.0750    0.3800 c3        1 O28     -0.153500
     25 C25         0.4910    6.8740   -0.2760 c3        1 O28     -0.153500
     26 C26         1.1360    5.5890   -0.0540 c2        1 O28     -0.096500
     27 C27        -3.5680    2.9500   -0.1060 c1        1 O28      0.360000
     28 O28        -4.3080    3.8820   -0.0110 o         1 O28     -0.368000
     29 N29        -4.0950    1.6400   -0.2870 n3        1 O28     -0.428000
     30 H10         3.0520   -5.7490    1.0440 ha        1 O28      0.100125
     31 H10A        1.6410   -6.4610    1.1570 ha        1 O28      0.100125
     32 H11         2.3920   -7.3330   -0.6100 hc        1 O28      0.086625
     33 H11A        3.1220   -5.9750   -1.0490 hc        1 O28      0.086625
     34 H12         1.5350   -6.3610   -2.4970 hc        1 O28      0.086625
     35 H12A        0.4440   -6.5330   -1.2970 hc        1 O28      0.086625
     36 H13         1.4990   -4.2640   -2.3990 ha        1 O28      0.100125
     37 H13A       -0.1010   -4.6740   -2.0990 ha        1 O28      0.100125
     38 H14        -1.3340   -1.8900   -0.9400 ha        1 O28      0.141500
     39 H14A       -0.0630   -1.8100   -1.9230 ha        1 O28      0.141500
     40 HN17       -2.0990    0.4230   -0.7150 hn        1 O28      0.267000
     41 H23        -2.4730    6.1180    0.8930 ha        1 O28      0.100125
     42 H23A       -2.3080    6.2970   -0.7230 ha        1 O28      0.100125
     43 H24        -1.1690    7.9140    0.0800 hc        1 O28      0.086625
     44 H24A       -0.6630    7.1380    1.3310 hc        1 O28      0.086625
     45 H25         1.1180    7.5860    0.0920 hc        1 O28      0.086625
     46 H25A        0.3400    6.9520   -1.2430 hc        1 O28      0.086625
     47 H26         1.7290    5.4370   -0.8070 ha        1 O28      0.100125
     48 H26A        1.6130    5.6500    0.8150 ha        1 O28      0.100125
     49 HN29       -5.0290    1.5040   -0.2860 hn        1 O28      0.226000
     50 HN2A       -3.5320    0.9270   -0.3500 hn        1 O28      0.226000
@<TRIPOS>BOND
     1    1    2 1   
     2    2    3 1   
     3    2    4 1   
     4    2    5 1   
     5    5    6 1   
     6    5    9 1   
     7    6    7 1   
     8    7    8 1   
     9    8    9 1   
    10   10   11 1   
    11   10   30 1   
    12   10   31 1   
    13   11   12 1   
    14   11   32 1   
    15   11   33 1   
    16   12   13 1   
    17   12   34 1   
    18   12   35 1   
    19   13   36 1   
    20   13   37 1   
    21   14   15 1   
    22   14   38 1   
    23   14   39 1   
    24   15   16 1   
    25   15   17 1   
    26   17   18 1   
    27   17   40 1   
    28   18   19 1   
    29   18   22 1   
    30   19   20 1   
    31   20   21 1   
    32   21   22 1   
    33   23   24 1   
    34   23   41 1   
    35   23   42 1   
    36   24   25 1   
    37   24   43 1   
    38   24   44 1   
    39   25   26 1   
    40   25   45 1   
    41   25   46 1   
    42   26   47 1   
    43   26   48 1   
    44   27   28 1   
    45   27   29 1   
    46   29   49 1   
    47   29   50 1   
@<TRIPOS>SUBSTRUCTURE
     1 O28         1 TEMP              0 ****  ****    0 ROOT
