@<TRIPOS>MOLECULE
O28
   51    54     1     0     0
SMALL
bcc


@<TRIPOS>ATOM
      1 F1         -0.4190    3.4070   -2.7600 f         1 O28     -0.240967
      2 C2          0.2480    3.4010   -1.5630 c3        1 O28      0.640600
      3 F3         -0.3190    4.4680   -0.8880 f         1 O28     -0.240967
      4 F4         -0.2220    2.3040   -0.8950 f         1 O28     -0.240967
      5 C5          1.7520    3.4830   -1.6810 cc        1 O28      0.231600
      6 N6          2.3790    4.6350   -2.0720 nd        1 O28     -0.524800
      7 N7          3.6920    4.3740   -2.0980 na        1 O28      0.106400
      8 C8          3.9650    3.0470   -1.7160 cd        1 O28     -0.068600
      9 C9          2.7170    2.4420   -1.4470 cc        1 O28     -0.172600
     10 C10         2.5800    1.0440   -1.0200 c3        1 O28     -0.015100
     11 C11         3.8660    0.2780   -1.2960 c3        1 O28     -0.081400
     12 C12         5.1020    1.0490   -0.8730 c3        1 O28     -0.076400
     13 C13         5.2690    2.3600   -1.6310 c3        1 O28     -0.022100
     14 C14         4.6900    5.3700   -2.4330 c3        1 O28     -0.015700
     15 C15         4.5200    6.6650   -1.6240 c         1 O28      0.650100
     16 O16         5.3620    7.0260   -0.7930 o         1 O28     -0.526100
     17 N17         3.3740    7.4240   -1.8990 n         1 O28     -0.433100
     18 C18         2.8130    8.3020   -0.9950 cc        1 O28      0.098500
     19 S19         3.6570    9.2920    0.0570 ss        1 O28      0.263200
     20 C20         2.2850    9.9620    0.7240 cc        1 O28     -0.143400
     21 C21         1.1180    9.4450    0.1900 cd        1 O28     -0.050300
     22 C22         1.4070    8.4770   -0.8290 cd        1 O28     -0.321600
     23 C23        -0.2240    9.9140    0.5990 c3        1 O28     -0.023100
     24 C24        -0.1850   10.8950    1.7620 c3        1 O28     -0.075400
     25 C25         1.0150   11.8140    1.7200 c3        1 O28     -0.075400
     26 C26         2.3080   11.0190    1.7550 c3        1 O28     -0.012100
     27 C27         0.4820    7.7760   -1.6720 c         1 O28      0.610700
     28 O28         0.5820    7.4420   -2.8480 o         1 O28     -0.452100
     29 N29        -0.8040    7.2980   -1.0200 n4        1 O28     -0.753400
     30 H10         2.3460    1.0150    0.0800 hc        1 O28      0.069200
     31 H10A        1.7210    0.5550   -1.5520 hc        1 O28      0.069200
     32 H11         3.9310    0.0440   -2.3910 hc        1 O28      0.059700
     33 H11A        3.8330   -0.6970   -0.7440 hc        1 O28      0.059700
     34 H12         6.0130    0.4180   -1.0490 hc        1 O28      0.060200
     35 H12A        5.0460    1.2640    0.2270 hc        1 O28      0.060200
     36 H13         5.6470    2.1550   -2.6710 hc        1 O28      0.068700
     37 H13A        6.0320    2.9980   -1.1110 hc        1 O28      0.068700
     38 H14         5.7070    4.9450   -2.1890 h1        1 O28      0.113200
     39 H14A        4.6400    5.6030   -3.5370 h1        1 O28      0.113200
     40 HN17        2.7800    7.1120   -2.6440 hn        1 O28      0.355500
     41 H23        -0.8590    9.0460    0.9250 hc        1 O28      0.037700
     42 H23A       -0.7230   10.4010   -0.2840 hc        1 O28      0.037700
     43 H24        -1.1260   11.5050    1.7510 hc        1 O28      0.059700
     44 H24A       -0.1690   10.3190    2.7260 hc        1 O28      0.059700
     45 H25         0.9850   12.5090    2.6000 hc        1 O28      0.063200
     46 H25A        0.9820   12.4420    0.7910 hc        1 O28      0.063200
     47 H26         3.1790   11.7090    1.5920 hc        1 O28      0.070200
     48 H26A        2.4350   10.5500    2.7690 hc        1 O28      0.070200
     49 HN29       -1.2650    6.6120   -1.6330 hn        1 O28      0.467800
     50 HN2A       -0.5800    6.8420   -0.1290 hn        1 O28      0.467800
     51 H293       -1.4310    8.0880   -0.8510 hn        1 O28      0.467800
@<TRIPOS>BOND
     1    1    2 1   
     2    2    3 1   
     3    2    4 1   
     4    2    5 1   
     5    5    6 2   
     6    5    9 1   
     7    6    7 1   
     8    7    8 1   
     9    7   14 1   
    10    8    9 2   
    11    8   13 1   
    12    9   10 1   
    13   10   11 1   
    14   10   30 1   
    15   10   31 1   
    16   11   12 1   
    17   11   32 1   
    18   11   33 1   
    19   12   13 1   
    20   12   34 1   
    21   12   35 1   
    22   13   36 1   
    23   13   37 1   
    24   14   15 1   
    25   14   38 1   
    26   14   39 1   
    27   15   16 2   
    28   15   17 1   
    29   17   18 1   
    30   17   40 1   
    31   18   19 1   
    32   18   22 2   
    33   19   20 1   
    34   20   21 2   
    35   20   26 1   
    36   21   22 1   
    37   21   23 1   
    38   22   27 1   
    39   23   24 1   
    40   23   41 1   
    41   23   42 1   
    42   24   25 1   
    43   24   43 1   
    44   24   44 1   
    45   25   26 1   
    46   25   45 1   
    47   25   46 1   
    48   26   47 1   
    49   26   48 1   
    50   27   28 2   
    51   27   29 1   
    52   29   49 1   
    53   29   50 1   
    54   29   51 1   
@<TRIPOS>SUBSTRUCTURE
     1 O28         1 TEMP              0 ****  ****    0 ROOT
