@<TRIPOS>MOLECULE
O28
   51    54     1     0     0
SMALL
bcc


@<TRIPOS>ATOM
      1 F1         -0.4330    3.4770   -2.8280 f         1 O28     -0.240967
      2 C2          0.2260    3.4400   -1.6260 c3        1 O28      0.640600
      3 F3         -0.3340    4.4990   -0.9340 f         1 O28     -0.240967
      4 F4         -0.2600    2.3350   -0.9840 f         1 O28     -0.240967
      5 C5          1.7320    3.5080   -1.7340 cc        1 O28      0.231600
      6 N6          2.3730    4.6600   -2.0980 nd        1 O28     -0.524800
      7 N7          3.6830    4.3860   -2.1200 na        1 O28      0.106400
      8 C8          3.9400    3.0490   -1.7640 cd        1 O28     -0.068600
      9 C9          2.6840    2.4520   -1.5140 cc        1 O28     -0.172600
     10 C10         2.5300    1.0470   -1.1160 c3        1 O28     -0.015100
     11 C11         3.8090    0.2730   -1.4000 c3        1 O28     -0.081400
     12 C12         5.0500    1.0220   -0.9540 c3        1 O28     -0.076400
     13 C13         5.2360    2.3460   -1.6840 c3        1 O28     -0.022100
     14 C14         4.6940    5.3780   -2.4290 c3        1 O28     -0.015700
     15 C15         4.5320    6.6590   -1.5960 c         1 O28      0.650100
     16 O16         5.3720    6.9940   -0.7530 o         1 O28     -0.526100
     17 N17         3.3970    7.4350   -1.8630 ns        1 O28     -0.433100
     18 C18         2.8380    8.3010   -0.9460 cc        1 O28      0.098500
     19 S19         3.6860    9.2620    0.1300 ss        1 O28      0.263200
     20 C20         2.3170    9.9340    0.8000 cc        1 O28     -0.143400
     21 C21         1.1480    9.4390    0.2490 cd        1 O28     -0.050300
     22 C22         1.4330    8.4880   -0.7870 cd        1 O28     -0.321600
     23 C23        -0.1920    9.9150    0.6570 c3        1 O28     -0.023100
     24 C24        -0.1510   10.8720    1.8390 c3        1 O28     -0.075400
     25 C25         1.0590   11.7800    1.8220 c3        1 O28     -0.075400
     26 C26         2.3440   10.9700    1.8510 c3        1 O28     -0.012100
     27 C27         0.5070    7.8120   -1.6490 c         1 O28      0.610700
     28 O28         0.6110    7.5000   -2.8310 o         1 O28     -0.452100
     29 N29        -0.7880    7.3350   -1.0140 nz        1 O28     -0.753400
     30 H10         1.6690    0.5780   -1.6640 hc        1 O28      0.069200
     31 H10A        2.2880    0.9990   -0.0180 hc        1 O28      0.069200
     32 H11         3.8780    0.0600   -2.4990 hc        1 O28      0.059700
     33 H11A        3.7620   -0.7130   -0.8680 hc        1 O28      0.059700
     34 H12         4.9900    1.2150    0.1500 hc        1 O28      0.060200
     35 H12A        5.9550    0.3850   -1.1370 hc        1 O28      0.060200
     36 H13         5.6180    2.1580   -2.7250 hc        1 O28      0.068700
     37 H13A        6.0020    2.9660   -1.1460 hc        1 O28      0.068700
     38 H14         5.7050    4.9370   -2.1870 h1        1 O28      0.113200
     39 H14A        4.6550    5.6330   -3.5280 h1        1 O28      0.113200
     40 HN17        2.8040    7.1440   -2.6190 hn        1 O28      0.355500
     41 H23        -0.8390    9.0470    0.9630 hc        1 O28      0.037700
     42 H23A       -0.6790   10.4240   -0.2200 hc        1 O28      0.037700
     43 H24        -0.1480   10.2780    2.7920 hc        1 O28      0.059700
     44 H24A       -1.0850   11.4930    1.8340 hc        1 O28      0.059700
     45 H25         1.0310   12.4580    2.7150 hc        1 O28      0.063200
     46 H25A        1.0390   12.4250    0.9060 hc        1 O28      0.063200
     47 H26         2.4580   10.4800    2.8570 hc        1 O28      0.070200
     48 H26A        3.2230   11.6540    1.7070 hc        1 O28      0.070200
     49 HN29       -0.5760    6.8610   -0.1310 hn        1 O28      0.467800
     50 HN2A       -1.2530    6.6670   -1.6430 hn        1 O28      0.467800
     51 H293       -1.4080    8.1290   -0.8350 hn        1 O28      0.467800
@<TRIPOS>BOND
     1    1    2 1   
     2    2    3 1   
     3    2    4 1   
     4    2    5 1   
     5    5    6 2   
     6    5    9 1   
     7    6    7 1   
     8    7    8 1   
     9    7   14 1   
    10    8    9 2   
    11    8   13 1   
    12    9   10 1   
    13   10   11 1   
    14   10   30 1   
    15   10   31 1   
    16   11   12 1   
    17   11   32 1   
    18   11   33 1   
    19   12   13 1   
    20   12   34 1   
    21   12   35 1   
    22   13   36 1   
    23   13   37 1   
    24   14   15 1   
    25   14   38 1   
    26   14   39 1   
    27   15   16 2   
    28   15   17 1   
    29   17   18 1   
    30   17   40 1   
    31   18   19 1   
    32   18   22 2   
    33   19   20 1   
    34   20   21 2   
    35   20   26 1   
    36   21   22 1   
    37   21   23 1   
    38   22   27 1   
    39   23   24 1   
    40   23   41 1   
    41   23   42 1   
    42   24   25 1   
    43   24   43 1   
    44   24   44 1   
    45   25   26 1   
    46   25   45 1   
    47   25   46 1   
    48   26   47 1   
    49   26   48 1   
    50   27   28 2   
    51   27   29 1   
    52   29   49 1   
    53   29   50 1   
    54   29   51 1   
@<TRIPOS>SUBSTRUCTURE
     1 O28         1 TEMP              0 ****  ****    0 ROOT
