@<TRIPOS>MOLECULE
O28
   50    53     1     0     0
SMALL
bcc


@<TRIPOS>ATOM
      1 F1          3.6340   -0.9820    3.3830 f         1 O28     -0.229967
      2 C2          3.4560   -0.1110    2.3380 c3        1 O28      0.632600
      3 F3          2.5870    0.8360    2.8190 f         1 O28     -0.229967
      4 F4          4.6580    0.5490    2.2430 f         1 O28     -0.229967
      5 C5          3.0070   -0.7670    1.0500 cc        1 O28      0.232600
      6 N6          1.9040   -1.5710    0.9930 nd        1 O28     -0.454800
      7 N7          1.8000   -1.9990   -0.2720 na        1 O28      0.099400
      8 C8          2.8150   -1.4630   -1.0870 cd        1 O28     -0.091600
      9 C9          3.6210   -0.6650   -0.2530 cc        1 O28     -0.191600
     10 C10         4.7940    0.0700   -0.7410 c3        1 O28     -0.008100
     11 C11         5.2170   -0.4540   -2.1070 c3        1 O28     -0.078400
     12 C12         4.0400   -0.6540   -3.0430 c3        1 O28     -0.073400
     13 C13         3.0470   -1.6870   -2.5270 c3        1 O28     -0.017100
     14 C14         0.7320   -2.8490   -0.7450 c3        1 O28     -0.014700
     15 C15        -0.5080   -2.0690   -1.2150 c         1 O28      0.633100
     16 O16        -0.8330   -2.1000   -2.4180 o         1 O28     -0.591100
     17 N17        -1.2210   -1.3770   -0.2590 n         1 O28     -0.421100
     18 C18        -2.3920   -0.6800   -0.5160 cc        1 O28      0.077500
     19 S19        -2.9220   -0.2190   -2.0570 ss        1 O28      0.122200
     20 C20        -4.2590    0.5900   -1.4760 cc        1 O28     -0.163400
     21 C21        -4.3610    0.5180   -0.0960 cd        1 O28     -0.055300
     22 C22        -3.2890   -0.2380    0.4750 cd        1 O28     -0.227600
     23 C23        -5.4590    1.1780    0.6450 c3        1 O28     -0.019100
     24 C24        -6.1530    2.2290   -0.2050 c3        1 O28     -0.075400
     25 C25        -6.4710    1.7000   -1.5880 c3        1 O28     -0.072400
     26 C26        -5.2050    1.3210   -2.3380 c3        1 O28      0.002900
     27 C27        -3.0860   -0.5300    1.9060 c         1 O28      0.700700
     28 O28        -1.9430   -0.6660    2.4050 o         1 O28     -0.640100
     29 N29        -4.1800   -0.6950    2.7170 n         1 O28     -0.669000
     30 H10         4.5420    1.1630   -0.8130 hc        1 O28      0.064200
     31 H10A        5.6450   -0.0260   -0.0140 hc        1 O28      0.064200
     32 H11         5.9360    0.2720   -2.5670 hc        1 O28      0.048200
     33 H11A        5.7560   -1.4290   -1.9780 hc        1 O28      0.048200
     34 H12         3.5110    0.3250   -3.1850 hc        1 O28      0.050700
     35 H12A        4.4140   -0.9870   -4.0460 hc        1 O28      0.050700
     36 H13         3.4570   -2.7230   -2.6800 hc        1 O28      0.064200
     37 H13A        2.0870   -1.6140   -3.1050 hc        1 O28      0.064200
     38 H14         1.1190   -3.4210   -1.6380 h1        1 O28      0.103200
     39 H14A        0.4290   -3.5760    0.0620 h1        1 O28      0.103200
     40 HN17       -0.9030   -1.3730    0.6960 hn        1 O28      0.379500
     41 H23        -6.2180    0.4030    0.9470 hc        1 O28      0.051200
     42 H23A       -5.0640    1.6600    1.5790 hc        1 O28      0.051200
     43 H24        -7.0980    2.5490    0.3050 hc        1 O28      0.046200
     44 H24A       -5.4940    3.1320   -0.2940 hc        1 O28      0.046200
     45 H25        -7.1360    0.8020   -1.4990 hc        1 O28      0.044200
     46 H25A       -7.0270    2.4770   -2.1720 hc        1 O28      0.044200
     47 H26        -4.7080    2.2570   -2.7190 hc        1 O28      0.050700
     48 H26A       -5.4760    0.7010   -3.2340 hc        1 O28      0.050700
     49 HN29       -5.0980   -0.6420    2.3620 hn        1 O28      0.315000
     50 HN2A       -4.0430   -0.8970    3.6760 hn        1 O28      0.315000
@<TRIPOS>BOND
     1    1    2 1   
     2    2    3 1   
     3    2    4 1   
     4    2    5 1   
     5    5    6 2   
     6    5    9 1   
     7    6    7 1   
     8    7    8 1   
     9    7   14 1   
    10    8    9 2   
    11    8   13 1   
    12    9   10 1   
    13   10   11 1   
    14   10   30 1   
    15   10   31 1   
    16   11   12 1   
    17   11   32 1   
    18   11   33 1   
    19   12   13 1   
    20   12   34 1   
    21   12   35 1   
    22   13   36 1   
    23   13   37 1   
    24   14   15 1   
    25   14   38 1   
    26   14   39 1   
    27   15   16 2   
    28   15   17 1   
    29   17   18 1   
    30   17   40 1   
    31   18   19 1   
    32   18   22 2   
    33   19   20 1   
    34   20   21 2   
    35   20   26 1   
    36   21   22 1   
    37   21   23 1   
    38   22   27 1   
    39   23   24 1   
    40   23   41 1   
    41   23   42 1   
    42   24   25 1   
    43   24   43 1   
    44   24   44 1   
    45   25   26 1   
    46   25   45 1   
    47   25   46 1   
    48   26   47 1   
    49   26   48 1   
    50   27   28 2   
    51   27   29 1   
    52   29   49 1   
    53   29   50 1   
@<TRIPOS>SUBSTRUCTURE
     1 O28         1 TEMP              0 ****  ****    0 ROOT
