@<TRIPOS>MOLECULE
O29
   67    70     1     0     0
SMALL
bcc


@<TRIPOS>ATOM
      1 O1          0.8010    1.9310    1.1710 o         1 O29     -0.470100
      2 C2          1.4240    1.0560    0.5750 c         1 O29      0.614700
      3 N3          1.6330   -0.2300    1.3850 n4        1 O29     -0.672800
      4 C4          1.9780    1.0980   -0.7540 cc        1 O29     -0.225600
      5 C5          2.4570    0.0200   -1.5520 cc        1 O29     -0.025300
      6 C6          2.4870   -1.4200   -1.2110 c3        1 O29     -0.040100
      7 C7          2.9190    0.4950   -2.7930 cd        1 O29     -0.150400
      8 C8          3.4870   -0.3870   -3.8400 c3        1 O29     -0.037100
      9 C9          3.9150   -1.7220   -3.2630 c3        1 O29     -0.081400
     10 C10         2.8170   -2.3070   -2.4050 c3        1 O29     -0.081400
     11 S11         2.7560    2.1020   -2.9650 ss        1 O29      0.578200
     12 C12         2.0870    2.3370   -1.4750 cd        1 O29     -0.157500
     13 N13         1.6560    3.6230   -0.9870 n4        1 O29     -0.514200
     14 C14         2.7890    4.4090   -0.3190 c         1 O29      0.558100
     15 O15         3.2130    3.9420    0.7220 o         1 O29     -0.407100
     16 C16         3.1900    5.7270   -0.9700 c3        1 O29     -0.004700
     17 N17         3.6110    5.6020   -2.3420 na        1 O29      0.052400
     18 N18         2.8350    4.9810   -3.2680 nc        1 O29     -0.648800
     19 C19         3.2210    5.4450   -4.4870 cd        1 O29      0.318600
     20 C20         2.6110    4.9120   -5.7820 c3        1 O29      0.623600
     21 F21         2.9560    5.6140   -6.8980 f         1 O29     -0.211633
     22 F22         2.9750    3.6100   -6.0340 f         1 O29     -0.211633
     23 F23         1.2400    4.8850   -5.7630 f         1 O29     -0.211633
     24 C24         4.4620    6.5590   -2.9600 cc        1 O29     -0.036600
     25 C25         4.2500    6.4520   -4.3470 cd        1 O29     -0.151600
     26 C26         4.9950    7.2450   -5.3350 c3        1 O29     -0.029100
     27 C27         5.4220    7.4800   -2.3200 c3        1 O29     -0.033100
     28 C28         6.3900    8.0110   -3.3720 c3        1 O29     -0.080400
     29 C29         5.6950    8.4140   -4.6580 c3        1 O29     -0.086400
     30 C30         1.2290   -0.0870    2.8120 c3        1 O29      0.080800
     31 C31         1.3390   -1.4140    3.5950 c3        1 O29      0.077800
     32 N32         0.8240   -1.3180    4.9960 n4        1 O29     -0.674400
     33 C33         0.5790   -2.6890    5.5450 c3        1 O29      0.075600
     34 C34         1.7600   -0.5710    5.8850 c3        1 O29      0.075600
     35 HN3         1.0800   -0.9770    0.9380 hn        1 O29      0.474800
     36 H6          3.2670   -1.5930   -0.4180 hc        1 O29      0.042200
     37 H6A         1.4840   -1.7510   -0.8260 hc        1 O29      0.042200
     38 H8          4.3670    0.1070   -4.3380 hc        1 O29      0.101700
     39 H8A         2.7070   -0.5580   -4.6370 hc        1 O29      0.101700
     40 H9          4.8540   -1.6000   -2.6630 hc        1 O29      0.084700
     41 H9A         4.1480   -2.4260   -4.1080 hc        1 O29      0.084700
     42 H10         1.8930   -2.4530   -3.0270 hc        1 O29      0.082700
     43 H10A        3.1300   -3.3180   -2.0290 hc        1 O29      0.082700
     44 HN13        0.9000    3.4880   -0.2940 hn        1 O29      0.487800
     45 H16         4.0660    6.1380   -0.3750 h1        1 O29      0.139200
     46 H16A        2.3090    6.4340   -0.8560 h1        1 O29      0.139200
     47 H26         5.7510    6.5850   -5.8450 hc        1 O29      0.089700
     48 H26A        4.3000    7.6260   -6.1340 hc        1 O29      0.089700
     49 H27         4.8580    8.3370   -1.8560 hc        1 O29      0.074200
     50 H27A        5.9980    6.9660   -1.5050 hc        1 O29      0.074200
     51 H28         6.9240    8.9010   -2.9440 hc        1 O29      0.074200
     52 H28A        7.1630    7.2290   -3.5930 hc        1 O29      0.074200
     53 H29         6.4540    8.8380   -5.3680 hc        1 O29      0.076200
     54 H29A        4.9490    9.2240   -4.4440 hc        1 O29      0.076200
     55 H30         0.1640    0.2980    2.8290 hx        1 O29      0.137200
     56 H30A        1.8890    0.7050    3.2760 hx        1 O29      0.137200
     57 H31         0.7430   -2.2200    3.0690 hx        1 O29      0.125200
     58 H31A        2.4180   -1.7480    3.6500 hx        1 O29      0.125200
     59 H33        -0.1980   -3.2130    4.9250 hx        1 O29      0.124367
     60 H33A        1.5360   -3.2760    5.5430 hx        1 O29      0.124367
     61 H33B        0.2040   -2.5910    6.6040 hx        1 O29      0.124367
     62 H34         1.9240    0.4630    5.4820 hx        1 O29      0.124367
     63 H34A        1.3050   -0.4990    6.9150 hx        1 O29      0.124367
     64 H34B        2.7380   -1.1190    5.9580 hx        1 O29      0.124367
     65 H32         2.6270   -0.4900    1.3190 hn        1 O29      0.474800
     66 H132        1.2660    4.1700   -1.7770 hn        1 O29      0.487800
     67 H321       -0.0780   -0.8170    4.9840 hn        1 O29      0.462800
@<TRIPOS>BOND
     1    1    2 2   
     2    2    3 1   
     3    2    4 1   
     4    3   30 1   
     5    3   35 1   
     6    3   65 1   
     7    4    5 1   
     8    4   12 2   
     9    5    6 1   
    10    5    7 2   
    11    6   10 1   
    12    6   36 1   
    13    6   37 1   
    14    7    8 1   
    15    7   11 1   
    16    8    9 1   
    17    8   38 1   
    18    8   39 1   
    19    9   10 1   
    20    9   40 1   
    21    9   41 1   
    22   10   42 1   
    23   10   43 1   
    24   11   12 1   
    25   12   13 1   
    26   13   14 1   
    27   13   44 1   
    28   13   66 1   
    29   14   15 2   
    30   14   16 1   
    31   16   17 1   
    32   16   45 1   
    33   16   46 1   
    34   17   18 1   
    35   17   24 1   
    36   18   19 2   
    37   19   20 1   
    38   19   25 1   
    39   20   21 1   
    40   20   22 1   
    41   20   23 1   
    42   24   25 2   
    43   24   27 1   
    44   25   26 1   
    45   26   29 1   
    46   26   47 1   
    47   26   48 1   
    48   27   28 1   
    49   27   49 1   
    50   27   50 1   
    51   28   29 1   
    52   28   51 1   
    53   28   52 1   
    54   29   53 1   
    55   29   54 1   
    56   30   31 1   
    57   30   55 1   
    58   30   56 1   
    59   31   32 1   
    60   31   57 1   
    61   31   58 1   
    62   32   33 1   
    63   32   34 1   
    64   32   67 1   
    65   33   59 1   
    66   33   60 1   
    67   33   61 1   
    68   34   62 1   
    69   34   63 1   
    70   34   64 1   
@<TRIPOS>SUBSTRUCTURE
     1 O29         1 TEMP              0 ****  ****    0 ROOT
