@<TRIPOS>MOLECULE
O29
   66    69     1     0     0
SMALL
bcc


@<TRIPOS>ATOM
      1 O1          2.8430    1.2660    0.4690 o         1 O29     -0.583100
      2 C2          2.6720    0.3310   -0.3250 c         1 O29      0.611700
      3 N3          1.3040   -0.3400   -0.1450 ny        1 O29     -0.680800
      4 C4          3.5070   -0.1800   -1.3450 cc        1 O29     -0.325600
      5 C5          3.4210   -1.4430   -2.0500 cc        1 O29     -0.060300
      6 C6          2.4400   -2.5270   -1.8170 c3        1 O29     -0.024100
      7 C7          4.4490   -1.5740   -2.9580 cd        1 O29     -0.129400
      8 C8          4.6760   -2.7800   -3.7810 c3        1 O29     -0.022100
      9 C9          4.0550   -3.9920   -3.1110 c3        1 O29     -0.076400
     10 C10         2.6130   -3.7180   -2.7520 c3        1 O29     -0.077400
     11 S11         5.4600   -0.2470   -3.0120 ss        1 O29      0.316200
     12 C12         4.6460    0.5760   -1.8090 cd        1 O29      0.118500
     13 N13         5.0000    1.8110   -1.3310 ns        1 O29     -0.429100
     14 C14         5.8510    2.6910   -2.0220 c         1 O29      0.645100
     15 O15         6.4800    2.3000   -3.0130 o         1 O29     -0.515100
     16 C16         6.0070    4.1170   -1.4810 c3        1 O29     -0.009700
     17 N17         4.7590    4.8150   -1.2580 na        1 O29      0.108400
     18 N18         3.8160    4.3640   -0.4250 nc        1 O29     -0.536800
     19 C19         2.7830    5.2650   -0.4680 cd        1 O29      0.226600
     20 C20         1.5430    5.0440    0.3530 c3        1 O29      0.643600
     21 F21         0.5770    6.0010    0.2630 f         1 O29     -0.250967
     22 F22         0.8770    3.8600    0.0700 f         1 O29     -0.250967
     23 F23         1.7620    4.8910    1.7070 f         1 O29     -0.250967
     24 C24         4.3780    6.0260   -1.8680 cc        1 O29     -0.056600
     25 C25         3.0940    6.3440   -1.3660 cd        1 O29     -0.160600
     26 C26         2.3540    7.5470   -1.7670 c3        1 O29     -0.019100
     27 C27         5.1410    6.8630   -2.8170 c3        1 O29     -0.027100
     28 C28         4.2120    7.8960   -3.4420 c3        1 O29     -0.078400
     29 C29         3.2910    8.5480   -2.4290 c3        1 O29     -0.082400
     30 C30         0.3300    0.4520    0.6520 c3        1 O29      0.092800
     31 C31         0.7050    0.6440    2.1350 c3        1 O29      0.102800
     32 N32         0.9590    2.0710    2.5110 nx        1 O29     -0.680400
     33 C33        -0.3210    2.8020    2.7230 c3        1 O29      0.081600
     34 C34         1.8100    2.1520    3.7310 c3        1 O29      0.081600
     35 HN3         1.4540   -1.2630    0.2820 hn        1 O29      0.471800
     36 H6          1.3910   -2.1560   -1.9820 hc        1 O29      0.030700
     37 H6A         2.5350   -2.8820   -0.7540 hc        1 O29      0.030700
     38 H8          4.2160   -2.6320   -4.7980 hc        1 O29      0.081700
     39 H8A         5.7760   -2.9530   -3.9320 hc        1 O29      0.081700
     40 H9          4.6380   -4.2600   -2.1910 hc        1 O29      0.071700
     41 H9A         4.1070   -4.8680   -3.8110 hc        1 O29      0.071700
     42 H10         2.0330   -3.5290   -3.6950 hc        1 O29      0.067200
     43 H10A        2.1690   -4.6260   -2.2630 hc        1 O29      0.067200
     44 HN13        4.5530    2.1290   -0.4920 hn        1 O29      0.367500
     45 H16         6.6030    4.7010   -2.2450 h1        1 O29      0.126200
     46 H16A        6.5960    4.0620   -0.5170 h1        1 O29      0.126200
     47 H26         1.8600    8.0180   -0.8750 hc        1 O29      0.072200
     48 H26A        1.5380    7.2570   -2.4850 hc        1 O29      0.072200
     49 H27         5.9730    7.3810   -2.2650 hc        1 O29      0.074700
     50 H27A        5.6060    6.2390   -3.6270 hc        1 O29      0.074700
     51 H28         3.5980    7.4060   -4.2430 hc        1 O29      0.066700
     52 H28A        4.8400    8.6850   -3.9350 hc        1 O29      0.066700
     53 H29         3.9050    9.0600   -1.6420 hc        1 O29      0.066700
     54 H29A        2.6760    9.3340   -2.9420 hc        1 O29      0.066700
     55 H30         0.2010    1.4480    0.1260 hx        1 O29      0.130200
     56 H30A       -0.6590   -0.0980    0.6080 hx        1 O29      0.130200
     57 H31         1.6290    0.0510    2.4000 hx        1 O29      0.122200
     58 H31A       -0.1460    0.2650    2.7750 hx        1 O29      0.122200
     59 H33        -0.0870    3.8880    2.9140 hx        1 O29      0.113700
     60 H33A       -0.9520    2.7210    1.7980 hx        1 O29      0.113700
     61 H33B       -0.8680    2.3740    3.6060 hx        1 O29      0.113700
     62 H34         2.8010    1.6630    3.5270 hx        1 O29      0.113700
     63 H34A        1.2980    1.6440    4.5900 hx        1 O29      0.113700
     64 H34B        1.9760    3.2390    3.9750 hx        1 O29      0.113700
     65 H32         0.9050   -0.4870   -1.0850 hn        1 O29      0.471800
     66 H321        1.4750    2.5330    1.7340 hn        1 O29      0.483800
@<TRIPOS>BOND
     1    1    2 2   
     2    2    3 1   
     3    2    4 1   
     4    3   30 1   
     5    3   35 1   
     6    3   65 1   
     7    4    5 1   
     8    4   12 2   
     9    5    6 1   
    10    5    7 2   
    11    6   10 1   
    12    6   36 1   
    13    6   37 1   
    14    7    8 1   
    15    7   11 1   
    16    8    9 1   
    17    8   38 1   
    18    8   39 1   
    19    9   10 1   
    20    9   40 1   
    21    9   41 1   
    22   10   42 1   
    23   10   43 1   
    24   11   12 1   
    25   12   13 1   
    26   13   14 1   
    27   13   44 1   
    28   14   15 2   
    29   14   16 1   
    30   16   17 1   
    31   16   45 1   
    32   16   46 1   
    33   17   18 1   
    34   17   24 1   
    35   18   19 2   
    36   19   20 1   
    37   19   25 1   
    38   20   21 1   
    39   20   22 1   
    40   20   23 1   
    41   24   25 2   
    42   24   27 1   
    43   25   26 1   
    44   26   29 1   
    45   26   47 1   
    46   26   48 1   
    47   27   28 1   
    48   27   49 1   
    49   27   50 1   
    50   28   29 1   
    51   28   51 1   
    52   28   52 1   
    53   29   53 1   
    54   29   54 1   
    55   30   31 1   
    56   30   55 1   
    57   30   56 1   
    58   31   32 1   
    59   31   57 1   
    60   31   58 1   
    61   32   33 1   
    62   32   34 1   
    63   32   66 1   
    64   33   59 1   
    65   33   60 1   
    66   33   61 1   
    67   34   62 1   
    68   34   63 1   
    69   34   64 1   
@<TRIPOS>SUBSTRUCTURE
     1 O29         1 TEMP              0 ****  ****    0 ROOT
