@<TRIPOS>MOLECULE
O29
   64    60     1     0     0
SMALL
bcc


@<TRIPOS>ATOM
      1 O1          0.9640   -1.0130    2.7700 o         1 O29     -0.398000
      2 C2          1.4290    0.0450    2.4000 c1        1 O29      0.374000
      3 N3          1.3760    1.1810    3.2530 n2        1 O29     -0.368000
      4 C4          2.1510    0.1310    1.0590 c2        1 O29     -0.210000
      5 C5          3.6700    0.5650    0.8430 c1        1 O29     -0.049000
      6 C6          4.8660    0.7670    1.8330 c2        1 O29     -0.095500
      7 C7          3.9860    0.4740   -0.6440 c1        1 O29     -0.429000
      8 C8          5.4540    0.7640   -1.0950 c2        1 O29     -0.095500
      9 C9          6.3580    1.2340   -0.0820 c3        1 O29     -0.153500
     10 C10         6.1920    0.6870    1.2610 c3        1 O29     -0.153500
     11 S11         2.7040   -0.0070   -1.3730 ss        1 O29      0.666000
     12 C12         1.5680   -0.2130   -0.2670 c1        1 O29     -0.187000
     13 N13         0.2600   -0.7900   -0.4910 n2        1 O29     -0.268000
     14 C14        -0.1790   -1.0860   -1.8340 c2        1 O29      0.279000
     15 O15         0.5540   -0.8490   -2.7800 o         1 O29     -0.350000
     16 C16        -1.4850   -1.8760   -2.0540 c3        1 O29     -0.024000
     17 N17        -2.2970   -1.2000   -3.0460 n3        1 O29     -0.109000
     18 N18        -2.4280    0.2140   -3.1970 n2        1 O29     -0.030000
     19 C19        -3.3820    0.4610   -4.1840 c1        1 O29     -0.191000
     20 C20        -3.8810    1.8500   -4.6330 c2        1 O29      0.513000
     21 F21        -5.1970    1.9580   -4.3820 f         1 O29     -0.159667
     22 F22        -3.6610    2.0000   -5.9510 f         1 O29     -0.159667
     23 F23        -3.2130    2.8070   -3.9520 f         1 O29     -0.159667
     24 C24        -3.1430   -1.7930   -3.9110 c1        1 O29     -0.059000
     25 C25        -3.8400   -0.7470   -4.6420 c1        1 O29     -0.119000
     26 C26        -4.8470   -1.1950   -5.7950 c2        1 O29     -0.095500
     27 C27        -3.5680   -3.2920   -4.1850 c2        1 O29     -0.095500
     28 C28        -4.6960   -3.4880   -5.0170 c3        1 O29     -0.153500
     29 C29        -4.8640   -2.5770   -6.1050 c3        1 O29     -0.153500
     30 C30         0.2550    1.3550    4.1620 c3        1 O29     -0.030000
     31 C31         0.7800    1.4540    5.6210 c3        1 O29     -0.093000
     32 N32        -0.2590    1.9520    6.4700 n3        1 O29     -0.262000
     33 C33         0.3350    2.7480    7.5580 c3        1 O29     -0.122000
     34 C34        -1.0210    0.8080    7.0480 c3        1 O29     -0.122000
     35 HN3         2.0610    1.8010    3.2410 hn        1 O29      0.227000
     36 H6          4.7740    1.6650    2.2100 ha        1 O29      0.096125
     37 H6A         4.8030    0.0630    2.4990 ha        1 O29      0.096125
     38 H8          5.8230   -0.0630   -1.4730 ha        1 O29      0.096125
     39 H8A         5.4230    1.4370   -1.8060 ha        1 O29      0.096125
     40 H9          6.2660    2.1910   -0.0240 hc        1 O29      0.086625
     41 H9A         7.2740    1.0330   -0.3780 hc        1 O29      0.086625
     42 H10         6.7820    1.1960    1.8470 hc        1 O29      0.086625
     43 H10A        6.4210   -0.2630    1.2100 hc        1 O29      0.086625
     44 HN13       -0.2710   -1.0080    0.2220 hn        1 O29      0.288000
     45 H16        -1.2720   -2.7780   -2.3670 h1        1 O29      0.142000
     46 H16A       -1.9830   -1.9310   -1.2050 h1        1 O29      0.142000
     47 H26        -5.7500   -0.9600   -5.4910 ha        1 O29      0.096125
     48 H26A       -4.5790   -0.7280   -6.6010 ha        1 O29      0.096125
     49 H27        -2.8130   -3.7480   -4.5920 ha        1 O29      0.096125
     50 H27A       -3.7500   -3.7140   -3.3300 ha        1 O29      0.096125
     51 H28        -5.5010   -3.4310   -4.4500 hc        1 O29      0.086625
     52 H28A       -4.6470   -4.3920   -5.3860 hc        1 O29      0.086625
     53 H29        -4.1430   -2.7490   -6.7580 hc        1 O29      0.086625
     54 H29A       -5.7180   -2.7780   -6.5380 hc        1 O29      0.086625
     55 H30        -0.3500    0.5890    4.0830 h1        1 O29      0.111000
     56 H30A       -0.2260    2.1740    3.9320 h1        1 O29      0.111000
     57 H31         1.0560    0.5690    5.9290 h1        1 O29      0.073000
     58 H31A        1.5410    2.0600    5.6510 h1        1 O29      0.073000
     59 H33         1.0000    2.2060    8.0340 h1        1 O29      0.072167
     60 H33A        0.7740    3.5510    7.1780 h1        1 O29      0.072167
     61 H33B       -0.3630    3.0230    8.1780 h1        1 O29      0.072167
     62 H34        -1.6800    1.1480    7.7080 h1        1 O29      0.072167
     63 H34A       -0.3910    0.1840    7.5000 h1        1 O29      0.072167
     64 H34B       -1.5020    0.3230    6.3170 h1        1 O29      0.072167
@<TRIPOS>BOND
     1    1    2 1   
     2    2    4 1   
     3    3   30 1   
     4    3   35 1   
     5    4    5 1   
     6    4   12 1   
     7    5    7 1   
     8    6   10 1   
     9    6   36 1   
    10    6   37 1   
    11    7   11 1   
    12    8    9 1   
    13    8   38 1   
    14    8   39 1   
    15    9   10 1   
    16    9   40 1   
    17    9   41 1   
    18   10   42 1   
    19   10   43 1   
    20   11   12 1   
    21   13   14 1   
    22   13   44 1   
    23   14   15 1   
    24   14   16 1   
    25   16   17 1   
    26   16   45 1   
    27   16   46 1   
    28   17   18 1   
    29   17   24 1   
    30   18   19 1   
    31   19   25 1   
    32   20   21 1   
    33   20   22 1   
    34   20   23 1   
    35   24   25 1   
    36   26   29 1   
    37   26   47 1   
    38   26   48 1   
    39   27   28 1   
    40   27   49 1   
    41   27   50 1   
    42   28   29 1   
    43   28   51 1   
    44   28   52 1   
    45   29   53 1   
    46   29   54 1   
    47   30   31 1   
    48   30   55 1   
    49   30   56 1   
    50   31   32 1   
    51   31   57 1   
    52   31   58 1   
    53   32   33 1   
    54   32   34 1   
    55   33   59 1   
    56   33   60 1   
    57   33   61 1   
    58   34   62 1   
    59   34   63 1   
    60   34   64 1   
@<TRIPOS>SUBSTRUCTURE
     1 O29         1 TEMP              0 ****  ****    0 ROOT
