@<TRIPOS>MOLECULE
O29
   66    69     1     0     0
SMALL
bcc


@<TRIPOS>ATOM
      1 O1          2.8250    1.2510    0.4570 o         1 O29     -0.583100
      2 C2          2.6240    0.3310   -0.3490 c         1 O29      0.611700
      3 N3          1.2390   -0.3050   -0.1690 n4        1 O29     -0.680800
      4 C4          3.4380   -0.1880   -1.3810 cc        1 O29     -0.325600
      5 C5          3.3130   -1.4390   -2.1020 cc        1 O29     -0.060300
      6 C6          2.3040   -2.4990   -1.8770 c3        1 O29     -0.024100
      7 C7          4.3310   -1.5850   -3.0180 cd        1 O29     -0.129400
      8 C8          4.5200   -2.7850   -3.8590 c3        1 O29     -0.022100
      9 C9          3.8710   -3.9900   -3.2020 c3        1 O29     -0.076400
     10 C10         2.4390   -3.6810   -2.8290 c3        1 O29     -0.077400
     11 S11         5.3780   -0.2860   -3.0610 ss        1 O29      0.316200
     12 C12         4.5950    0.5430   -1.8420 cd        1 O29      0.118500
     13 N13         4.9850    1.7610   -1.3490 n         1 O29     -0.429100
     14 C14         5.8560    2.6260   -2.0330 c         1 O29      0.645100
     15 O15         6.4680    2.2320   -3.0340 o         1 O29     -0.515100
     16 C16         6.0540    4.0400   -1.4740 c3        1 O29     -0.009700
     17 N17         4.8270    4.7690   -1.2350 na        1 O29      0.108400
     18 N18         3.8770    4.3330   -0.4020 nc        1 O29     -0.536800
     19 C19         2.8690    5.2620   -0.4270 cd        1 O29      0.226600
     20 C20         1.6280    5.0640    0.3990 c3        1 O29      0.643600
     21 F21         0.6880    6.0480    0.3280 f         1 O29     -0.250967
     22 F22         0.9290    3.9030    0.1040 f         1 O29     -0.250967
     23 F23         1.8510    4.8870    1.7500 f         1 O29     -0.250967
     24 C24         4.4760    5.9980   -1.8260 cc        1 O29     -0.056600
     25 C25         3.2040    6.3440   -1.3120 cd        1 O29     -0.160600
     26 C26         2.4950    7.5720   -1.6930 c3        1 O29     -0.019100
     27 C27         5.2550    6.8260   -2.7690 c3        1 O29     -0.027100
     28 C28         4.3520    7.8930   -3.3750 c3        1 O29     -0.078400
     29 C29         3.4550    8.5550   -2.3480 c3        1 O29     -0.082400
     30 C30         0.2910    0.5020    0.6450 c3        1 O29      0.092800
     31 C31         0.6800    0.6640    2.1270 c3        1 O29      0.102800
     32 N32         0.9750    2.0790    2.5220 n4        1 O29     -0.680400
     33 C33        -0.2830    2.8420    2.7510 c3        1 O29      0.081600
     34 C34         1.8360    2.1210    3.7370 c3        1 O29      0.081600
     35 HN3         0.8310   -0.4280   -1.1080 hn        1 O29      0.471800
     36 H6          2.3960   -2.8710   -0.8200 hc        1 O29      0.030700
     37 H6A         1.2650   -2.0970   -2.0300 hc        1 O29      0.030700
     38 H8          4.0590   -2.6110   -4.8710 hc        1 O29      0.081700
     39 H8A         5.6140   -2.9860   -4.0200 hc        1 O29      0.081700
     40 H9          3.8940   -4.8570   -3.9130 hc        1 O29      0.071700
     41 H9A         4.4520   -4.2860   -2.2890 hc        1 O29      0.071700
     42 H10         1.9740   -4.5830   -2.3500 hc        1 O29      0.067200
     43 H10A        1.8580   -3.4630   -3.7660 hc        1 O29      0.067200
     44 HN13        4.5530    2.0790   -0.5030 hn        1 O29      0.367500
     45 H16         6.6610    4.6180   -2.2340 h1        1 O29      0.126200
     46 H16A        6.6480    3.9560   -0.5160 h1        1 O29      0.126200
     47 H26         2.0190    8.0440   -0.7920 hc        1 O29      0.072200
     48 H26A        1.6670    7.3140   -2.4090 hc        1 O29      0.072200
     49 H27         6.1050    7.3140   -2.2150 hc        1 O29      0.074700
     50 H27A        5.6990    6.2000   -3.5900 hc        1 O29      0.074700
     51 H28         4.9990    8.6710   -3.8600 hc        1 O29      0.066700
     52 H28A        3.7200    7.4300   -4.1780 hc        1 O29      0.066700
     53 H29         4.0870    9.0410   -1.5580 hc        1 O29      0.066700
     54 H29A        2.8590    9.3650   -2.8460 hc        1 O29      0.066700
     55 H30         0.1870    1.5080    0.1330 hx        1 O29      0.130200
     56 H30A       -0.7120   -0.0200    0.6000 hx        1 O29      0.130200
     57 H31        -0.1770    0.3000    2.7680 hx        1 O29      0.122200
     58 H31A        1.5900    0.0430    2.3790 hx        1 O29      0.122200
     59 H33        -0.0180    3.9180    2.9540 hx        1 O29      0.113700
     60 H33A       -0.8360    2.4180    3.6310 hx        1 O29      0.113700
     61 H33B       -0.9210    2.7900    1.8280 hx        1 O29      0.113700
     62 H34         2.0330    3.1990    3.9940 hx        1 O29      0.113700
     63 H34A        2.8110    1.6080    3.5200 hx        1 O29      0.113700
     64 H34B        1.3140    1.6160    4.5930 hx        1 O29      0.113700
     65 H32         1.3660   -1.2370    0.2450 hn        1 O29      0.471800
     66 H321        1.5000    2.5370    1.7470 hn        1 O29      0.483800
@<TRIPOS>BOND
     1    1    2 2   
     2    2    3 1   
     3    2    4 1   
     4    3   30 1   
     5    3   35 1   
     6    3   65 1   
     7    4    5 1   
     8    4   12 2   
     9    5    6 1   
    10    5    7 2   
    11    6   10 1   
    12    6   36 1   
    13    6   37 1   
    14    7    8 1   
    15    7   11 1   
    16    8    9 1   
    17    8   38 1   
    18    8   39 1   
    19    9   10 1   
    20    9   40 1   
    21    9   41 1   
    22   10   42 1   
    23   10   43 1   
    24   11   12 1   
    25   12   13 1   
    26   13   14 1   
    27   13   44 1   
    28   14   15 2   
    29   14   16 1   
    30   16   17 1   
    31   16   45 1   
    32   16   46 1   
    33   17   18 1   
    34   17   24 1   
    35   18   19 2   
    36   19   20 1   
    37   19   25 1   
    38   20   21 1   
    39   20   22 1   
    40   20   23 1   
    41   24   25 2   
    42   24   27 1   
    43   25   26 1   
    44   26   29 1   
    45   26   47 1   
    46   26   48 1   
    47   27   28 1   
    48   27   49 1   
    49   27   50 1   
    50   28   29 1   
    51   28   51 1   
    52   28   52 1   
    53   29   53 1   
    54   29   54 1   
    55   30   31 1   
    56   30   55 1   
    57   30   56 1   
    58   31   32 1   
    59   31   57 1   
    60   31   58 1   
    61   32   33 1   
    62   32   34 1   
    63   32   66 1   
    64   33   59 1   
    65   33   60 1   
    66   33   61 1   
    67   34   62 1   
    68   34   63 1   
    69   34   64 1   
@<TRIPOS>SUBSTRUCTURE
     1 O29         1 TEMP              0 ****  ****    0 ROOT
