@<TRIPOS>MOLECULE
O29
   64    67     1     0     0
SMALL
bcc


@<TRIPOS>ATOM
      1 O1          0.9700    0.6400   -0.5010 o         1 O29     -0.639100
      2 C2          2.1360    0.8520   -0.0920 c         1 O29      0.696700
      3 N3          3.2290    0.4070   -0.8150 n         1 O29     -0.547900
      4 C4          2.3910    1.5880    1.1630 cc        1 O29     -0.235600
      5 C5          3.4630    2.4990    1.4130 cc        1 O29     -0.051300
      6 C6          4.5160    2.8900    0.4510 c3        1 O29     -0.019100
      7 C7          3.4070    3.0130    2.6990 cd        1 O29     -0.169400
      8 C8          4.3620    4.0020    3.2320 c3        1 O29      0.003900
      9 C9          5.5920    4.1250    2.3480 c3        1 O29     -0.072400
     10 C10         5.2170    4.1680    0.8820 c3        1 O29     -0.074400
     11 S11         2.1170    2.4120    3.5680 ss        1 O29      0.134200
     12 C12         1.5500    1.4670    2.2840 cd        1 O29      0.071500
     13 N13         0.4040    0.6830    2.3160 n         1 O29     -0.418100
     14 C14        -0.3140    0.4190    3.4620 c         1 O29      0.645100
     15 O15        -0.0210    0.9300    4.5620 o         1 O29     -0.592100
     16 C16        -1.5550   -0.4800    3.3960 c3        1 O29     -0.012700
     17 N17        -1.6360   -1.4130    2.2960 na        1 O29      0.097400
     18 N18        -0.7550   -2.4030    2.1060 nc        1 O29     -0.456800
     19 C19        -1.1710   -3.0990    1.0050 cd        1 O29      0.228600
     20 C20        -0.4130   -4.2980    0.4790 c3        1 O29      0.632600
     21 F21        -1.1000   -5.0330   -0.4560 f         1 O29     -0.232300
     22 F22         0.7700   -3.9830   -0.1450 f         1 O29     -0.232300
     23 F23        -0.0600   -5.2160    1.4350 f         1 O29     -0.232300
     24 C24        -2.6480   -1.4230    1.3170 cc        1 O29     -0.095600
     25 C25        -2.3730   -2.5120    0.4670 cd        1 O29     -0.182600
     26 C26        -3.2050   -2.8520   -0.6940 c3        1 O29     -0.010100
     27 C27        -3.8020   -0.5140    1.1750 c3        1 O29     -0.012100
     28 C28        -4.4220   -0.6940   -0.2050 c3        1 O29     -0.074400
     29 C29        -4.5540   -2.1520   -0.6010 c3        1 O29     -0.077400
     30 C30         3.0860   -0.5170   -1.9070 c3        1 O29      0.080000
     31 C31         3.2240   -1.9960   -1.4740 c3        1 O29      0.134800
     32 N32         3.2370   -2.9170   -2.6040 n3        1 O29     -0.728600
     33 C33         3.6850   -4.2370   -2.2060 c3        1 O29      0.150600
     34 C34         1.9740   -2.9600   -3.3100 c3        1 O29      0.150600
     35 HN3         4.1190    0.4420   -0.3740 hn        1 O29      0.307500
     36 H6          5.2780    2.0650    0.3840 hc        1 O29      0.054200
     37 H6A         4.0750    3.0330   -0.5720 hc        1 O29      0.054200
     38 H8          3.8550    5.0040    3.3000 hc        1 O29      0.049700
     39 H8A         4.6790    3.7180    4.2720 hc        1 O29      0.049700
     40 H9          6.1510    5.0570    2.6230 hc        1 O29      0.044200
     41 H9A         6.2740    3.2540    2.5330 hc        1 O29      0.044200
     42 H10         6.1380    4.3090    0.2600 hc        1 O29      0.045200
     43 H10A        4.5430    5.0450    0.6950 hc        1 O29      0.045200
     44 HN13        0.1380    0.2750    1.4390 hn        1 O29      0.367500
     45 H16        -1.5790   -1.0510    4.3720 h1        1 O29      0.104700
     46 H16A       -2.4550    0.1980    3.3440 h1        1 O29      0.104700
     47 H26        -2.6750   -2.5340   -1.6340 hc        1 O29      0.065700
     48 H26A       -3.3540   -3.9630   -0.7560 hc        1 O29      0.065700
     49 H27        -4.5610   -0.7490    1.9700 hc        1 O29      0.058700
     50 H27A       -3.4920    0.5570    1.3070 hc        1 O29      0.058700
     51 H28        -5.4350   -0.2130   -0.2080 hc        1 O29      0.053200
     52 H28A       -3.7900   -0.1620   -0.9640 hc        1 O29      0.053200
     53 H29        -5.0680   -2.2200   -1.5950 hc        1 O29      0.048700
     54 H29A       -5.1970   -2.6840    0.1490 hc        1 O29      0.048700
     55 H30         2.0750   -0.3560   -2.3780 h1        1 O29      0.070200
     56 H30A        3.8800   -0.2740   -2.6680 h1        1 O29      0.070200
     57 H31         4.2000   -2.1210   -0.9230 h1        1 O29      0.038700
     58 H31A        2.3900   -2.2410   -0.7520 h1        1 O29      0.038700
     59 H33         3.0100   -4.7180   -1.4450 h1        1 O29      0.033700
     60 H33A        3.7280   -4.8930   -3.1140 h1        1 O29      0.033700
     61 H33B        4.7160   -4.1580   -1.7730 h1        1 O29      0.033700
     62 H34         1.7600   -1.9460   -3.7370 h1        1 O29      0.033700
     63 H34A        2.0520   -3.6930   -4.1550 h1        1 O29      0.033700
     64 H34B        1.1130   -3.2630   -2.6510 h1        1 O29      0.033700
@<TRIPOS>BOND
     1    1    2 2   
     2    2    3 1   
     3    2    4 1   
     4    3   30 1   
     5    3   35 1   
     6    4    5 1   
     7    4   12 2   
     8    5    6 1   
     9    5    7 2   
    10    6   10 1   
    11    6   36 1   
    12    6   37 1   
    13    7    8 1   
    14    7   11 1   
    15    8    9 1   
    16    8   38 1   
    17    8   39 1   
    18    9   10 1   
    19    9   40 1   
    20    9   41 1   
    21   10   42 1   
    22   10   43 1   
    23   11   12 1   
    24   12   13 1   
    25   13   14 1   
    26   13   44 1   
    27   14   15 2   
    28   14   16 1   
    29   16   17 1   
    30   16   45 1   
    31   16   46 1   
    32   17   18 1   
    33   17   24 1   
    34   18   19 2   
    35   19   20 1   
    36   19   25 1   
    37   20   21 1   
    38   20   22 1   
    39   20   23 1   
    40   24   25 2   
    41   24   27 1   
    42   25   26 1   
    43   26   29 1   
    44   26   47 1   
    45   26   48 1   
    46   27   28 1   
    47   27   49 1   
    48   27   50 1   
    49   28   29 1   
    50   28   51 1   
    51   28   52 1   
    52   29   53 1   
    53   29   54 1   
    54   30   31 1   
    55   30   55 1   
    56   30   56 1   
    57   31   32 1   
    58   31   57 1   
    59   31   58 1   
    60   32   33 1   
    61   32   34 1   
    62   33   59 1   
    63   33   60 1   
    64   33   61 1   
    65   34   62 1   
    66   34   63 1   
    67   34   64 1   
@<TRIPOS>SUBSTRUCTURE
     1 O29         1 TEMP              0 ****  ****    0 ROOT
