@<TRIPOS>MOLECULE
O2C
   32    31     1     0     0
SMALL
bcc


@<TRIPOS>ATOM
      1 P           2.8140    2.5100    1.4530 p3        1 O2C      2.534000
      2 O1P         4.1670    2.2220    2.0510 o         1 O2C     -0.979500
      3 O2P         1.8340    2.8380    2.5590 os        1 O2C     -1.184000
      4 O5'         2.3100    1.2450    0.6620 os        1 O2C     -0.744000
      5 C5'         1.0650    1.3120    0.0130 c3        1 O2C      0.033000
      6 C4'         1.2410    0.9530   -1.4590 c3        1 O2C      0.002000
      7 O4'         1.1960   -0.6290   -1.6440 os        1 O2C     -0.288000
      8 C1'        -0.0380   -0.9480   -1.6650 c3        1 O2C      0.141000
      9 N1         -0.4980   -1.2760   -0.3180 n         1 O2C     -0.226000
     10 C6         -1.8680   -1.1160    0.0190 c2        1 O2C     -0.167000
     11 C2          0.4160   -1.9130    0.6290 c2        1 O2C      0.310000
     12 O2          1.5270   -2.2490    0.2670 o         1 O2C     -0.462000
     13 N3         -0.0290   -2.2060    1.9920 n2        1 O2C     -0.376000
     14 C4         -1.3940   -2.0510    2.3410 c1        1 O2C      0.141000
     15 N4         -1.8710   -2.5460    3.5890 n2        1 O2C     -0.323000
     16 C5         -2.3420   -1.4930    1.3600 c2        1 O2C     -0.436000
     17 C2'        -0.7640    0.3020   -2.1860 c3        1 O2C      0.010000
     18 O2'        -1.1880    0.1020   -3.4600 oh        1 O2C     -0.347000
     19 C3'         0.2700    1.4230   -2.1430 c3        1 O2C     -0.219000
     20 O3P         2.9200    3.6820    0.5110 o         1 O2C     -0.979500
     21 H5'1        0.4470    0.6830    0.4290 h1        1 O2C      0.083500
     22 H5'2        0.7070    2.2210    0.0870 h1        1 O2C      0.083500
     23 H4'         2.0880    1.3070   -1.7930 h1        1 O2C      0.082000
     24 H1'        -0.1840   -1.7030   -2.2690 h2        1 O2C      0.117000
     25 H6         -2.5070   -0.8400   -0.6620 h4        1 O2C      0.221000
     26 HN41       -2.7220   -2.3520    3.8630 hn        1 O2C      0.150500
     27 HN42       -1.3150   -3.0300    4.1320 hn        1 O2C      0.150500
     28 H5         -3.2830   -1.3850    1.5960 ha        1 O2C      0.110000
     29 H2'        -1.5210    0.5180   -1.6070 h1        1 O2C      0.158000
     30 HO'2       -1.9440    0.5580   -3.5970 ho        1 O2C      0.189000
     31 H3'1       -0.1050    2.2150   -1.7020 hc        1 O2C      0.108000
     32 H3'2        0.5690    1.6450   -3.0490 hc        1 O2C      0.108000
@<TRIPOS>BOND
     1    1    2 1   
     2    1    4 1   
     3    1   20 1   
     4    4    5 1   
     5    5    6 1   
     6    5   21 1   
     7    5   22 1   
     8    6    7 1   
     9    6   19 1   
    10    6   23 1   
    11    7    8 1   
    12    8    9 1   
    13    8   17 1   
    14    8   24 1   
    15    9   10 1   
    16    9   11 1   
    17   10   16 1   
    18   10   25 1   
    19   11   12 1   
    20   11   13 1   
    21   13   14 1   
    22   14   16 1   
    23   15   26 1   
    24   15   27 1   
    25   16   28 1   
    26   17   18 1   
    27   17   19 1   
    28   17   29 1   
    29   18   30 1   
    30   19   31 1   
    31   19   32 1   
@<TRIPOS>SUBSTRUCTURE
     1 O2C         1 TEMP              0 ****  ****    0 ROOT
