@<TRIPOS>MOLECULE
O2C
   32    33     1     0     0
SMALL
bcc


@<TRIPOS>ATOM
      1 P           0.8660    4.3570    3.3080 p5        1 O2C      1.425800
      2 O1P         1.5750    3.9550    4.5430 o         1 O2C     -0.842500
      3 O2P         0.1450    5.7630    3.7440 oh        1 O2C     -0.782400
      4 O5'        -0.4960    3.4380    3.2080 os        1 O2C     -0.586200
      5 C5'        -1.2620    3.5390    2.0440 c3        1 O2C      0.183400
      6 C4'        -1.3400    2.1670    1.3530 c3        1 O2C      0.124100
      7 O4'        -2.6870    1.9770    0.8860 os        1 O2C     -0.428600
      8 C1'        -2.6700    1.4190   -0.4500 c3        1 O2C      0.287500
      9 N1         -3.7890    1.8930   -1.2390 n         1 O2C     -0.331400
     10 C6         -3.6710    3.0350   -1.9700 c1        1 O2C     -0.100900
     11 C2         -5.0280    1.1540   -1.1950 c         1 O2C      0.752500
     12 O2         -5.0690    0.0510   -0.5820 o         1 O2C     -0.697100
     13 N3         -6.1580    1.6440   -1.8510 ne        1 O2C     -0.804100
     14 C4         -6.0250    2.7880   -2.5740 cf        1 O2C      0.666500
     15 N4         -7.1600    3.2660   -3.2920 nh        1 O2C     -0.884800
     16 C5         -4.7970    3.4950   -2.6730 cf        1 O2C     -0.587700
     17 C2'        -1.2680    1.7640   -1.0450 c3        1 O2C      0.105100
     18 O2'        -0.7540    0.6570   -1.7730 oh        1 O2C     -0.620800
     19 C3'        -0.3820    2.0140    0.1710 c3        1 O2C     -0.107400
     20 O3P         1.4550    4.4980    1.9620 o         1 O2C     -0.842500
     21 H5'1       -2.3080    3.8430    2.3350 h1        1 O2C      0.041200
     22 H5'2       -0.8240    4.3110    1.3540 h1        1 O2C      0.041200
     23 H4'        -1.1550    1.3640    2.1190 h1        1 O2C      0.047700
     24 H1'        -2.7760    0.2980   -0.3270 h2        1 O2C      0.069700
     25 H6          0.0480    5.8230    4.6860 ho        1 O2C      0.417000
     26 HN41       -7.1810    4.2640   -3.2840 hn        1 O2C      0.355800
     27 HN42       -8.0270    2.8890   -2.9690 hn        1 O2C      0.355800
     28 H5         -4.7010    4.3990   -3.2790 ha        1 O2C      0.110000
     29 H2'        -1.3250    2.6680   -1.7120 h1        1 O2C      0.099700
     30 HO'2       -1.3870    0.4940   -2.4820 ho        1 O2C      0.397000
     31 H3'1        0.3100    1.1510    0.3340 hc        1 O2C      0.070200
     32 H3'2        0.2430    2.9330    0.0360 hc        1 O2C      0.070200
@<TRIPOS>BOND
     1    1    2 1   
     2    1    3 1   
     3    1    4 1   
     4    1   20 1   
     5    3   25 1   
     6    4    5 1   
     7    5    6 1   
     8    5   21 1   
     9    5   22 1   
    10    6    7 1   
    11    6   19 1   
    12    6   23 1   
    13    7    8 1   
    14    8    9 1   
    15    8   17 1   
    16    8   24 1   
    17    9   10 2   
    18    9   11 1   
    19   10   16 2   
    20   11   12 2   
    21   11   13 1   
    22   13   14 2   
    23   14   15 1   
    24   14   16 1   
    25   15   26 1   
    26   15   27 1   
    27   16   28 1   
    28   17   18 1   
    29   17   19 1   
    30   17   29 1   
    31   18   30 1   
    32   19   31 1   
    33   19   32 1   
@<TRIPOS>SUBSTRUCTURE
     1 O2C         1 TEMP              0 ****  ****    0 ROOT
