@<TRIPOS>MOLECULE
O2G
   41    39     1     0     0
SMALL
bcc


@<TRIPOS>ATOM
      1 P          -0.7940    3.6650    3.8810 p3        1 O2G      2.517000
      2 OP1        -1.9840    2.9760    4.4270 o         1 O2G     -1.230000
      3 OP2        -1.1960    4.5000    2.7450 o         1 O2G     -1.230000
      4 O5'         0.2510    2.6070    3.4060 os        1 O2G     -0.739000
      5 C5'        -0.2010    1.5090    2.6580 c3        1 O2G      0.052000
      6 C4'         0.2640    0.1700    3.3540 c3        1 O2G     -0.048000
      7 O4'        -0.6390   -1.0740    2.8390 os        1 O2G     -0.294000
      8 C3'         1.4490   -0.0910    3.0250 c3        1 O2G      0.013000
      9 O3'         2.1670   -0.8250    4.1530 oh        1 O2G     -0.393000
     10 C2'         1.3250   -1.0250    1.7550 c3        1 O2G     -0.197000
     11 C1'        -0.1410   -1.4330    1.6930 c3        1 O2G      0.162000
     12 N9         -0.8290   -0.7230    0.5900 n3        1 O2G     -0.145000
     13 C8         -2.1260   -0.8670    1.0610 c1        1 O2G     -0.016000
     14 N7         -2.9530   -0.9380   -0.0020 n2        1 O2G     -0.114000
     15 C5         -2.1870   -0.8410   -1.1400 c1        1 O2G     -0.203000
     16 C6         -2.5340   -0.9250   -2.6000 c1        1 O2G      0.384000
     17 O6         -3.6440   -0.9830   -2.9290 o         1 O2G     -0.373000
     18 N1         -1.5140   -0.8190   -3.5760 n3        1 O2G     -0.324000
     19 C2         -0.1530   -0.6310   -3.1690 c2        1 O2G      0.128000
     20 N2          0.8940   -0.5270   -4.1660 n3        1 O2G     -0.219000
     21 N3          0.1770   -0.5480   -1.7670 n1        1 O2G     -0.175000
     22 C4         -0.8720   -0.7080   -0.7550 c1        1 O2G     -0.029000
     23 CM1         1.7910   -1.6680   -4.4150 c3        1 O2G     -0.119000
     24 CM2         1.0460    0.6730   -4.9110 c3        1 O2G     -0.119000
     25 H5'        -1.1630    1.5290    2.6070 h1        1 O2G      0.055000
     26 H5'A        0.1800    1.5550    1.7430 h1        1 O2G      0.055000
     27 H4'         0.2000    0.2510    4.2870 h1        1 O2G      0.082000
     28 H3'         1.9340    0.7460    2.7920 h1        1 O2G      0.196000
     29 HO3'        3.0070   -0.5290    4.2140 ho        1 O2G      0.284000
     30 H2'         1.9160   -1.8470    1.8600 hc        1 O2G      0.090000
     31 H2'A        1.5690   -0.5380    0.9610 hc        1 O2G      0.090000
     32 H1'        -0.2160   -2.3770    1.5790 h2        1 O2G      0.105000
     33 H8         -2.4020   -0.9260    2.0320 DU        1 O2G      0.311000
     34 HN1        -1.7130   -0.9810   -4.4820 hn        1 O2G      0.237000
     35 HM1         2.7680   -1.3380   -4.4270 h1        1 O2G      0.078167
     36 HM1A        1.6780   -2.3410   -3.6950 h1        1 O2G      0.078167
     37 HM1B        1.5690   -2.0780   -5.2890 h1        1 O2G      0.078167
     38 HM2         1.8150    1.2230   -4.5200 h1        1 O2G      0.078167
     39 HM2A        0.1890    1.2110   -4.8620 h1        1 O2G      0.078167
     40 HM2B        1.2530    0.4450   -5.8970 h1        1 O2G      0.078167
     41 OP3        -0.1840    4.5200    4.9420 os        1 O2G     -1.267000
@<TRIPOS>BOND
     1    1    2 1   
     2    1    3 1   
     3    1    4 1   
     4    4    5 1   
     5    5    6 1   
     6    5   25 1   
     7    5   26 1   
     8    6    7 1   
     9    6    8 1   
    10    6   27 1   
    11    7   11 1   
    12    8    9 1   
    13    8   10 1   
    14    8   28 1   
    15    9   29 1   
    16   10   11 1   
    17   10   30 1   
    18   10   31 1   
    19   11   12 1   
    20   11   32 1   
    21   12   13 1   
    22   12   22 1   
    23   13   14 1   
    24   14   15 1   
    25   15   22 1   
    26   16   17 1   
    27   16   18 1   
    28   18   19 1   
    29   18   34 1   
    30   19   20 1   
    31   19   21 1   
    32   20   23 1   
    33   20   24 1   
    34   23   35 1   
    35   23   36 1   
    36   23   37 1   
    37   24   38 1   
    38   24   39 1   
    39   24   40 1   
@<TRIPOS>SUBSTRUCTURE
     1 O2G         1 TEMP              0 ****  ****    0 ROOT
