@<TRIPOS>MOLECULE
O2G
   41    43     1     0     0
SMALL
bcc


@<TRIPOS>ATOM
      1 P           5.0620    0.1560    1.1110 p5        1 O2G      1.331900
      2 OP1         6.4850    0.2430    0.6560 o         1 O2G     -0.929833
      3 OP2         4.3400    1.4650    1.3630 o         1 O2G     -0.929833
      4 O5'         4.1960   -0.3170   -0.3330 os        1 O2G     -0.553200
      5 C5'         2.8550   -0.4860   -0.1370 c3        1 O2G      0.229400
      6 C4'         2.0710    0.7460   -0.6510 c3        1 O2G      0.053100
      7 O4'         0.8390    0.3160   -1.2930 os        1 O2G     -0.433600
      8 C3'         1.7000    1.7540    0.4550 c3        1 O2G      0.158100
      9 O3'         2.3430    2.9920    0.2530 oh        1 O2G     -0.673800
     10 C2'         0.1840    1.9660    0.3230 c3        1 O2G     -0.129400
     11 C1'        -0.2930    0.8680   -0.6490 c3        1 O2G      0.251800
     12 N9         -1.0560   -0.2070   -0.0050 na        1 O2G     -0.179900
     13 C8         -0.5610   -1.3860    0.5840 cc        1 O2G      0.454400
     14 N7         -1.5380   -2.2060    1.0420 nd        1 O2G     -0.633000
     15 C5         -2.7270   -1.5460    0.7440 cd        1 O2G      0.205800
     16 C6         -4.1050   -1.9190    0.9870 c         1 O2G      0.639000
     17 O6         -4.5500   -2.9470    1.5300 o         1 O2G     -0.643500
     18 N1         -5.0520   -0.9670    0.5320 n         1 O2G     -0.484400
     19 C2         -4.6750    0.2300   -0.1030 cd        1 O2G      0.588800
     20 N2         -5.7970    1.0860   -0.5020 nh        1 O2G     -0.687600
     21 N3         -3.4160    0.6060   -0.3470 nc        1 O2G     -0.602100
     22 C4         -2.4460   -0.2900    0.0820 cc        1 O2G      0.037800
     23 CM1        -5.8090    2.3290    0.2430 c3        1 O2G      0.155100
     24 CM2        -5.8420    1.2780   -1.9380 c3        1 O2G      0.155100
     25 H5'         2.4910   -1.3760   -0.7340 h1        1 O2G     -0.004300
     26 H5'A        2.6230   -0.6600    0.9530 h1        1 O2G     -0.004300
     27 H4'         2.6600    1.2510   -1.4630 h1        1 O2G      0.082700
     28 H3'         1.9750    1.3510    1.4690 h1        1 O2G      0.106700
     29 HO3'        3.2710    2.8500    0.5550 ho        1 O2G      0.502000
     30 H2'        -0.3150    1.9140    1.3180 hc        1 O2G      0.054200
     31 H2'A       -0.0310    2.9660   -0.1280 hc        1 O2G      0.054200
     32 H1'        -0.9620    1.2800   -1.4620 h2        1 O2G      0.066700
     33 H8          0.5290   -1.5710    0.6380 h5        1 O2G      0.118100
     34 HN1        -6.0170   -1.1650    0.6740 hn        1 O2G      0.327500
     35 HM1        -4.9710    3.0250   -0.0310 h1        1 O2G      0.041367
     36 HM1A       -6.7850    2.8410    0.0350 h1        1 O2G      0.041367
     37 HM1B       -5.7410    2.1000    1.3390 h1        1 O2G      0.041367
     38 HM2        -5.7850    0.2800   -2.4440 h1        1 O2G      0.041367
     39 HM2A       -6.8250    1.7590   -2.1840 h1        1 O2G      0.041367
     40 HM2B       -5.0140    1.9280   -2.3310 h1        1 O2G      0.041367
     41 OP3         4.6780   -0.9460    2.0560 o         1 O2G     -0.929833
@<TRIPOS>BOND
     1    1    2 1   
     2    1    3 1   
     3    1    4 1   
     4    1   41 1   
     5    4    5 1   
     6    5    6 1   
     7    5   25 1   
     8    5   26 1   
     9    6    7 1   
    10    6    8 1   
    11    6   27 1   
    12    7   11 1   
    13    8    9 1   
    14    8   10 1   
    15    8   28 1   
    16    9   29 1   
    17   10   11 1   
    18   10   30 1   
    19   10   31 1   
    20   11   12 1   
    21   11   32 1   
    22   12   13 1   
    23   12   22 1   
    24   13   14 2   
    25   13   33 1   
    26   14   15 1   
    27   15   16 1   
    28   15   22 2   
    29   16   17 2   
    30   16   18 1   
    31   18   19 1   
    32   18   34 1   
    33   19   20 1   
    34   19   21 2   
    35   20   23 1   
    36   20   24 1   
    37   21   22 1   
    38   23   35 1   
    39   23   36 1   
    40   23   37 1   
    41   24   38 1   
    42   24   39 1   
    43   24   40 1   
@<TRIPOS>SUBSTRUCTURE
     1 O2G         1 TEMP              0 ****  ****    0 ROOT
