@<TRIPOS>MOLECULE
O2N
   79    78     1     0     0
SMALL
bcc


@<TRIPOS>ATOM
      1 C1         -0.5500    1.8750   -1.6260 c1        1 O2N      0.313000
      2 C2          1.8200    1.8290   -0.8720 c1        1 O2N      0.213000
      3 C3         -0.2330    0.6660   -1.1870 c2        1 O2N     -0.485000
      4 C4          1.9130    1.2920    0.3440 c2        1 O2N     -0.465000
      5 C5          5.3030   -0.7260    7.9130 ca        1 O2N     -0.130000
      6 C6         -2.9440    0.4150    6.7020 cu        1 O2N     -0.087000
      7 C7         -2.8770    0.8460    4.2710 c3        1 O2N     -0.115000
      8 C8         -3.4230   -2.7740    6.9440 ca        1 O2N     -0.102000
      9 C9         -2.6110   -2.4820    4.6750 ca        1 O2N     -0.102000
     10 C10         6.0080   -0.1060    6.8740 ca        1 O2N     -0.035000
     11 C11        -4.0710    1.0720    6.9580 c2        1 O2N     -0.118000
     12 C12        -3.9020    1.8870    4.6040 c2        1 O2N     -0.087000
     13 C13        -3.9920   -3.9960    6.5950 ca        1 O2N     -0.133500
     14 C14        -3.1710   -3.7070    4.3150 ca        1 O2N     -0.133500
     15 C15        -0.2300    0.2120    0.2020 c2        1 O2N     -0.163000
     16 C16         3.1110   -0.2500    6.9110 ca        1 O2N     -0.125000
     17 C17        -2.0810    0.5150    5.5020 cx        1 O2N     -0.170000
     18 C18        -2.7380   -2.0110    5.9880 ca        1 O2N     -0.086000
     19 C19         0.8650    0.5000    0.9570 c2        1 O2N      0.057000
     20 C20         3.9000   -0.8030    7.9520 ca        1 O2N      0.022000
     21 C21         5.2310    0.4310    5.8640 ca        1 O2N     -0.048000
     22 C22         3.8190    0.3560    5.8820 ca        1 O2N     -0.007000
     23 C23        -4.4020    1.9850    5.8610 c2        1 O2N     -0.046000
     24 C24        -3.8570   -4.4490    5.2790 ca        1 O2N     -0.056000
     25 C26         4.7580   -2.7420   10.7970 c1        1 O2N     -0.176000
     26 C27        -1.4170   -0.5280    0.6920 c2        1 O2N      0.367000
     27 C29         4.4550    1.4500    4.0130 c1        1 O2N      0.186000
     28 C32         1.0520    0.0950    2.3940 c3        1 O2N     -0.057000
     29 C33         3.2110   -1.4590    9.1040 c3        1 O2N     -0.030000
     30 C34         1.9270   -2.1570    2.0700 c3        1 O2N     -0.134000
     31 C35        -2.1060   -0.7410    6.3810 cx        1 O2N      0.007000
     32 N36        -2.1130   -1.3000   -0.1990 nt        1 O2N     -0.416000
     33 N37         0.9680   -1.3060    2.7230 n7        1 O2N     -0.311000
     34 O38         0.9280   -0.0760    5.7890 oh        1 O2N     -0.304000
     35 O39        -1.8050   -0.4660    1.8860 o         1 O2N     -0.440000
     36 O40         0.9120   -0.4640    7.9130 o         1 O2N     -0.325000
     37 O41         5.5810    1.1210    4.6840 os        1 O2N     -0.134000
     38 O42         3.3730    0.9990    4.7130 os        1 O2N     -0.188000
     39 O43        -5.3170    3.0000    6.2610 os        1 O2N      0.029000
     40 O44        -4.5070   -5.6680    4.9480 os        1 O2N     -0.037000
     41 H1         -0.5220   -2.1690   -2.8540 ha        1 O2N      0.003500
     42 H2         -0.9230   -1.7380   -3.1890 ha        1 O2N      0.003500
     43 H3          0.1040   -0.0920   -1.9330 ha        1 O2N      0.214000
     44 H4          2.8420    1.4560    0.9290 ha        1 O2N      0.204000
     45 H5          5.8810   -1.1700    8.7430 ha        1 O2N      0.173000
     46 H10         7.1060   -0.0500    6.8650 ha        1 O2N      0.178000
     47 H6         -1.1080    1.0540    5.5470 hc        1 O2N      0.169000
     48 H11        -4.7530    0.9410    7.8030 ha        1 O2N      0.179000
     49 H7         -3.3970   -0.0610    3.8470 hc        1 O2N      0.150500
     50 H12        -2.1970    1.2220    3.4560 hc        1 O2N      0.150500
     51 H8         -3.5070   -2.4080    7.9790 ha        1 O2N      0.153500
     52 H13        -4.5380   -4.6030    7.3330 ha        1 O2N      0.153000
     53 H9         -2.0640   -1.8850    3.9230 ha        1 O2N      0.153500
     54 H14        -3.0800   -4.0830    3.2850 ha        1 O2N      0.153000
     55 H35        -1.1550   -0.8950    6.9590 hc        1 O2N      0.197000
     56 H321        2.0600    0.4660    2.7490 h1        1 O2N      0.113500
     57 H322        0.2520    0.6250    2.9960 h1        1 O2N      0.113500
     58 H331        2.6310   -0.6640    9.6650 hc        1 O2N      0.138000
     59 H332        2.4390   -2.1830    8.7060 hc        1 O2N      0.138000
     60 H251        1.8100   -2.1990    0.9520 h1        1 O2N      0.076333
     61 H252        5.3600   -3.2680   11.4950 ha        1 O2N      0.232000
     62 H26         1.8130   -3.1960    2.4790 h1        1 O2N      0.076333
     63 H341        1.4970   -0.0780    5.0030 ho        1 O2N      0.261000
     64 H342        2.9640   -1.7920    2.2960 h1        1 O2N      0.076333
     65 H36        -1.8360   -1.3660   -1.1470 hn        1 O2N      0.234500
     66 H291        4.8340   -0.2450    2.2650 ha        1 O2N      0.003500
     67 H292        4.2800    0.0480    2.0060 ha        1 O2N      0.003500
     68 H301       -4.2020    2.5550    3.7830 ha        1 O2N      0.143000
     69 H302       -6.3160    3.1430    4.4100 h4        1 O2N      0.205500
     70 H303       -6.8490    4.2600    5.9150 h4        1 O2N      0.205500
     71 H311       -3.0160   -6.3860    3.6880 ha        1 O2N      0.031000
     72 H312       -5.1030   -5.9330    2.1130 ha        1 O2N      0.003500
     73 H313       -4.6470   -5.4290    2.1030 ha        1 O2N      0.003500
     74 C25         4.0760   -2.1490   10.0120 c1        1 O2N     -0.193000
     75 C30        -6.2020    3.4740    5.4600 c2        1 O2N      0.181000
     76 C31        -4.0130   -6.5400    4.1550 c1        1 O2N      0.001000
     77 H362       -2.9180   -1.7920    0.1010 hn        1 O2N      0.234500
     78 H371        0.0320   -1.6470    2.5940 hn        1 O2N      0.174000
     79 C28         1.6420   -0.2830    6.9320 c2        1 O2N      0.362000
@<TRIPOS>BOND
     1    1    3 1   
     2    2    4 1   
     3    3   15 1   
     4    3   43 1   
     5    4   19 1   
     6    4   44 1   
     7    5   10 1   
     8    5   20 1   
     9    5   45 1   
    10    6   11 1   
    11    6   17 1   
    12    6   31 1   
    13    7   12 1   
    14    7   17 1   
    15    7   49 1   
    16    7   50 1   
    17    8   13 1   
    18    8   18 1   
    19    8   51 1   
    20    9   14 1   
    21    9   18 1   
    22    9   53 1   
    23   10   21 1   
    24   10   46 1   
    25   11   23 1   
    26   11   48 1   
    27   12   23 1   
    28   12   68 1   
    29   13   24 1   
    30   13   52 1   
    31   14   24 1   
    32   14   54 1   
    33   15   19 1   
    34   15   26 1   
    35   16   20 1   
    36   16   22 1   
    37   16   79 1   
    38   17   31 1   
    39   17   47 1   
    40   18   31 1   
    41   19   28 1   
    42   20   29 1   
    43   21   22 1   
    44   21   37 1   
    45   22   38 1   
    46   23   39 1   
    47   24   40 1   
    48   25   61 1   
    49   25   74 1   
    50   26   32 1   
    51   26   35 1   
    52   27   37 1   
    53   27   38 1   
    54   28   33 1   
    55   28   56 1   
    56   28   57 1   
    57   29   58 1   
    58   29   59 1   
    59   29   74 1   
    60   30   33 1   
    61   30   60 1   
    62   30   62 1   
    63   30   64 1   
    64   31   55 1   
    65   32   65 1   
    66   32   77 1   
    67   33   78 1   
    68   34   63 1   
    69   34   79 1   
    70   36   79 1   
    71   39   75 1   
    72   40   76 1   
    73   41   42 1   
    74   66   67 1   
    75   69   75 1   
    76   70   75 1   
    77   71   76 1   
    78   72   73 1   
@<TRIPOS>SUBSTRUCTURE
     1 O2N         1 TEMP              0 ****  ****    0 ROOT
