@<TRIPOS>MOLECULE
O2N
   79    75     1     0     0
SMALL
bcc


@<TRIPOS>ATOM
      1 C1          2.1950    0.9900   -3.2480 c1        1 O2N      0.344000
      2 C2          3.8550   -0.3830   -2.0040 c1        1 O2N      0.245000
      3 C3          1.5860   -0.0230   -2.6460 c2        1 O2N     -0.507000
      4 C4          3.4470   -0.5900   -0.7500 c2        1 O2N     -0.476000
      5 C5          4.1990   -0.7610    7.8550 ca        1 O2N     -0.120000
      6 C6         -3.0800    1.4800    6.8030 c1        1 O2N      0.007000
      7 C7         -5.8680    2.4850    4.1600 c2        1 O2N     -0.099000
      8 C8         -1.3320   -2.6580    6.2220 ca        1 O2N      0.005000
      9 C9         -3.2890   -1.5670    7.2060 ca        1 O2N      0.005000
     10 C10         3.7120    0.4450    8.3760 ca        1 O2N     -0.069000
     11 C11        -4.1440    1.9710    7.3730 c2        1 O2N     -0.035000
     12 C12        -5.6250    2.3730    5.4280 c1        1 O2N     -0.190000
     13 C13        -1.8150   -3.8900    6.6310 ca        1 O2N     -0.187000
     14 C14        -3.7760   -2.7960    7.6100 ca        1 O2N     -0.187000
     15 C15         1.1410   -0.1190   -1.2610 c2        1 O2N     -0.111000
     16 C16         2.6820   -0.7240    5.9230 ca        1 O2N     -0.056000
     17 C17        -1.9500    1.0760    6.2470 c2        1 O2N     -0.194000
     18 C18        -2.0570   -1.4620    6.5050 ca        1 O2N     -0.194000
     19 C19         2.0750   -0.4230   -0.3200 c2        1 O2N      0.030000
     20 C20         3.7130   -1.3360    6.6680 ca        1 O2N     -0.020000
     21 C21         2.7000    1.0380    7.6440 ca        1 O2N     -0.047000
     22 C22         2.1960    0.4620    6.4530 ca        1 O2N     -0.032000
     23 C23        -5.3980    2.2820    6.7150 c2        1 O2N     -0.044000
     24 C24        -3.0310   -3.9550    7.3230 ca        1 O2N      0.064000
     25 C26         3.6840   -4.6860    7.6840 c1        1 O2N     -0.209000
     26 C27        -0.3010    0.0870   -0.9620 c2        1 O2N      0.360000
     27 C29         1.0710    2.3720    6.8620 c1        1 O2N      0.137000
     28 C32         1.7900   -0.5240    1.1470 c3        1 O2N     -0.097000
     29 C33         4.3380   -2.6140    6.2020 c3        1 O2N     -0.036000
     30 C34         1.9590   -2.9850    1.2550 c3        1 O2N     -0.192000
     31 C35        -1.4890   -0.2500    6.0740 c2        1 O2N      0.199000
     32 N36        -1.0460    0.8470   -1.8130 n         1 O2N     -0.395000
     33 N37         1.1370   -1.7980    1.5550 n4        1 O2N     -0.040000
     34 O38         0.8950   -1.3870    4.4470 o         1 O2N     -0.596500
     35 O39        -0.8360   -0.4220    0.0570 o         1 O2N     -0.440000
     36 O40         2.9380   -1.5390    3.6770 o         1 O2N     -0.596500
     37 O41         1.9720    2.2280    7.8570 os        1 O2N     -0.132000
     38 O42         1.1800    1.3290    5.9980 os        1 O2N     -0.178000
     39 O43        -6.4340    2.4890    7.6980 os        1 O2N     -0.023000
     40 O44        -3.6100   -5.1810    7.7240 os        1 O2N     -0.038000
     41 H1          3.2250   -2.2810   -3.5270 ha        1 O2N      0.003375
     42 H2          3.1480   -2.8050   -3.9510 ha        1 O2N      0.003375
     43 H3          1.4060   -0.9410   -3.2590 ha        1 O2N      0.227000
     44 H4          4.1950   -0.8890    0.0120 ha        1 O2N      0.205000
     45 H5          5.0050   -1.2810    8.4000 ha        1 O2N      0.158000
     46 H10         4.1110    0.8880    9.2980 ha        1 O2N      0.171000
     47 H6         -1.2420    1.8630    5.8800 ha        1 O2N      0.207000
     48 H11        -4.1320    2.1710    8.4700 ha        1 O2N      0.212000
     49 H7         -6.2050    1.6330    3.5470 ha        1 O2N      0.156000
     50 H12        -5.7520    3.4410    3.6220 ha        1 O2N      0.156000
     51 H8         -0.3700   -2.5850    5.6670 ha        1 O2N      0.185500
     52 H13        -1.2520   -4.8110    6.4050 ha        1 O2N      0.175000
     53 H9         -3.8680   -0.6560    7.4340 ha        1 O2N      0.185500
     54 H14        -4.7340   -2.8870    8.1490 ha        1 O2N      0.175000
     55 H35        -0.5040   -0.3290    5.5230 ha        1 O2N      0.237000
     56 H321        2.7470   -0.4340    1.7500 hx        1 O2N      0.168000
     57 H322        1.0910    0.3110    1.4550 hx        1 O2N      0.168000
     58 H331        4.0520   -2.8190    5.1280 hc        1 O2N      0.133000
     59 H332        5.4610   -2.4930    6.2210 hc        1 O2N      0.133000
     60 H251        1.3570   -3.9060    1.4680 hx        1 O2N      0.135000
     61 H252        2.2730   -2.9740    0.1790 hx        1 O2N      0.135000
     62 H26         3.4440   -5.5320    8.2770 ha        1 O2N      0.225000
     63 H341        0.9970   -1.7460    2.6010 hn        1 O2N      0.281000
     64 H342        2.8690   -2.9670    1.9200 hx        1 O2N      0.135000
     65 H36        -0.6500    1.2440   -2.6280 hn        1 O2N      0.243500
     66 H291       -0.0580    1.2290    3.8230 ha        1 O2N      0.003375
     67 H292        0.4450    0.8030    3.6630 ha        1 O2N      0.003375
     68 H301       -7.9190    3.2710    6.4480 ha        1 O2N      0.065000
     69 H302       -7.1460    5.3080    7.6700 ha        1 O2N      0.003375
     70 H303       -7.4170    5.1910    8.2810 ha        1 O2N      0.003375
     71 H311       -1.8590   -6.3060    7.9450 ha        1 O2N      0.051000
     72 H312       -3.1490   -7.4190    5.9200 ha        1 O2N      0.003375
     73 H313       -2.6720   -6.9640    5.7540 ha        1 O2N      0.003375
     74 C25         3.9730   -3.7350    7.0190 c1        1 O2N     -0.171000
     75 C30        -7.5820    2.9660    7.4570 c1        1 O2N      0.011000
     76 C31        -2.9670   -6.2540    7.9860 c1        1 O2N      0.049000
     77 H362       -2.0110    0.9820   -1.6300 hn        1 O2N      0.243500
     78 H371        0.2230   -1.8670    1.0900 hn        1 O2N      0.281000
     79 C28         2.1570   -1.2520    4.6290 c2        1 O2N      0.383000
@<TRIPOS>BOND
     1    1    3 1   
     2    2    4 1   
     3    3   15 1   
     4    3   43 1   
     5    4   19 1   
     6    4   44 1   
     7    5   10 1   
     8    5   20 1   
     9    5   45 1   
    10    6   11 1   
    11    6   17 1   
    12    7   12 1   
    13    7   49 1   
    14    7   50 1   
    15    8   13 1   
    16    8   18 1   
    17    8   51 1   
    18    9   14 1   
    19    9   18 1   
    20    9   53 1   
    21   10   21 1   
    22   10   46 1   
    23   11   23 1   
    24   11   48 1   
    25   12   23 1   
    26   13   24 1   
    27   13   52 1   
    28   14   24 1   
    29   14   54 1   
    30   15   19 1   
    31   15   26 1   
    32   16   20 1   
    33   16   22 1   
    34   16   79 1   
    35   17   31 1   
    36   17   47 1   
    37   18   31 1   
    38   19   28 1   
    39   20   29 1   
    40   21   22 1   
    41   21   37 1   
    42   22   38 1   
    43   23   39 1   
    44   24   40 1   
    45   25   62 1   
    46   25   74 1   
    47   26   32 1   
    48   26   35 1   
    49   27   37 1   
    50   27   38 1   
    51   28   33 1   
    52   28   56 1   
    53   28   57 1   
    54   29   58 1   
    55   29   59 1   
    56   29   74 1   
    57   30   33 1   
    58   30   60 1   
    59   30   61 1   
    60   30   64 1   
    61   31   55 1   
    62   32   65 1   
    63   32   77 1   
    64   33   63 1   
    65   33   78 1   
    66   34   79 1   
    67   36   79 1   
    68   39   75 1   
    69   40   76 1   
    70   41   42 1   
    71   66   67 1   
    72   68   75 1   
    73   69   70 1   
    74   71   76 1   
    75   72   73 1   
@<TRIPOS>SUBSTRUCTURE
     1 O2N         1 TEMP              0 ****  ****    0 ROOT
