@<TRIPOS>MOLECULE
O2N
   79    75     1     0     0
SMALL
bcc


@<TRIPOS>ATOM
      1 C1          1.2530    5.4150    0.1790 c1        1 O2N      0.348000
      2 C2          3.1760    3.9160   -0.1340 c1        1 O2N      0.251000
      3 C3          0.8080    4.1660    0.1530 c2        1 O2N     -0.513000
      4 C4          3.1520    2.9130    0.7470 c2        1 O2N     -0.478000
      5 C5          4.6240   -4.1860    5.8450 ca        1 O2N     -0.125000
      6 C6         -3.6830   -0.1080    4.3440 c1        1 O2N     -0.023000
      7 C7         -5.0730   -3.2950    2.4700 c2        1 O2N     -0.098000
      8 C8         -1.7710   -1.7350    8.0780 ca        1 O2N      0.012000
      9 C9         -3.8450   -0.6550    7.3550 ca        1 O2N      0.012000
     10 C10         5.6170   -3.5300    5.1040 ca        1 O2N     -0.062000
     11 C11        -4.9190    0.0670    3.9670 c2        1 O2N     -0.040000
     12 C12        -5.3870   -2.0980    2.8530 c1        1 O2N     -0.196000
     13 C13        -2.3450   -2.0050    9.3110 ca        1 O2N     -0.191000
     14 C14        -4.4170   -0.9210    8.5820 ca        1 O2N     -0.191000
     15 C15         0.8020    3.1730    1.2180 c2        1 O2N     -0.106000
     16 C16         2.8900   -2.5300    5.2860 ca        1 O2N     -0.074000
     17 C17        -2.4090   -0.2530    4.6520 c2        1 O2N     -0.179000
     18 C18        -2.5120   -1.0610    7.0620 ca        1 O2N     -0.198000
     19 C19         1.9720    2.5340    1.4940 c2        1 O2N      0.026000
     20 C20         3.3050   -3.7170    5.9420 ca        1 O2N     -0.006000
     21 C21         5.2080   -2.3790    4.4620 ca        1 O2N     -0.059000
     22 C22         3.8780   -1.8980    4.5510 ca        1 O2N     -0.018000
     23 C23        -5.7250   -0.8910    3.2340 c2        1 O2N     -0.040000
     24 C24        -3.6610   -1.6000    9.5590 ca        1 O2N      0.069000
     25 C26         3.0000   -6.8800    7.5200 c1        1 O2N     -0.199000
     26 C27        -0.4800    2.8940    1.9160 c2        1 O2N      0.362000
     27 C29         5.0700   -0.5100    3.2240 c1        1 O2N      0.122000
     28 C32         2.1340    1.5120    2.5760 c3        1 O2N     -0.093000
     29 C33         2.3060   -4.4580    6.7700 c3        1 O2N     -0.024000
     30 C34         2.2870   -0.4080    1.0320 c3        1 O2N     -0.191000
     31 C35        -1.8710   -0.8300    5.8340 c2        1 O2N      0.202000
     32 N36        -1.4140    3.8850    1.9840 n         1 O2N     -0.393000
     33 N37         1.6260    0.1610    2.2180 n4        1 O2N     -0.044000
     34 O38         0.9650   -1.3300    4.4420 o         1 O2N     -0.595500
     35 O39        -0.7140    1.7740    2.4400 o         1 O2N     -0.448000
     36 O40         0.8280   -2.1750    6.4550 o         1 O2N     -0.595500
     37 O41         5.9120   -1.4790    3.6270 os        1 O2N     -0.121000
     38 O42         3.8420   -0.7250    3.7660 os        1 O2N     -0.209000
     39 O43        -7.0250   -0.3310    2.9590 os        1 O2N     -0.026000
     40 O44        -4.3360   -1.8580   10.7740 os        1 O2N     -0.038000
     41 H1         -0.5700    2.8410   -2.5240 ha        1 O2N      0.003750
     42 H2         -0.3020    3.3070   -2.9370 ha        1 O2N      0.003750
     43 H3          0.3910    3.8060   -0.8230 ha        1 O2N      0.230000
     44 H4          4.0900    2.3520    0.9360 ha        1 O2N      0.206000
     45 H5          4.9010   -5.1130    6.3770 ha        1 O2N      0.165000
     46 H10         6.6460   -3.9080    5.0430 ha        1 O2N      0.171000
     47 H6         -1.6460    0.0710    3.9010 ha        1 O2N      0.205000
     48 H11        -5.4400    1.0190    4.2140 ha        1 O2N      0.199000
     49 H7         -5.2510   -4.1820    3.1010 ha        1 O2N      0.155000
     50 H12        -4.6100   -3.4980    1.4900 ha        1 O2N      0.155000
     51 H8         -0.7260   -2.0510    7.8670 ha        1 O2N      0.187500
     52 H13        -1.7640   -2.5390   10.0810 ha        1 O2N      0.175000
     53 H9         -4.4280   -0.1130    6.5920 ha        1 O2N      0.187500
     54 H14        -5.4490   -0.6140    8.8160 ha        1 O2N      0.175000
     55 H35        -0.7800   -1.1320    5.7540 ha        1 O2N      0.261000
     56 H321        3.2270    1.4000    2.8520 hx        1 O2N      0.161000
     57 H322        1.5610    1.8390    3.4950 hx        1 O2N      0.161000
     58 H331        2.0850   -3.8320    7.6870 hc        1 O2N      0.134000
     59 H332        1.3330   -4.5230    6.1990 hc        1 O2N      0.134000
     60 H251        3.2600   -7.8600    7.8320 ha        1 O2N      0.228000
     61 H252        2.1650    0.2780    0.1530 hx        1 O2N      0.131667
     62 H26         1.8290   -1.4070    0.8030 hx        1 O2N      0.131667
     63 H341        1.7950   -0.4740    3.0510 hn        1 O2N      0.291000
     64 H342        3.3830   -0.5400    1.2530 hx        1 O2N      0.131667
     65 H36        -1.2540    4.7700    1.5700 hn        1 O2N      0.243000
     66 H291        7.6050   -0.3530    2.3450 ha        1 O2N      0.003750
     67 H292        8.0530   -0.8220    2.5420 ha        1 O2N      0.003750
     68 H301       -7.8670   -1.9580    1.9520 ha        1 O2N      0.062000
     69 H302       -7.4170   -0.3540    0.0750 ha        1 O2N      0.003750
     70 H303       -7.9240    0.0830    0.1880 ha        1 O2N      0.003750
     71 H311       -2.6990   -2.3340   11.9940 ha        1 O2N      0.054000
     72 H312       -3.7130   -4.5410   11.5670 ha        1 O2N      0.003750
     73 H313       -4.2570   -4.5210   11.9740 ha        1 O2N      0.003750
     74 C25         2.7070   -5.7740    7.1690 c1        1 O2N     -0.183000
     75 C30        -7.9590   -0.9260    2.3420 c1        1 O2N      0.007000
     76 C31        -3.7940   -2.2090   11.8770 c1        1 O2N      0.049000
     77 H362       -2.2780    3.7160    2.4400 hn        1 O2N      0.243000
     78 H371        0.6080    0.2130    2.0740 hn        1 O2N      0.291000
     79 C28         1.5000   -1.9870    5.4000 c2        1 O2N      0.394000
@<TRIPOS>BOND
     1    1    3 1   
     2    2    4 1   
     3    3   15 1   
     4    3   43 1   
     5    4   19 1   
     6    4   44 1   
     7    5   10 1   
     8    5   20 1   
     9    5   45 1   
    10    6   11 1   
    11    6   17 1   
    12    7   12 1   
    13    7   49 1   
    14    7   50 1   
    15    8   13 1   
    16    8   18 1   
    17    8   51 1   
    18    9   14 1   
    19    9   18 1   
    20    9   53 1   
    21   10   21 1   
    22   10   46 1   
    23   11   23 1   
    24   11   48 1   
    25   12   23 1   
    26   13   24 1   
    27   13   52 1   
    28   14   24 1   
    29   14   54 1   
    30   15   19 1   
    31   15   26 1   
    32   16   20 1   
    33   16   22 1   
    34   16   79 1   
    35   17   31 1   
    36   17   47 1   
    37   18   31 1   
    38   19   28 1   
    39   20   29 1   
    40   21   22 1   
    41   21   37 1   
    42   22   38 1   
    43   23   39 1   
    44   24   40 1   
    45   25   60 1   
    46   25   74 1   
    47   26   32 1   
    48   26   35 1   
    49   27   37 1   
    50   27   38 1   
    51   28   33 1   
    52   28   56 1   
    53   28   57 1   
    54   29   58 1   
    55   29   59 1   
    56   29   74 1   
    57   30   33 1   
    58   30   61 1   
    59   30   62 1   
    60   30   64 1   
    61   31   55 1   
    62   32   65 1   
    63   32   77 1   
    64   33   63 1   
    65   33   78 1   
    66   34   79 1   
    67   36   79 1   
    68   39   75 1   
    69   40   76 1   
    70   41   42 1   
    71   66   67 1   
    72   68   75 1   
    73   69   70 1   
    74   71   76 1   
    75   72   73 1   
@<TRIPOS>SUBSTRUCTURE
     1 O2N         1 TEMP              0 ****  ****    0 ROOT
