@<TRIPOS>MOLECULE
O2N
   77    81     1     0     0
SMALL
bcc


@<TRIPOS>ATOM
      1 C1         -0.5470   -5.1100   -2.1140 ca        1 O2N     -0.150000
      2 C2         -1.7740   -4.4600   -2.2560 ca        1 O2N     -0.126000
      3 C3          0.4010   -4.6130   -1.2270 ca        1 O2N     -0.109000
      4 C4         -2.0570   -3.3260   -1.5010 ca        1 O2N     -0.116000
      5 C5         -2.4140    3.0000   -0.2550 ca        1 O2N     -0.149000
      6 C6          5.2610   -1.1470    0.4360 ca        1 O2N     -0.082000
      7 C7          3.7840    0.0080   -1.0850 ca        1 O2N     -0.082000
      8 C8          2.8300    0.0680    3.1480 ca        1 O2N     -0.082000
      9 C9          1.6360    1.0780    1.3080 ca        1 O2N     -0.082000
     10 C10        -3.2560    3.9630   -0.8360 ca        1 O2N     -0.145000
     11 C11         6.3590   -0.7870   -0.3350 ca        1 O2N     -0.181750
     12 C12         4.8730    0.3770   -1.8750 ca        1 O2N     -0.181750
     13 C13         2.4970    1.1380    3.9700 ca        1 O2N     -0.181750
     14 C14         1.2850    2.1580    2.1180 ca        1 O2N     -0.181750
     15 C15         0.1290   -3.4600   -0.4760 ca        1 O2N     -0.133600
     16 C16        -3.9850    1.1670   -0.7050 ca        1 O2N     -0.072600
     17 C17         3.9670   -0.7500    0.0730 ca        1 O2N     -0.117300
     18 C18         2.4060    0.0280    1.8130 ca        1 O2N     -0.117300
     19 C19        -1.1090   -2.8210   -0.5960 ca        1 O2N     -0.049300
     20 C20        -2.7590    1.6470   -0.1840 ca        1 O2N     -0.091300
     21 C21        -4.4510    3.4930   -1.3390 ca        1 O2N      0.037100
     22 C22        -4.8080    2.1220   -1.2750 ca        1 O2N      0.068100
     23 C23         6.1600   -0.0210   -1.4960 ca        1 O2N      0.116100
     24 C24         1.7180    2.1860    3.4480 ca        1 O2N      0.116100
     25 C26        -0.2250    1.0020   -2.0460 c2        1 O2N     -0.135200
     26 C27         1.2170   -2.9860    0.4340 c         1 O2N      0.685700
     27 C29        -6.5000    3.2560   -2.2960 c3        1 O2N      0.318200
     28 C32        -1.5190   -1.6630    0.2680 c3        1 O2N      0.186100
     29 C33        -1.8340    0.7140    0.5500 c3        1 O2N      0.215100
     30 C34        -1.0870   -0.1530   -1.6330 c3        1 O2N      0.169000
     31 C35         2.8020   -1.1580    0.9570 c3        1 O2N      0.200300
     32 N36         1.7130   -1.7200    0.1930 n         1 O2N     -0.554900
     33 N37        -1.1310   -0.3290   -0.1890 n3        1 O2N     -0.747600
     34 O38        -4.2150   -0.9920   -1.6890 o         1 O2N     -0.818300
     35 O39         1.7200   -3.7310    1.3030 o         1 O2N     -0.631100
     36 O40        -4.7060   -0.7770    0.4790 o         1 O2N     -0.818300
     37 O41        -5.4710    4.2130   -1.9610 os        1 O2N     -0.355900
     38 O42        -6.0680    1.9570   -1.8550 os        1 O2N     -0.311900
     39 O43         7.3140    0.2880   -2.1960 os        1 O2N     -0.335400
     40 O44         1.4480    3.2130    4.3350 os        1 O2N     -0.335400
     41 H1         -0.3290   -6.0140   -2.7000 ha        1 O2N      0.119000
     42 H2         -2.5240   -4.8450   -2.9630 ha        1 O2N      0.129000
     43 H3          1.3680   -5.1220   -1.0990 ha        1 O2N      0.134000
     44 H4         -3.0300   -2.7960   -1.6070 ha        1 O2N      0.215000
     45 H5         -1.4530    3.3360    0.1630 ha        1 O2N      0.115000
     46 H10        -2.9770    5.0200   -0.8850 ha        1 O2N      0.132000
     47 H6          5.4130   -1.7550    1.3420 ha        1 O2N      0.141750
     48 H11         7.3770   -1.0930   -0.0550 ha        1 O2N      0.138250
     49 H7          2.7720    0.3260   -1.3920 ha        1 O2N      0.141750
     50 H12         4.7060    0.9720   -2.7830 ha        1 O2N      0.138250
     51 H8          3.4260   -0.7620    3.5580 ha        1 O2N      0.141750
     52 H13         2.8250    1.1750    5.0170 ha        1 O2N      0.138250
     53 H9          1.2800    1.0600    0.2630 ha        1 O2N      0.141750
     54 H14         0.6640    2.9650    1.7050 ha        1 O2N      0.138250
     55 H35         3.1700   -1.9780    1.6550 h1        1 O2N      0.091700
     56 H321       -2.6450   -1.7350    0.4150 h1        1 O2N      0.076700
     57 H322       -1.0320   -1.7830    1.2810 h1        1 O2N      0.076700
     58 H331       -1.0130    1.3280    1.0320 h1        1 O2N      0.055700
     59 H332       -2.4510    0.2530    1.3810 h1        1 O2N      0.055700
     60 H251        1.1100   -0.0790   -3.3160 ha        1 O2N      0.102500
     61 H252        1.3890    1.7480   -3.2170 ha        1 O2N      0.102500
     62 H26        -0.5180    1.9800   -1.6260 ha        1 O2N      0.126000
     63 H341       -2.1250   -0.0010   -2.0700 h1        1 O2N      0.073700
     64 H342       -0.6760   -1.0970   -2.0960 h1        1 O2N      0.073700
     65 H36         1.1950   -1.1020   -0.3900 hn        1 O2N      0.335500
     66 H291       -7.4340    3.5320   -1.7470 h2        1 O2N      0.053200
     67 H292       -6.6220    3.2390   -3.4070 h2        1 O2N      0.053200
     68 H301        8.1760    1.1550   -3.7860 h1        1 O2N      0.041200
     69 H302        6.4980    0.4780   -4.1180 h1        1 O2N      0.041200
     70 H303        6.6850    2.0360   -3.1670 h1        1 O2N      0.041200
     71 H311        0.3250    4.8060    4.8110 h1        1 O2N      0.041200
     72 H312        0.8630    4.7610    3.0540 h1        1 O2N      0.041200
     73 H313       -0.4810    3.6500    3.6280 h1        1 O2N      0.041200
     74 C25         0.8000    0.8830   -2.8860 c2        1 O2N     -0.269000
     75 C28        -4.3480   -0.3090   -0.6350 c         1 O2N      0.920200
     76 C30         7.1350    1.0380   -3.3910 c3        1 O2N      0.114700
     77 C31         0.4730    4.1580    3.9110 c3        1 O2N      0.114700
@<TRIPOS>BOND
     1    1    2 ar  
     2    1    3 ar  
     3    1   41 1   
     4    2    4 ar  
     5    2   42 1   
     6    3   15 ar  
     7    3   43 1   
     8    4   19 ar  
     9    4   44 1   
    10    5   10 ar  
    11    5   20 ar  
    12    5   45 1   
    13    6   11 ar  
    14    6   17 ar  
    15    6   47 1   
    16    7   12 ar  
    17    7   17 ar  
    18    7   49 1   
    19    8   13 ar  
    20    8   18 ar  
    21    8   51 1   
    22    9   14 ar  
    23    9   18 ar  
    24    9   53 1   
    25   10   21 ar  
    26   10   46 1   
    27   11   23 ar  
    28   11   48 1   
    29   12   23 ar  
    30   12   50 1   
    31   13   24 ar  
    32   13   52 1   
    33   14   24 ar  
    34   14   54 1   
    35   15   19 ar  
    36   15   26 1   
    37   16   20 ar  
    38   16   22 ar  
    39   16   75 1   
    40   17   31 1   
    41   18   31 1   
    42   19   28 1   
    43   20   29 1   
    44   21   22 ar  
    45   21   37 1   
    46   22   38 1   
    47   23   39 1   
    48   24   40 1   
    49   25   30 1   
    50   25   62 1   
    51   25   74 2   
    52   26   32 1   
    53   26   35 2   
    54   27   37 1   
    55   27   38 1   
    56   27   66 1   
    57   27   67 1   
    58   28   33 1   
    59   28   56 1   
    60   28   57 1   
    61   29   33 1   
    62   29   58 1   
    63   29   59 1   
    64   30   33 1   
    65   30   63 1   
    66   30   64 1   
    67   31   32 1   
    68   31   55 1   
    69   32   65 1   
    70   34   75 1   
    71   36   75 1   
    72   39   76 1   
    73   40   77 1   
    74   60   74 1   
    75   61   74 1   
    76   68   76 1   
    77   69   76 1   
    78   70   76 1   
    79   71   77 1   
    80   72   77 1   
    81   73   77 1   
@<TRIPOS>SUBSTRUCTURE
     1 O2N         1 TEMP              0 ****  ****    0 ROOT
