@<TRIPOS>MOLECULE
O2N
   77    67     1     0     0
SMALL
bcc


@<TRIPOS>ATOM
      1 C1          1.0990   -0.1570   -4.1880 c1        1 O2N     -0.086083
      2 C2          2.4790   -0.0150   -4.0610 c1        1 O2N     -0.086083
      3 C3          0.2980   -0.2270   -3.0510 c1        1 O2N     -0.086083
      4 C4          3.0580    0.0570   -2.7960 c1        1 O2N     -0.086083
      5 C5          0.5920    2.8250    0.3260 c1        1 O2N     -0.086083
      6 C6         -2.5090   -4.2830   -1.1520 c1        1 O2N     -0.086083
      7 C7         -1.1420   -5.2100    0.6070 c1        1 O2N     -0.033000
      8 C8         -2.5730   -0.9910    0.9310 c1        1 O2N     -0.086083
      9 C9         -1.3680   -2.1570    2.6650 c1        1 O2N     -0.033000
     10 C10        -0.6420    3.4380    0.5530 c1        1 O2N     -0.086083
     11 C11        -3.0020   -5.5540   -1.4380 c1        1 O2N     -0.086083
     12 C12        -1.6350   -6.4800    0.3200 c1        1 O2N     -0.117000
     13 C13        -2.8390    0.0500    1.8150 c1        1 O2N     -0.086083
     14 C14        -1.6340   -1.1150    3.5490 c1        1 O2N     -0.117000
     15 C15         0.8760   -0.1550   -1.7870 cg        1 O2N     -0.098200
     16 C16         1.7080    4.6480    1.4600 cg        1 O2N     -0.015200
     17 C17        -1.5780   -4.1110   -0.1290 c1        1 O2N     -0.105100
     18 C18        -1.8370   -2.0950    1.3560 c1        1 O2N     -0.105100
     19 C19         2.2570   -0.0130   -1.6590 c1        1 O2N      0.001900
     20 C20         1.7680    3.4300    0.7790 c1        1 O2N     -0.044100
     21 C21        -0.7020    4.6640    1.2380 c1        1 O2N      0.035600
     22 C22         0.4660    5.2660    1.6890 c1        1 O2N      0.035600
     23 C23        -2.5650   -6.6520   -0.7030 c1        1 O2N      0.116600
     24 C24        -2.3700   -0.0120    3.1240 c1        1 O2N      0.116600
     25 C25         4.7970    2.6910   -3.7790 c1        1 O2N     -0.086083
     26 C26         4.1600    3.0870   -2.6400 c1        1 O2N     -0.086083
     27 C27        -0.1070   -1.3440   -1.7190 c         1 O2N      0.617300
     28 C28         2.4710    5.6350    2.3270 c         1 O2N      0.865800
     29 C29        -1.2910    6.5960    2.3200 c3        1 O2N      0.319200
     30 C30        -3.6640   -8.6790   -1.3000 c3        1 O2N      0.102700
     31 C31        -3.4240    1.6940    4.3960 c3        1 O2N      0.102700
     32 C32         3.0780    0.5960   -0.4930 c3        1 O2N     -0.015600
     33 C33         3.1180    2.6950    0.6320 c3        1 O2N     -0.001600
     34 C34         4.4360    2.3650   -1.3160 c2        1 O2N      0.227100
     35 C35        -1.5510   -2.5700   -0.0810 c3        1 O2N      0.129900
     36 N36        -0.2460   -2.0970   -0.4950 n         1 O2N     -0.551900
     37 N37         3.1770    2.0410   -0.6690 nh        1 O2N     -0.270100
     38 O38         2.7900    6.7650    1.8650 o         1 O2N     -0.823800
     39 O39        -0.7080   -1.6950   -2.7210 o         1 O2N     -0.605100
     40 O40         2.7660    5.3330    3.5170 o         1 O2N     -0.823800
     41 O41        -1.8030    5.4890    1.6290 os        1 O2N     -0.318900
     42 O42         0.1080    6.4770    2.3590 os        1 O2N     -0.318900
     43 O43        -2.7550   -7.6580   -1.6870 os        1 O2N     -0.324900
     44 O44        -3.5140    0.3860    3.8560 os        1 O2N     -0.324900
     45 H1          0.6910   -0.2070   -5.0810 ha        1 O2N      0.081167
     46 H2          3.0440    0.0350   -4.8630 ha        1 O2N      0.081167
     47 H3         -0.6740   -0.3270   -3.1420 ha        1 O2N      0.081167
     48 H4          4.0290    0.1570   -2.7060 ha        1 O2N      0.081167
     49 H5          0.6340    1.9730   -0.1510 ha        1 O2N      0.081167
     50 H10        -1.4650    3.0200    0.2230 ha        1 O2N      0.081167
     51 H6         -2.8020   -3.5130   -1.6830 ha        1 O2N      0.081167
     52 H11        -3.6570   -5.6750   -2.1590 ha        1 O2N      0.081167
     53 H7         -0.4860   -5.0890    1.3270 ha        1 O2N      0.074000
     54 H12        -1.3360   -7.2530    0.8470 ha        1 O2N      0.080500
     55 H8         -2.9030   -0.9480    0.0080 ha        1 O2N      0.081167
     56 H13        -3.3190    0.8470    1.5030 ha        1 O2N      0.081167
     57 H9         -0.8830   -2.9520    2.9750 ha        1 O2N      0.074000
     58 H14        -1.3040   -1.1590    4.4720 ha        1 O2N      0.080500
     59 H35        -2.2350   -2.2110   -0.6860 h1        1 O2N      0.089700
     60 H321        2.6300    0.4000    0.3600 h1        1 O2N      0.054700
     61 H322        3.9820    0.2030   -0.4870 h1        1 O2N      0.054700
     62 H331        3.2020    2.0200    1.3420 h1        1 O2N      0.052200
     63 H332        3.8540    3.3440    0.7070 h1        1 O2N      0.052200
     64 H251        5.4320    1.9430   -3.7510 DU        1 O2N      0.102000
     65 H252        4.6200    3.1540   -4.6270 ha        1 O2N      0.081167
     66 H26         3.5260    3.8340   -2.6680 ha        1 O2N      0.081167
     67 H341        4.9360    1.5370   -1.4920 h4        1 O2N     -0.011700
     68 H342        4.9660    2.9480   -0.7280 h4        1 O2N     -0.011700
     69 H36         0.4980   -2.3200   -0.0080 hn        1 O2N      0.310500
     70 H291       -1.5400    7.4240    1.8530 h2        1 O2N      0.053700
     71 H292       -1.6480    6.6110    3.2360 h2        1 O2N      0.053700
     72 H301       -4.2630   -8.3360   -0.6010 h1        1 O2N      0.054200
     73 H302       -4.1970   -8.9570   -2.0800 h1        1 O2N      0.054200
     74 H303       -3.1630   -9.4500   -0.9530 h1        1 O2N      0.054200
     75 H311       -3.0150    2.2940    3.7340 h1        1 O2N      0.054200
     76 H312       -4.3240    2.0190    4.6200 h1        1 O2N      0.054200
     77 H313       -2.8700    1.6760    5.2070 h1        1 O2N      0.054200
@<TRIPOS>BOND
     1    1    3 3   
     2    1   45 1   
     3    2    4 3   
     4    2   46 1   
     5    3   47 1   
     6    4   48 1   
     7    5   10 3   
     8    5   49 1   
     9    6   11 3   
    10    6   51 1   
    11    7   17 3   
    12    7   53 1   
    13    8   13 3   
    14    8   55 1   
    15    9   18 3   
    16    9   57 1   
    17   10   50 1   
    18   11   52 1   
    19   12   23 3   
    20   12   54 1   
    21   13   56 1   
    22   14   24 3   
    23   14   58 1   
    24   15   19 3   
    25   15   27 1   
    26   16   20 3   
    27   16   28 1   
    28   17   35 1   
    29   18   35 1   
    30   19   32 1   
    31   20   33 1   
    32   21   22 3   
    33   21   41 1   
    34   22   42 1   
    35   23   43 1   
    36   24   44 1   
    37   25   26 3   
    38   25   65 1   
    39   26   66 1   
    40   27   36 1   
    41   27   39 2   
    42   28   38 1   
    43   28   40 1   
    44   29   41 1   
    45   29   42 1   
    46   29   70 1   
    47   29   71 1   
    48   30   43 1   
    49   30   72 1   
    50   30   73 1   
    51   30   74 1   
    52   31   44 1   
    53   31   75 1   
    54   31   76 1   
    55   31   77 1   
    56   32   37 1   
    57   32   60 1   
    58   32   61 1   
    59   33   37 1   
    60   33   62 1   
    61   33   63 1   
    62   34   37 2   
    63   34   67 1   
    64   34   68 1   
    65   35   36 1   
    66   35   59 1   
    67   36   69 1   
@<TRIPOS>SUBSTRUCTURE
     1 O2N         1 TEMP              0 ****  ****    0 ROOT
