@<TRIPOS>MOLECULE
O2W
   53    49     1     0     0
SMALL
bcc


@<TRIPOS>ATOM
      1 CAA         0.2190   -2.3630   -0.4760 c1        1 O2W      0.015000
      2 NAB         9.1000    4.2230    9.4510 n8        1 O2W     -0.310000
      3 OAC         2.6070   -1.0790    1.6480 o         1 O2W     -0.498000
      4 OAD         5.5810   -1.6080    2.9790 o         1 O2W     -0.198000
      5 CAG        10.9060    2.3130    7.6130 c1        1 O2W      0.407000
      6 CAH         5.7330    1.4520    1.1520 c2        1 O2W     -0.118000
      7 CAI         9.8030    6.5260    9.3550 c1        1 O2W     -0.220000
      8 CAJ         8.5720    5.6420    7.4890 c2        1 O2W      0.037000
      9 CAK        10.4400    7.5360    9.8530 c2        1 O2W     -0.112000
     10 CAL         7.8570    4.7360    6.8740 c1        1 O2W     -0.249000
     11 CAM         8.4200   -1.5170    4.8600 c2        1 O2W     -0.229500
     12 CAN         2.9090   -2.5190    3.5730 c3        1 O2W     -0.024000
     13 CAO         8.4050   -2.1460    6.0280 c2        1 O2W     -0.229500
     14 NAP         4.4720    0.5330    3.0310 ny        1 O2W     -0.041000
     15 OAQ         1.3540   -2.9220    1.7840 oh        1 O2W     -0.368000
     16 OAR         3.6130   -1.3810    4.1090 os        1 O2W     -0.240000
     17 CAS         2.2740   -2.1180    2.2620 c2        1 O2W      0.315000
     18 CAT         4.6360   -0.9200    3.3230 c2        1 O2W      0.357000
     19 CAU         8.8060    2.6690    5.1850 c2        1 O2W      0.292000
     20 CAV         6.4150    2.3180    4.5740 c2        1 O2W      0.333000
     21 CAW         9.1660    5.4910    8.8270 c2        1 O2W      0.025000
     22 CAX         7.0150    3.9350    6.2660 c2        1 O2W      0.017000
     23 CAY        10.6250    3.3670    6.8420 c2        1 O2W     -0.473000
     24 CAZ         9.7320    3.5690    5.8060 c1        1 O2W      0.008000
     25 CBA         6.8040    1.4350    3.4030 c3        1 O2W     -0.165000
     26 NBB         7.4070    2.9320    5.3420 n         1 O2W     -0.266000
     27 CBC         5.6710    1.1620    2.4620 c2        1 O2W     -0.114000
     28 HAA        -0.7240   -1.8080   -0.5360 ha        1 O2W      0.084000
     29 HAAA        0.9370   -2.5940    0.8260 ho        1 O2W      0.337000
     30 HAAB        0.5880   -2.7650   -1.4270 ha        1 O2W      0.084000
     31 HNAB        8.1870    3.8210    9.3650 hn        1 O2W      0.175500
     32 HNAA        9.3810    4.2580   10.4110 hn        1 O2W      0.175500
     33 HAG         9.9490    0.3380    7.0770 ha        1 O2W      0.013500
     34 HAGA        9.7190    0.7110    6.5540 ha        1 O2W      0.013500
     35 HAH         6.6210    1.9510    0.7310 ha        1 O2W      0.165500
     36 HAHA        4.9370    1.2220    0.4270 ha        1 O2W      0.165500
     37 HAK        11.5240    7.6770    9.7190 ha        1 O2W      0.142500
     38 HAL         5.9190    3.9990    6.4330 h4        1 O2W      0.192000
     39 HAM        11.2500    4.2710    7.0940 ha        1 O2W      0.233000
     40 HAMA        9.0260   -0.6140    4.6820 ha        1 O2W      0.115000
     41 HAN         3.6140   -3.3800    3.4320 h1        1 O2W      0.167000
     42 HANA        2.1430   -2.7390    4.3650 h1        1 O2W      0.167000
     43 HAO         7.8190   -3.0570    6.2070 ha        1 O2W      0.115000
     44 HAOA        8.9890   -1.8000    6.8930 ha        1 O2W      0.115000
     45 HNAP        4.2180    1.0310    3.9120 hn        1 O2W      0.299000
     46 HAY         7.8490   -1.8710    3.9900 ha        1 O2W      0.115000
     47 HAZ         7.2290    0.4670    3.8050 hc        1 O2W      0.178000
     48 HBA         7.6380    1.9200    2.8150 hc        1 O2W      0.178000
     49 OAF         5.2080    2.4820    4.8660 o         1 O2W     -0.405000
     50 HAI         9.9340    8.3190   10.4410 ha        1 O2W      0.142500
     51 HAP2        3.6740    0.5990    2.3690 hn        1 O2W      0.299000
     52 OAE         9.1870    1.7940    4.3710 o         1 O2W     -0.388000
     53 HAJ         8.7780    6.6120    6.9910 ha        1 O2W      0.168000
@<TRIPOS>BOND
     1    1   28 1   
     2    1   30 1   
     3    2   21 1   
     4    2   31 1   
     5    2   32 1   
     6    3   17 1   
     7    4   18 1   
     8    5   23 1   
     9    6   27 1   
    10    6   35 1   
    11    6   36 1   
    12    7    9 1   
    13    7   21 1   
    14    8   10 1   
    15    8   21 1   
    16    8   53 1   
    17    9   37 1   
    18    9   50 1   
    19   10   22 1   
    20   11   13 1   
    21   11   40 1   
    22   11   46 1   
    23   12   16 1   
    24   12   17 1   
    25   12   41 1   
    26   12   42 1   
    27   13   43 1   
    28   13   44 1   
    29   14   18 1   
    30   14   27 1   
    31   14   45 1   
    32   14   51 1   
    33   15   17 1   
    34   15   29 1   
    35   16   18 1   
    36   19   24 1   
    37   19   26 1   
    38   19   52 1   
    39   20   25 1   
    40   20   26 1   
    41   20   49 1   
    42   22   26 1   
    43   22   38 1   
    44   23   24 1   
    45   23   39 1   
    46   25   27 1   
    47   25   47 1   
    48   25   48 1   
    49   33   34 1   
@<TRIPOS>SUBSTRUCTURE
     1 O2W         1 TEMP              0 ****  ****    0 ROOT
