@<TRIPOS>MOLECULE
O2W
   54    54     1     0     0
SMALL
bcc


@<TRIPOS>ATOM
      1 CAA        -0.9000    4.1350    0.1340 c3        1 O2W     -0.068000
      2 NAB         4.5590    3.4150    6.9520 n3        1 O2W     -0.338000
      3 OAC         0.0250    4.0020    1.2280 os        1 O2W     -0.260000
      4 OAD         3.2000    3.2330    4.4570 oh        1 O2W     -0.255000
      5 CAG        12.5030   -0.0730    4.9200 c1        1 O2W     -0.262000
      6 CAH        12.8330   -1.4110    5.2770 c3        1 O2W     -0.076000
      7 CAI         5.9340    1.3980    7.1450 c2        1 O2W     -0.184000
      8 CAJ         6.8730    3.3950    6.0850 c2        1 O2W     -0.159000
      9 CAK         7.1840    0.6260    6.9000 c3        1 O2W     -0.137000
     10 CAL         8.0760    2.8070    6.1380 c2        1 O2W      0.025000
     11 CAM        12.6320   -4.2420    6.2010 c2        1 O2W      0.104000
     12 CAN         1.9390    2.9700    2.2580 c3        1 O2W     -0.012000
     13 CAO        11.8660   -3.2460    6.7310 c2        1 O2W     -0.289000
     14 NAP         1.8270    5.0540    5.2190 n3        1 O2W     -0.314000
     15 OAQ         1.0870    2.3840    0.0700 o         1 O2W     -0.284000
     16 OAR         1.5200    4.0030    3.1990 os        1 O2W     -0.147000
     17 CAS         1.0000    3.0730    1.0810 c2        1 O2W      0.295000
     18 CAT         2.2050    4.1120    4.3480 c2        1 O2W      0.416000
     19 CAU        10.1110    2.1130    5.4540 c2        1 O2W      0.157000
     20 CAV         9.9370   -0.2700    6.1430 c2        1 O2W      0.340000
     21 CAW         5.7770    2.6980    6.7760 c2        1 O2W     -0.021000
     22 CAX         8.3940    1.5570    6.9400 c3        1 O2W      0.003000
     23 CAY        12.0480    1.0200    4.7260 c1        1 O2W      0.020000
     24 CAZ        11.2370    2.1560    4.6890 c2        1 O2W     -0.126000
     25 CBA        11.0210   -0.9180    7.0130 c3        1 O2W     -0.231000
     26 NBB         9.7040    1.1260    6.4100 n         1 O2W     -0.290000
     27 CBC        11.8940   -1.9000    6.3210 c2        1 O2W      0.295000
     28 HAA        -1.5910    4.9420    0.4840 h1        1 O2W      0.111333
     29 HAAA       -0.3480    4.4320   -0.7900 h1        1 O2W      0.111333
     30 HAAB       -1.4360    3.1680   -0.0230 h1        1 O2W      0.111333
     31 HNAB        5.1240    0.8250    7.6240 ha        1 O2W      0.153000
     32 HNAA        3.9840    2.9740    7.6480 hn        1 O2W      0.183500
     33 HAG         4.5190    1.4370    3.7940 ha        1 O2W      0.003500
     34 HAGA        4.1200    1.5220    3.2520 ha        1 O2W      0.003500
     35 HAH        12.8070   -2.0870    4.3670 hc        1 O2W      0.186500
     36 HAHA       13.8940   -1.4770    5.6820 hc        1 O2W      0.186500
     37 HAK         7.1070    0.1000    5.9070 hc        1 O2W      0.123500
     38 HAL         8.5940    1.8500    8.0170 h1        1 O2W      0.153000
     39 HAM        13.3620   -4.0800    5.3890 ha        1 O2W      0.172000
     40 HAMA       11.4810    3.0260    4.0610 ha        1 O2W      0.213000
     41 HAN         2.9960    3.1710    1.9400 h1        1 O2W      0.154000
     42 HANA        1.8470    1.9660    2.7500 h1        1 O2W      0.154000
     43 HAO         3.7290    3.2940    5.3160 ho        1 O2W      0.334000
     44 HAOA       11.1510   -3.5100    7.5410 ha        1 O2W      0.191000
     45 HNAP        2.3050    5.1730    6.0850 hn        1 O2W      0.296000
     46 HAY        12.5490   -5.2820    6.5710 ha        1 O2W      0.172000
     47 HAZ        10.4730   -1.3930    7.8780 hc        1 O2W      0.181000
     48 HBA        11.7020   -0.1170    7.4410 hc        1 O2W      0.181000
     49 OAF         9.2610   -0.9470    5.3680 o         1 O2W     -0.245000
     50 HAI         7.2970   -0.1630    7.6910 hc        1 O2W      0.123500
     51 HAB3        4.7540    4.3620    7.2280 hn        1 O2W      0.183500
     52 HAP2        1.0500    5.6500    5.0000 hn        1 O2W      0.296000
     53 OAE         9.1950    3.1860    5.3940 os        1 O2W     -0.106000
     54 HAJ         6.6850    4.3220    5.5280 ha        1 O2W      0.170000
@<TRIPOS>BOND
     1    1    3 1   
     2    1   28 1   
     3    1   29 1   
     4    1   30 1   
     5    2   21 1   
     6    2   32 1   
     7    2   51 1   
     8    3   17 1   
     9    4   18 1   
    10    4   43 1   
    11    5    6 1   
    12    5   23 1   
    13    6   27 1   
    14    6   35 1   
    15    6   36 1   
    16    7    9 1   
    17    7   21 1   
    18    7   31 1   
    19    8   10 1   
    20    8   21 1   
    21    8   54 1   
    22    9   22 1   
    23    9   37 1   
    24    9   50 1   
    25   10   22 1   
    26   10   53 1   
    27   11   13 1   
    28   11   39 1   
    29   11   46 1   
    30   12   16 1   
    31   12   17 1   
    32   12   41 1   
    33   12   42 1   
    34   13   27 1   
    35   13   44 1   
    36   14   18 1   
    37   14   45 1   
    38   14   52 1   
    39   15   17 1   
    40   16   18 1   
    41   19   24 1   
    42   19   26 1   
    43   19   53 1   
    44   20   25 1   
    45   20   26 1   
    46   20   49 1   
    47   22   26 1   
    48   22   38 1   
    49   23   24 1   
    50   24   40 1   
    51   25   27 1   
    52   25   47 1   
    53   25   48 1   
    54   33   34 1   
@<TRIPOS>SUBSTRUCTURE
     1 O2W         1 TEMP              0 ****  ****    0 ROOT
