@<TRIPOS>MOLECULE
O2W
   53    50     1     0     0
SMALL
bcc


@<TRIPOS>ATOM
      1 CAA         2.7080    2.5000    3.5150 c3        1 O2W     -0.066000
      2 NAB         5.5670    6.4130    8.9920 n3        1 O2W     -0.339000
      3 OAC         2.7700    1.0990    3.2080 os        1 O2W     -0.351000
      4 OAD         4.5150   -0.9680    1.4270 o         1 O2W     -0.207000
      5 CAG        11.9380    2.7840    5.8930 c1        1 O2W      0.453000
      6 CAH         7.1200   -1.3160    2.5840 c2        1 O2W     -0.112000
      7 CAI         7.3980    5.0880    8.1140 c2        1 O2W     -0.310000
      8 CAJ         5.2370    4.0310    8.5180 c2        1 O2W     -0.436000
      9 CAK         7.8900    3.8420    7.5770 c2        1 O2W     -0.100000
     10 CAL         5.4930    2.9280    7.8330 c1        1 O2W      0.144000
     11 CAM        10.5790   -0.8380    2.5620 c2        1 O2W     -0.235000
     12 CAN         1.8500   -0.9360    2.3690 c3        1 O2W     -0.004000
     13 CAO        10.7470   -2.1520    2.4920 c2        1 O2W     -0.235000
     14 NAP         5.0610   -0.5670    3.7490 n4        1 O2W     -0.035000
     15 OAQ         0.6410    1.2010    2.5050 o         1 O2W     -0.266000
     16 OAR         3.0040   -1.4400    3.0680 os        1 O2W     -0.241000
     17 CAS         1.6450    0.5230    2.6790 c2        1 O2W      0.270000
     18 CAT         4.2120   -0.9880    2.6080 c2        1 O2W      0.360000
     19 CAU         9.0170    1.4310    6.3940 c2        1 O2W      0.293000
     20 CAV         6.9690    1.3680    5.0290 c2        1 O2W      0.338000
     21 CAW         6.1090    5.2130    8.5590 c2        1 O2W      0.148000
     22 CAX         7.3780    3.2830    6.4510 c2        1 O2W     -0.051000
     23 CAY        11.2550    1.8560    5.2010 c2        1 O2W     -0.482000
     24 CAZ        10.0550    1.2310    5.4240 c1        1 O2W     -0.064000
     25 CBA         7.3040   -0.0860    4.7350 c3        1 O2W     -0.187000
     26 NBB         7.8210    2.0720    5.8730 n         1 O2W     -0.286000
     27 CBC         6.5200   -0.6900    3.6070 c2        1 O2W     -0.131000
     28 HAA         3.7280    2.7190    3.9230 h1        1 O2W      0.113000
     29 HAAA        1.9070    2.6810    4.2710 h1        1 O2W      0.113000
     30 HAAB        2.4990    3.0760    2.5820 h1        1 O2W      0.113000
     31 HNAB        6.2150    7.1450    9.1760 hn        1 O2W      0.207500
     32 HNAA        4.8110    6.3500    9.6330 hn        1 O2W      0.207500
     33 HAG        10.7930    2.7700    7.7260 ha        1 O2W      0.019000
     34 HAGA       11.2530    3.2080    7.9790 ha        1 O2W      0.019000
     35 HAH         6.6010   -1.8010    1.7440 ha        1 O2W      0.178000
     36 HAHA        8.2270   -1.3670    2.5380 ha        1 O2W      0.178000
     37 HAK         8.7160    3.3710    8.1420 ha        1 O2W      0.145000
     38 HAL         6.5940    3.7860    5.8430 h4        1 O2W      0.187000
     39 HAM        11.8120    1.4950    4.2880 ha        1 O2W      0.232000
     40 HAMA       10.4780   -0.2990    3.5180 ha        1 O2W      0.119000
     41 HAN         1.0110   -1.5590    2.7920 h1        1 O2W      0.175000
     42 HANA        1.9590   -1.0890    1.2620 h1        1 O2W      0.175000
     43 HAO        10.7960   -2.7930    3.3840 ha        1 O2W      0.119000
     44 HAOA       10.8690   -2.6860    1.5390 ha        1 O2W      0.119000
     45 HNAP        4.7650   -1.0830    4.5900 hn        1 O2W      0.298000
     46 HAY        10.5530   -0.1970    1.6690 ha        1 O2W      0.119000
     47 HAZ         7.1380   -0.6760    5.6810 hc        1 O2W      0.169000
     48 HBA         8.4050   -0.1750    4.4800 hc        1 O2W      0.169000
     49 OAF         5.9580    1.9150    4.5320 o         1 O2W     -0.401000
     50 HAI         8.1260    5.9090    8.1900 ha        1 O2W      0.155000
     51 HAP2        4.8350    0.4550    3.8980 hn        1 O2W      0.298000
     52 OAE         9.0320    0.9340    7.5310 o         1 O2W     -0.284000
     53 HAJ         4.3020    4.0630    9.1140 ha        1 O2W      0.192000
@<TRIPOS>BOND
     1    1    3 1   
     2    1   28 1   
     3    1   29 1   
     4    1   30 1   
     5    2   21 1   
     6    2   31 1   
     7    2   32 1   
     8    3   17 1   
     9    4   18 1   
    10    5   23 1   
    11    6   27 1   
    12    6   35 1   
    13    6   36 1   
    14    7    9 1   
    15    7   21 1   
    16    7   50 1   
    17    8   10 1   
    18    8   21 1   
    19    8   53 1   
    20    9   22 1   
    21    9   37 1   
    22   11   13 1   
    23   11   40 1   
    24   11   46 1   
    25   12   16 1   
    26   12   17 1   
    27   12   41 1   
    28   12   42 1   
    29   13   43 1   
    30   13   44 1   
    31   14   18 1   
    32   14   27 1   
    33   14   45 1   
    34   14   51 1   
    35   15   17 1   
    36   16   18 1   
    37   19   24 1   
    38   19   26 1   
    39   19   52 1   
    40   20   25 1   
    41   20   26 1   
    42   20   49 1   
    43   22   26 1   
    44   22   38 1   
    45   23   24 1   
    46   23   39 1   
    47   25   27 1   
    48   25   47 1   
    49   25   48 1   
    50   33   34 1   
@<TRIPOS>SUBSTRUCTURE
     1 O2W         1 TEMP              0 ****  ****    0 ROOT
