@<TRIPOS>MOLECULE
O2W
   52    55     1     0     0
SMALL
bcc


@<TRIPOS>ATOM
      1 CAA        -8.0600    1.1740    0.5870 c3        1 O2W      0.127700
      2 NAB         6.7100    3.5610   -0.9690 nh        1 O2W     -0.818200
      3 OAC        -5.5850    0.5290    1.0840 o         1 O2W     -0.521000
      4 OAD        -3.3850   -1.0520   -1.2660 o         1 O2W     -0.588000
      5 CAG         0.8580   -2.5030   -1.3870 c3        1 O2W     -0.076900
      6 CAH        -0.1710   -1.3860   -1.3680 c3        1 O2W     -0.100400
      7 CAI         4.3490    2.9220   -0.9950 ca        1 O2W     -0.182000
      8 CAJ         5.9450    1.5720    0.2320 ca        1 O2W     -0.182000
      9 CAK         3.3410    2.0260   -0.6700 ca        1 O2W     -0.091000
     10 CAL         4.9360    0.6810    0.5650 ca        1 O2W     -0.091000
     11 CAM        -0.3560   -3.6610    0.4380 c3        1 O2W     -0.076900
     12 CAN        -4.8000    1.1660   -1.1800 c3        1 O2W      0.103400
     13 CAO        -1.3810   -2.5400    0.4990 c3        1 O2W     -0.100400
     14 NAP        -1.7130   -0.1000    0.1260 n         1 O2W     -0.521900
     15 OAQ        -7.0440    1.3420   -0.4030 os        1 O2W     -0.443900
     16 OAR        -3.4650    1.1330   -0.6940 os        1 O2W     -0.427900
     17 CAS        -5.7760    0.9660   -0.0500 c         1 O2W      0.605100
     18 CAT        -2.8500   -0.1170   -0.6480 c         1 O2W      0.746100
     19 CAU         2.7720   -1.4170    0.6370 c         1 O2W      0.708500
     20 CAV         1.2310    0.3350    0.6530 c         1 O2W      0.707500
     21 CAW         5.6780    2.7120   -0.5600 ca        1 O2W      0.139600
     22 CAX         3.6150    0.8900    0.1190 ca        1 O2W     -0.003400
     23 CAY         1.0010   -3.1240   -0.0040 c3        1 O2W     -0.054700
     24 CAZ         1.4350   -2.0670    1.0050 c3        1 O2W     -0.131700
     25 CBA         0.4220   -0.9080    1.0370 c3        1 O2W     -0.150700
     26 NBB         2.5850   -0.0210    0.4600 n         1 O2W     -0.408600
     27 CBC        -0.7480   -1.1940    0.0570 c3        1 O2W      0.148400
     28 HAA        -8.9860    1.5350    0.0770 h1        1 O2W      0.052700
     29 HAAA       -8.1400    0.0970    0.8700 h1        1 O2W      0.052700
     30 HAAB       -7.8190    1.7890    1.4860 h1        1 O2W      0.052700
     31 HNAB        6.4150    4.4780   -1.2200 hn        1 O2W      0.391800
     32 HNAA        7.5120    3.5500   -0.3800 hn        1 O2W      0.391800
     33 HAG         0.5490   -3.2960   -2.1160 hc        1 O2W      0.053700
     34 HAGA        1.8520   -2.1090   -1.7250 hc        1 O2W      0.053700
     35 HAH         0.2950   -0.4270   -1.7160 hc        1 O2W      0.068700
     36 HAHA       -1.0180   -1.6260   -2.0640 hc        1 O2W      0.068700
     37 HAJ         6.9680    1.3740    0.5880 ha        1 O2W      0.136500
     38 HAK         2.3150    2.2280   -1.0200 ha        1 O2W      0.153500
     39 HAL         5.1870   -0.2060    1.1700 ha        1 O2W      0.153500
     40 HAM        -0.2600   -4.1500    1.4410 hc        1 O2W      0.053700
     41 HAMA       -0.6910   -4.4470   -0.2860 hc        1 O2W      0.053700
     42 HAN        -4.9100    2.2010   -1.6050 h1        1 O2W      0.106700
     43 HANA       -4.9810    0.3850   -1.9670 h1        1 O2W      0.106700
     44 HAO        -2.2480   -2.7690   -0.1760 hc        1 O2W      0.068700
     45 HAOA       -1.7810   -2.4370    1.5400 hc        1 O2W      0.068700
     46 HNAP       -1.3600    0.7960    0.3990 hn        1 O2W      0.348500
     47 HAY         1.7620   -3.9480   -0.0300 hc        1 O2W      0.079700
     48 HAZ         1.5450   -2.5340    2.0190 hc        1 O2W      0.096700
     49 HBA         0.0190   -0.7570    2.0740 hc        1 O2W      0.105700
     50 OAE         3.8490   -2.0090    0.5330 o         1 O2W     -0.572500
     51 OAF         0.7660    1.4760    0.5450 o         1 O2W     -0.595500
     52 HAI         4.1010    3.8010   -1.6100 ha        1 O2W      0.136500
@<TRIPOS>BOND
     1    1   15 1   
     2    1   28 1   
     3    1   29 1   
     4    1   30 1   
     5    2   21 1   
     6    2   31 1   
     7    2   32 1   
     8    3   17 2   
     9    4   18 2   
    10    5    6 1   
    11    5   23 1   
    12    5   33 1   
    13    5   34 1   
    14    6   27 1   
    15    6   35 1   
    16    6   36 1   
    17    7    9 ar  
    18    7   21 ar  
    19    7   52 1   
    20    8   10 ar  
    21    8   21 ar  
    22    8   37 1   
    23    9   22 ar  
    24    9   38 1   
    25   10   22 ar  
    26   10   39 1   
    27   11   13 1   
    28   11   23 1   
    29   11   40 1   
    30   11   41 1   
    31   12   16 1   
    32   12   17 1   
    33   12   42 1   
    34   12   43 1   
    35   13   27 1   
    36   13   44 1   
    37   13   45 1   
    38   14   18 1   
    39   14   27 1   
    40   14   46 1   
    41   15   17 1   
    42   16   18 1   
    43   19   24 1   
    44   19   26 1   
    45   19   50 2   
    46   20   25 1   
    47   20   26 1   
    48   20   51 2   
    49   22   26 1   
    50   23   24 1   
    51   23   47 1   
    52   24   25 1   
    53   24   48 1   
    54   25   27 1   
    55   25   49 1   
@<TRIPOS>SUBSTRUCTURE
     1 O2W         1 TEMP              0 ****  ****    0 ROOT
