@<TRIPOS>MOLECULE
O30
   61    64     1     0     0
SMALL
bcc


@<TRIPOS>ATOM
      1 F1         -0.4200   -5.3930    0.7560 f         1 O30     -0.232967
      2 C2         -0.6550   -4.3060   -0.0470 c3        1 O30      0.634600
      3 F3          0.5690   -4.0240   -0.6070 f         1 O30     -0.232967
      4 F4         -1.3900   -4.8100   -1.0910 f         1 O30     -0.232967
      5 C5         -1.2970   -3.1310    0.6580 cc        1 O30      0.226600
      6 N6         -0.7820   -2.6090    1.8120 nd        1 O30     -0.454800
      7 N7         -1.5790   -1.5960    2.1690 na        1 O30      0.098400
      8 C8         -2.6330   -1.4150    1.2540 cd        1 O30     -0.095600
      9 C9         -2.4780   -2.4040    0.2620 cc        1 O30     -0.182600
     10 C10        -3.3850   -2.5390   -0.8830 c3        1 O30     -0.010100
     11 C11        -4.6740   -1.7690   -0.6320 c3        1 O30     -0.077400
     12 C12        -4.4180   -0.3840   -0.0680 c3        1 O30     -0.074400
     13 C13        -3.7240   -0.4210    1.2870 c3        1 O30     -0.012100
     14 C14        -1.3750   -0.8110    3.3660 c3        1 O30     -0.013700
     15 C15        -0.0590   -0.0290    3.4680 c         1 O30      0.645100
     16 O16         0.3570    0.2730    4.6030 o         1 O30     -0.589100
     17 N17         0.5870    0.3670    2.3160 n         1 O30     -0.419100
     18 C18         1.7960    1.0490    2.3010 cc        1 O30      0.071500
     19 S19         2.5460    1.7340    3.6550 ss        1 O30      0.134200
     20 C20         3.8180    2.3530    2.7730 cc        1 O30     -0.168400
     21 C21         3.7280    2.0420    1.4250 cd        1 O30     -0.051300
     22 C22         2.5580    1.2720    1.1390 cd        1 O30     -0.236600
     23 C23         4.7400    2.4860    0.4410 c3        1 O30     -0.019100
     24 C24         5.5910    3.6170    0.9920 c3        1 O30     -0.074400
     25 C25         6.0680    3.3170    2.3980 c3        1 O30     -0.072400
     26 C26         4.9010    3.1640    3.3590 c3        1 O30      0.003900
     27 C27         2.1420    0.7640   -0.1820 c         1 O30      0.697700
     28 O28         0.9340    0.7210   -0.5160 o         1 O30     -0.640100
     29 N29         3.1300    0.3420   -1.0550 n         1 O30     -0.545900
     30 C30         2.8130   -0.4020   -2.2450 c3        1 O30      0.081000
     31 C31         2.8630   -1.9210   -2.0730 c3        1 O30     -0.117400
     32 C32         2.4560   -2.5930   -3.3830 c3        1 O30      0.165800
     33 N33         2.4560   -4.0350   -3.3030 n3        1 O30     -0.917800
     34 H10        -2.8780   -2.1430   -1.8050 hc        1 O30      0.064700
     35 H10A       -3.6170   -3.6220   -1.0720 hc        1 O30      0.064700
     36 H11        -5.2370   -1.6770   -1.5970 hc        1 O30      0.048700
     37 H11A       -5.3180   -2.3470    0.0820 hc        1 O30      0.048700
     38 H12        -3.7850    0.1970   -0.7890 hc        1 O30      0.053200
     39 H12A       -5.3930    0.1590    0.0430 hc        1 O30      0.053200
     40 H13        -4.4610   -0.7040    2.0880 hc        1 O30      0.058700
     41 H13A       -3.3320    0.6030    1.5330 hc        1 O30      0.058700
     42 H14        -2.2170   -0.0650    3.4410 h1        1 O30      0.105200
     43 H14A       -1.4050   -1.4930    4.2680 h1        1 O30      0.105200
     44 HN17        0.2190    0.1240    1.4150 hn        1 O30      0.366500
     45 H23         5.4100    1.6190    0.1860 hc        1 O30      0.054200
     46 H23A        4.2390    2.8220   -0.5060 hc        1 O30      0.054200
     47 H24         6.4740    3.7740    0.3190 hc        1 O30      0.045200
     48 H24A        4.9950    4.5670    0.9960 hc        1 O30      0.045200
     49 H25         6.6740    2.3730    2.3920 hc        1 O30      0.044200
     50 H25A        6.7340    4.1440    2.7570 hc        1 O30      0.044200
     51 H26         4.5000    4.1830    3.6160 hc        1 O30      0.049700
     52 H26A        5.2660    2.6980    4.3140 hc        1 O30      0.049700
     53 HN29        4.0450    0.2190   -0.6870 hn        1 O30      0.307500
     54 H30         1.7820   -0.1020   -2.5890 h1        1 O30      0.063200
     55 H30A        3.5530   -0.1000   -3.0410 h1        1 O30      0.063200
     56 H31         3.8960   -2.2460   -1.7830 hc        1 O30      0.056200
     57 H31A        2.1650   -2.2370   -1.2520 hc        1 O30      0.056200
     58 H32         1.4490   -2.1780   -3.6890 h1        1 O30      0.023700
     59 H32A        3.1890   -2.3030   -4.1890 h1        1 O30      0.023700
     60 HN33        2.0100   -4.3500   -2.4630 hn        1 O30      0.353300
     61 HN3A        1.9820   -4.4250   -4.0930 hn        1 O30      0.353300
@<TRIPOS>BOND
     1    1    2 1   
     2    2    3 1   
     3    2    4 1   
     4    2    5 1   
     5    5    6 2   
     6    5    9 1   
     7    6    7 1   
     8    7    8 1   
     9    7   14 1   
    10    8    9 2   
    11    8   13 1   
    12    9   10 1   
    13   10   11 1   
    14   10   34 1   
    15   10   35 1   
    16   11   12 1   
    17   11   36 1   
    18   11   37 1   
    19   12   13 1   
    20   12   38 1   
    21   12   39 1   
    22   13   40 1   
    23   13   41 1   
    24   14   15 1   
    25   14   42 1   
    26   14   43 1   
    27   15   16 2   
    28   15   17 1   
    29   17   18 1   
    30   17   44 1   
    31   18   19 1   
    32   18   22 2   
    33   19   20 1   
    34   20   21 2   
    35   20   26 1   
    36   21   22 1   
    37   21   23 1   
    38   22   27 1   
    39   23   24 1   
    40   23   45 1   
    41   23   46 1   
    42   24   25 1   
    43   24   47 1   
    44   24   48 1   
    45   25   26 1   
    46   25   49 1   
    47   25   50 1   
    48   26   51 1   
    49   26   52 1   
    50   27   28 2   
    51   27   29 1   
    52   29   30 1   
    53   29   53 1   
    54   30   31 1   
    55   30   54 1   
    56   30   55 1   
    57   31   32 1   
    58   31   56 1   
    59   31   57 1   
    60   32   33 1   
    61   32   58 1   
    62   32   59 1   
    63   33   60 1   
    64   33   61 1   
@<TRIPOS>SUBSTRUCTURE
     1 O30         1 TEMP              0 ****  ****    0 ROOT
