@<TRIPOS>MOLECULE
O30
   61    58     1     0     0
SMALL
bcc


@<TRIPOS>ATOM
      1 F1          0.8900   -6.7630    2.8350 f         1 O30     -0.159333
      2 C2          1.3710   -5.5350    3.0920 c3        1 O30      0.513000
      3 F3          0.6120   -4.9490    3.9960 f         1 O30     -0.159333
      4 F4          2.6130   -5.6310    3.5540 f         1 O30     -0.159333
      5 C5          1.3670   -4.7020    1.8040 c2        1 O30     -0.190000
      6 N6          0.5580   -3.5680    1.5500 n2        1 O30     -0.044000
      7 N7          0.8550   -3.0960    0.2640 n2        1 O30     -0.107000
      8 C8          1.8070   -3.8970   -0.2670 c1        1 O30     -0.057000
      9 C9          2.1340   -4.9200    0.7140 c1        1 O30     -0.118000
     10 C10         3.1280   -6.0860    0.2720 c2        1 O30     -0.098000
     11 C11         3.5080   -6.1110   -1.1000 c3        1 O30     -0.153750
     12 C12         3.6790   -4.8300   -1.7610 c3        1 O30     -0.153750
     13 C13         2.5930   -3.9130   -1.6590 c2        1 O30     -0.098000
     14 C14         0.1880   -1.9690   -0.4240 c2        1 O30     -0.033000
     15 C15        -0.0950   -0.8640    0.5740 c2        1 O30      0.298000
     16 O16         0.5460   -0.8030    1.6130 o         1 O30     -0.356000
     17 N17        -1.0260    0.1980    0.2340 n         1 O30     -0.291000
     18 C18        -1.1980    1.3580    1.1500 c2        1 O30     -0.230000
     19 S19        -0.8780    1.3740    2.7150 ss        1 O30      0.596000
     20 C20        -1.2650    2.7710    3.2590 c1        1 O30     -0.377000
     21 C21        -1.7970    3.5840    2.1020 c1        1 O30     -0.053000
     22 C22        -1.7470    2.6770    0.7840 c1        1 O30     -0.138000
     23 C23        -2.1340    5.0840    2.3660 c2        1 O30     -0.098000
     24 C24        -1.7690    5.6150    3.6650 c3        1 O30     -0.153750
     25 C25        -1.9040    4.7300    4.7970 c3        1 O30     -0.153750
     26 C26        -1.2600    3.4480    4.6960 c2        1 O30     -0.098000
     27 C27        -2.2270    3.1040   -0.6360 c1        1 O30      0.356000
     28 O28        -2.6720    4.2430   -0.8200 o         1 O30     -0.356000
     29 N29        -2.0580    2.1980   -1.7650 n3        1 O30     -0.369000
     30 C30        -2.2650    2.6790   -3.1260 c3        1 O30     -0.032000
     31 C31        -0.9110    2.6320   -3.9000 c3        1 O30     -0.232000
     32 C32        -1.1960    2.6080   -5.4390 c3        1 O30     -0.082000
     33 N33         0.0170    2.8970   -6.1590 n3        1 O30     -0.337000
     34 H10         2.6750   -6.9860    0.4920 ha        1 O30      0.100750
     35 H10A        3.9940   -6.0080    0.8480 ha        1 O30      0.100750
     36 H11         2.8310   -6.6140   -1.5910 hc        1 O30      0.087000
     37 H11A        4.3410   -6.5900   -1.1660 hc        1 O30      0.087000
     38 H12         4.4700   -4.3900   -1.3450 hc        1 O30      0.087000
     39 H12A        3.7990   -5.0230   -2.7270 hc        1 O30      0.087000
     40 H13         1.9360   -4.1630   -2.3570 ha        1 O30      0.100750
     41 H13A        2.9500   -3.0530   -1.7770 ha        1 O30      0.100750
     42 H14        -0.6820   -2.2890   -0.8310 ha        1 O30      0.142000
     43 H14A        0.7660   -1.6300   -1.1230 ha        1 O30      0.142000
     44 HN17       -1.5160    0.1520   -0.5610 hn        1 O30      0.262000
     45 H23        -3.0710    5.2000    2.2550 ha        1 O30      0.100750
     46 H23A       -1.6780    5.6210    1.6820 ha        1 O30      0.100750
     47 H24        -2.3350    6.4230    3.8370 hc        1 O30      0.087000
     48 H24A       -0.8580    5.8960    3.6210 hc        1 O30      0.087000
     49 H25        -2.8390    4.5610    4.9060 hc        1 O30      0.087000
     50 H25A       -1.5090    5.1820    5.5490 hc        1 O30      0.087000
     51 H26        -1.7470    2.8350    5.3050 ha        1 O30      0.100750
     52 H26A       -0.2700    3.5880    4.9580 ha        1 O30      0.100750
     53 HN29       -1.8000    1.3160   -1.6190 hn        1 O30      0.237000
     54 H30        -2.9240    2.1080   -3.5800 h1        1 O30      0.100500
     55 H30A       -2.6090    3.6370   -3.0990 h1        1 O30      0.100500
     56 H31        -0.4120    1.8180   -3.6420 hc        1 O30      0.085000
     57 H31A       -0.3820    3.4210   -3.6800 hc        1 O30      0.085000
     58 H32        -1.5360    1.7020   -5.7030 h1        1 O30      0.092500
     59 H32A       -1.8790    3.2940   -5.6590 h1        1 O30      0.092500
     60 HN33        0.7370    2.6070   -5.6770 hn        1 O30      0.141000
     61 HN3A        0.0850    3.8210   -6.2950 hn        1 O30      0.141000
@<TRIPOS>BOND
     1    1    2 1   
     2    2    3 1   
     3    2    4 1   
     4    2    5 1   
     5    5    6 1   
     6    5    9 1   
     7    6    7 1   
     8    7    8 1   
     9    8    9 1   
    10   10   11 1   
    11   10   34 1   
    12   10   35 1   
    13   11   12 1   
    14   11   36 1   
    15   11   37 1   
    16   12   13 1   
    17   12   38 1   
    18   12   39 1   
    19   13   40 1   
    20   13   41 1   
    21   14   15 1   
    22   14   42 1   
    23   14   43 1   
    24   15   16 1   
    25   15   17 1   
    26   17   18 1   
    27   17   44 1   
    28   18   19 1   
    29   18   22 1   
    30   19   20 1   
    31   20   21 1   
    32   21   22 1   
    33   23   24 1   
    34   23   45 1   
    35   23   46 1   
    36   24   25 1   
    37   24   47 1   
    38   24   48 1   
    39   25   26 1   
    40   25   49 1   
    41   25   50 1   
    42   26   51 1   
    43   26   52 1   
    44   27   28 1   
    45   27   29 1   
    46   29   30 1   
    47   29   53 1   
    48   30   31 1   
    49   30   54 1   
    50   30   55 1   
    51   31   32 1   
    52   31   56 1   
    53   31   57 1   
    54   32   33 1   
    55   32   58 1   
    56   32   59 1   
    57   33   60 1   
    58   33   61 1   
@<TRIPOS>SUBSTRUCTURE
     1 O30         1 TEMP              0 ****  ****    0 ROOT
