@<TRIPOS>MOLECULE
O30
   63    66     1     0     0
SMALL
bcc


@<TRIPOS>ATOM
      1 F1          1.5930    5.1290   -5.5790 f         1 O30     -0.248633
      2 C2          1.2600    4.6670   -4.3210 c3        1 O30      0.641600
      3 F3          0.4880    5.7250   -3.8610 f         1 O30     -0.248633
      4 F4          0.3680    3.6620   -4.5370 f         1 O30     -0.248633
      5 C5          2.4380    4.3440   -3.4430 cc        1 O30      0.223600
      6 N6          3.3340    5.3200   -3.0860 nd        1 O30     -0.551800
      7 N7          4.2540    4.7330   -2.3120 na        1 O30      0.111400
      8 C8          3.9920    3.3610   -2.1410 cd        1 O30     -0.054600
      9 C9          2.8150    3.0800   -2.8740 cc        1 O30     -0.157600
     10 C10         2.2170    1.7400   -2.9450 c3        1 O30     -0.020100
     11 C11         3.2210    0.6890   -2.4940 c3        1 O30     -0.083400
     12 C12         3.9490    1.0880   -1.2260 c3        1 O30     -0.078400
     13 C13         4.7770    2.3560   -1.3940 c3        1 O30     -0.028100
     14 C14         5.3620    5.4540   -1.7210 c3        1 O30     -0.011700
     15 C15         4.9480    6.5330   -0.7140 c         1 O30      0.642100
     16 O16         5.4320    6.5800    0.4240 o         1 O30     -0.513100
     17 N17         4.0260    7.5050   -1.1340 n         1 O30     -0.430100
     18 C18         3.4640    8.4250   -0.2850 cc        1 O30      0.113500
     19 S19         4.0290    8.7770    1.2450 ss        1 O30      0.319200
     20 C20         2.8490    9.9180    1.5520 cc        1 O30     -0.132400
     21 C21         1.9470   10.0620    0.5200 cd        1 O30     -0.056300
     22 C22         2.2850    9.1990   -0.5920 cd        1 O30     -0.325600
     23 C23         0.8440   11.0500    0.5760 c3        1 O30     -0.025100
     24 C24         0.7420   11.7720    1.9140 c3        1 O30     -0.077400
     25 C25         2.0850   12.0230    2.5600 c3        1 O30     -0.077400
     26 C26         2.8160   10.7140    2.7960 c3        1 O30     -0.022100
     27 C27         1.6460    9.0780   -1.8480 c         1 O30      0.620700
     28 O28         2.0570    8.5800   -2.9090 o         1 O30     -0.613100
     29 N29         0.2150    9.6030   -1.9560 n4        1 O30     -0.673800
     30 C30        -0.5070    9.1280   -3.1700 c3        1 O30      0.105800
     31 C31        -0.0670    9.7980   -4.4710 c3        1 O30     -0.123400
     32 C32         0.0440    8.8050   -5.6220 c3        1 O30      0.107800
     33 N33         1.2870    7.9870   -5.5900 n4        1 O30     -0.842600
     34 H10         1.3060    1.7070   -2.2840 hc        1 O30      0.073700
     35 H10A        1.8740    1.5190   -3.9910 hc        1 O30      0.073700
     36 H11         3.9670    0.5110   -3.3130 hc        1 O30      0.067200
     37 H11A        2.6780   -0.2770   -2.3190 hc        1 O30      0.067200
     38 H12         4.6340    0.2570   -0.9130 hc        1 O30      0.067200
     39 H12A        3.2040    1.2400   -0.4000 hc        1 O30      0.067200
     40 H13         5.7180    2.1250   -1.9660 hc        1 O30      0.075700
     41 H13A        5.0780    2.7440   -0.3840 hc        1 O30      0.075700
     42 H14         5.9820    5.9440   -2.5290 h1        1 O30      0.126200
     43 H14A        6.0060    4.7070   -1.1650 h1        1 O30      0.126200
     44 HN17        3.7000    7.4870   -2.0790 hn        1 O30      0.361500
     45 H23        -0.1480   10.5450    0.4180 hc        1 O30      0.032700
     46 H23A        0.9960   11.8110   -0.2380 hc        1 O30      0.032700
     47 H24         0.2140   12.7490    1.7540 hc        1 O30      0.067200
     48 H24A        0.1100   11.1590    2.6120 hc        1 O30      0.067200
     49 H25         2.7060   12.6940    1.9110 hc        1 O30      0.071700
     50 H25A        1.9360   12.5450    3.5420 hc        1 O30      0.071700
     51 H26         3.8580   10.9220    3.1590 hc        1 O30      0.081700
     52 H26A        2.2910   10.1270    3.6020 hc        1 O30      0.081700
     53 HN29       -0.2970    9.2830   -1.1210 hn        1 O30      0.471300
     54 H30        -0.3620    8.0080   -3.2250 hx        1 O30      0.116200
     55 H30A       -1.6080    9.3280   -3.0020 hx        1 O30      0.116200
     56 H31         0.9020   10.3560   -4.3470 hc        1 O30      0.106700
     57 H31A       -0.8430   10.5590   -4.7720 hc        1 O30      0.106700
     58 H32        -0.8360    8.0950   -5.6150 hx        1 O30      0.127700
     59 H32A        0.0310    9.3750   -6.6000 hx        1 O30      0.127700
     60 HN33        1.3470    7.4540   -4.7050 hn        1 O30      0.474133
     61 HN3A        2.1160    8.5870   -5.6530 hn        1 O30      0.474133
     62 H292        0.2440   10.6300   -1.9360 hn        1 O30      0.471300
     63 H333        1.2910    7.3140   -6.3690 hn        1 O30      0.474133
@<TRIPOS>BOND
     1    1    2 1   
     2    2    3 1   
     3    2    4 1   
     4    2    5 1   
     5    5    6 2   
     6    5    9 1   
     7    6    7 1   
     8    7    8 1   
     9    7   14 1   
    10    8    9 2   
    11    8   13 1   
    12    9   10 1   
    13   10   11 1   
    14   10   34 1   
    15   10   35 1   
    16   11   12 1   
    17   11   36 1   
    18   11   37 1   
    19   12   13 1   
    20   12   38 1   
    21   12   39 1   
    22   13   40 1   
    23   13   41 1   
    24   14   15 1   
    25   14   42 1   
    26   14   43 1   
    27   15   16 2   
    28   15   17 1   
    29   17   18 1   
    30   17   44 1   
    31   18   19 1   
    32   18   22 2   
    33   19   20 1   
    34   20   21 2   
    35   20   26 1   
    36   21   22 1   
    37   21   23 1   
    38   22   27 1   
    39   23   24 1   
    40   23   45 1   
    41   23   46 1   
    42   24   25 1   
    43   24   47 1   
    44   24   48 1   
    45   25   26 1   
    46   25   49 1   
    47   25   50 1   
    48   26   51 1   
    49   26   52 1   
    50   27   28 2   
    51   27   29 1   
    52   29   30 1   
    53   29   53 1   
    54   29   62 1   
    55   30   31 1   
    56   30   54 1   
    57   30   55 1   
    58   31   32 1   
    59   31   56 1   
    60   31   57 1   
    61   32   33 1   
    62   32   58 1   
    63   32   59 1   
    64   33   60 1   
    65   33   61 1   
    66   33   63 1   
@<TRIPOS>SUBSTRUCTURE
     1 O30         1 TEMP              0 ****  ****    0 ROOT
