@<TRIPOS>MOLECULE
O30
   63    66     1     0     0
SMALL
bcc


@<TRIPOS>ATOM
      1 F1          1.8600    5.1600   -5.6270 f         1 O30     -0.248633
      2 C2          1.4660    4.6770   -4.3960 c3        1 O30      0.641600
      3 F3          0.6450    5.7110   -3.9700 f         1 O30     -0.248633
      4 F4          0.6120    3.6530   -4.6720 f         1 O30     -0.248633
      5 C5          2.6000    4.3710   -3.4540 cc        1 O30      0.223600
      6 N6          3.4500    5.3620   -3.0360 nd        1 O30     -0.551800
      7 N7          4.3380    4.7880   -2.2170 na        1 O30      0.111400
      8 C8          4.0990    3.4080   -2.0750 cd        1 O30     -0.054600
      9 C9          2.9730    3.1090   -2.8770 cc        1 O30     -0.157600
     10 C10         2.4110    1.7570   -2.9950 c3        1 O30     -0.020100
     11 C11         3.4120    0.7240   -2.4980 c3        1 O30     -0.083400
     12 C12         4.0560    1.1250   -1.1860 c3        1 O30     -0.078400
     13 C13         4.8630    2.4130   -1.2940 c3        1 O30     -0.028100
     14 C14         5.3930    5.5270   -1.5560 c3        1 O30     -0.011700
     15 C15         4.8970    6.5850   -0.5630 c         1 O30      0.642100
     16 O16         5.3130    6.6300    0.6010 o         1 O30     -0.513100
     17 N17         3.9780    7.5400   -1.0250 ns        1 O30     -0.430100
     18 C18         3.3450    8.4360   -0.2010 cc        1 O30      0.113500
     19 S19         3.8130    8.7840    1.3630 ss        1 O30      0.319200
     20 C20         2.5910    9.8930    1.6130 cc        1 O30     -0.132400
     21 C21         1.7460   10.0290    0.5330 cd        1 O30     -0.056300
     22 C22         2.1680    9.1860   -0.5680 cd        1 O30     -0.325600
     23 C23         0.6190   10.9890    0.5350 c3        1 O30     -0.025100
     24 C24         0.4220   11.6930    1.8720 c3        1 O30     -0.077400
     25 C25         1.7200   11.9680    2.5970 c3        1 O30     -0.077400
     26 C26         2.4670   10.6730    2.8610 c3        1 O30     -0.022100
     27 C27         1.6050    9.0660   -1.8590 c         1 O30      0.620700
     28 O28         2.0890    8.5900   -2.9000 o         1 O30     -0.613100
     29 N29         0.1710    9.5580   -2.0440 ny        1 O30     -0.673800
     30 C30        -0.4690    9.0810   -3.3030 c3        1 O30      0.105800
     31 C31         0.0300    9.7770   -4.5690 c3        1 O30     -0.123400
     32 C32         0.2300    8.8000   -5.7220 c3        1 O30      0.107800
     33 N33         1.4880    8.0110   -5.6270 nz        1 O30     -0.842600
     34 H10         2.1350    1.5400   -4.0620 hc        1 O30      0.073700
     35 H10A        1.4650    1.6950   -2.3890 hc        1 O30      0.073700
     36 H11         4.2080    0.5720   -3.2750 hc        1 O30      0.067200
     37 H11A        2.8820   -0.2570   -2.3640 hc        1 O30      0.067200
     38 H12         3.2620    1.2500   -0.4040 hc        1 O30      0.067200
     39 H12A        4.7420    0.3060   -0.8430 hc        1 O30      0.067200
     40 H13         5.8400    2.2100   -1.8130 hc        1 O30      0.075700
     41 H13A        5.0970    2.7960   -0.2650 hc        1 O30      0.075700
     42 H14         6.0210    4.7890   -0.9710 h1        1 O30      0.126200
     43 H14A        6.0460    6.0410   -2.3210 h1        1 O30      0.126200
     44 HN17        3.7070    7.5260   -1.9880 hn        1 O30      0.361500
     45 H23         0.7990   11.7630   -0.2610 hc        1 O30      0.032700
     46 H23A       -0.3500   10.4630    0.3150 hc        1 O30      0.032700
     47 H24        -0.2330   11.0570    2.5260 hc        1 O30      0.067200
     48 H24A       -0.1190   12.6590    1.6930 hc        1 O30      0.067200
     49 H25         1.5020   12.4750    3.5750 hc        1 O30      0.071700
     50 H25A        2.3600   12.6610    1.9920 hc        1 O30      0.071700
     51 H26         3.4820   10.9030    3.2860 hc        1 O30      0.081700
     52 H26A        1.9110   10.0650    3.6290 hc        1 O30      0.081700
     53 HN29       -0.3810    9.2170   -1.2440 hn        1 O30      0.471300
     54 H30        -0.2940    7.9650   -3.3610 hx        1 O30      0.116200
     55 H30A       -1.5820    9.2550   -3.1960 hx        1 O30      0.116200
     56 H31        -0.7460   10.5230   -4.9060 hc        1 O30      0.106700
     57 H31A        0.9760   10.3550   -4.3840 hc        1 O30      0.106700
     58 H32         0.2600    9.3810   -6.6930 hx        1 O30      0.127700
     59 H32A       -0.6310    8.0700   -5.7740 hx        1 O30      0.127700
     60 HN33        2.3050    8.6300   -5.6350 hn        1 O30      0.474133
     61 HN3A        1.5530    7.3470   -6.4110 hn        1 O30      0.474133
     62 H292        0.1740   10.5860   -2.0120 hn        1 O30      0.471300
     63 H333        1.5100    7.4690   -4.7460 hn        1 O30      0.474133
@<TRIPOS>BOND
     1    1    2 1   
     2    2    3 1   
     3    2    4 1   
     4    2    5 1   
     5    5    6 2   
     6    5    9 1   
     7    6    7 1   
     8    7    8 1   
     9    7   14 1   
    10    8    9 2   
    11    8   13 1   
    12    9   10 1   
    13   10   11 1   
    14   10   34 1   
    15   10   35 1   
    16   11   12 1   
    17   11   36 1   
    18   11   37 1   
    19   12   13 1   
    20   12   38 1   
    21   12   39 1   
    22   13   40 1   
    23   13   41 1   
    24   14   15 1   
    25   14   42 1   
    26   14   43 1   
    27   15   16 2   
    28   15   17 1   
    29   17   18 1   
    30   17   44 1   
    31   18   19 1   
    32   18   22 2   
    33   19   20 1   
    34   20   21 2   
    35   20   26 1   
    36   21   22 1   
    37   21   23 1   
    38   22   27 1   
    39   23   24 1   
    40   23   45 1   
    41   23   46 1   
    42   24   25 1   
    43   24   47 1   
    44   24   48 1   
    45   25   26 1   
    46   25   49 1   
    47   25   50 1   
    48   26   51 1   
    49   26   52 1   
    50   27   28 2   
    51   27   29 1   
    52   29   30 1   
    53   29   53 1   
    54   29   62 1   
    55   30   31 1   
    56   30   54 1   
    57   30   55 1   
    58   31   32 1   
    59   31   56 1   
    60   31   57 1   
    61   32   33 1   
    62   32   58 1   
    63   32   59 1   
    64   33   60 1   
    65   33   61 1   
    66   33   63 1   
@<TRIPOS>SUBSTRUCTURE
     1 O30         1 TEMP              0 ****  ****    0 ROOT
