@<TRIPOS>MOLECULE
O30
   64    67     1     0     0
SMALL
bcc


@<TRIPOS>ATOM
      1 F1         -0.3320    2.7610    0.6390 f         1 O30     -0.212300
      2 C2          0.9620    2.7580    1.0930 c3        1 O30      0.623600
      3 F3          1.0230    3.8260    1.9580 f         1 O30     -0.212300
      4 F4          1.0820    1.6450    1.8720 f         1 O30     -0.212300
      5 C5          1.9950    2.8570   -0.0280 cc        1 O30      0.316600
      6 N6          1.9010    3.7940   -1.0100 nd        1 O30     -0.643800
      7 N7          2.9980    3.6570   -1.7960 na        1 O30      0.052400
      8 C8          3.7860    2.5520   -1.3730 cd        1 O30     -0.036600
      9 C9          3.1730    2.0400   -0.2140 cc        1 O30     -0.152600
     10 C10         3.7270    0.9170    0.5550 c3        1 O30     -0.029100
     11 C11         4.7750    0.1790   -0.2640 c3        1 O30     -0.086400
     12 C12         5.7300    1.1180   -0.9730 c3        1 O30     -0.080400
     13 C13         5.0280    2.0270   -1.9760 c3        1 O30     -0.033100
     14 C14         3.0190    4.1400   -3.1530 c3        1 O30     -0.004700
     15 C15         2.6140    5.6030   -3.3000 c         1 O30      0.556100
     16 O16         3.2440    6.4880   -3.8480 o         1 O30     -0.405100
     17 N17         1.2210    5.9890   -2.7920 n4        1 O30     -0.513200
     18 C18         1.2690    6.9470   -1.7160 cc        1 O30     -0.156500
     19 S19         1.4370    6.5290   -0.1280 ss        1 O30      0.561200
     20 C20         1.3620    8.0560    0.4260 cc        1 O30     -0.147400
     21 C21         1.1970    9.0080   -0.5970 cd        1 O30     -0.029300
     22 C22         1.1590    8.3700   -1.8690 cd        1 O30     -0.221600
     23 C23         1.0740   10.4530   -0.3010 c3        1 O30     -0.039100
     24 C24         0.8860   10.7400    1.1830 c3        1 O30     -0.081400
     25 C25         1.7780    9.8790    2.0460 c3        1 O30     -0.081400
     26 C26         1.4460    8.4120    1.8610 c3        1 O30     -0.036100
     27 C27         1.0050    8.9740   -3.1720 c         1 O30      0.610700
     28 O28         0.7280    8.4180   -4.2320 o         1 O30     -0.470100
     29 N29         1.2220   10.4810   -3.2820 n4        1 O30     -0.671800
     30 C30         1.2930   10.9580   -4.6950 c3        1 O30      0.106800
     31 C31         1.3960   12.4800   -4.8160 c3        1 O30     -0.134400
     32 C32         1.4230   12.8380   -6.3040 c3        1 O30      0.104800
     33 N33         1.5070   14.3030   -6.5640 n4        1 O30     -0.837600
     34 H10         4.1880    1.3110    1.5040 hc        1 O30      0.089700
     35 H10A        2.9070    0.2090    0.8570 hc        1 O30      0.089700
     36 H11         5.3600   -0.4920    0.4210 hc        1 O30      0.075200
     37 H11A        4.2660   -0.4780   -1.0180 hc        1 O30      0.075200
     38 H12         6.5040    0.5180   -1.5220 hc        1 O30      0.073200
     39 H12A        6.2670    1.7480   -0.2150 hc        1 O30      0.073200
     40 H13         4.7690    1.4430   -2.9020 hc        1 O30      0.074200
     41 H13A        5.7180    2.8600   -2.2760 hc        1 O30      0.074200
     42 H14         4.0840    4.0510   -3.5360 h1        1 O30      0.138200
     43 H14A        2.3360    3.5380   -3.8300 h1        1 O30      0.138200
     44 HN17        0.7170    5.1440   -2.4690 hn        1 O30      0.488300
     45 H23         0.1840   10.8860   -0.8350 hc        1 O30      0.042700
     46 H23A        2.0070   10.9790   -0.6460 hc        1 O30      0.042700
     47 H24         1.1090   11.8240    1.3720 hc        1 O30      0.081200
     48 H24A       -0.1880   10.5660    1.4630 hc        1 O30      0.081200
     49 H25         1.6330   10.1520    3.1270 hc        1 O30      0.083700
     50 H25A        2.8560   10.0650    1.7980 hc        1 O30      0.083700
     51 H26         0.4540    8.1900    2.3520 hc        1 O30      0.100700
     52 H26A        2.2200    7.7820    2.3800 hc        1 O30      0.100700
     53 HN29        0.4420   10.9490   -2.7970 hn        1 O30      0.472300
     54 H30         0.3650   10.5890   -5.2280 hx        1 O30      0.132200
     55 H30A        2.1880   10.4640   -5.1770 hx        1 O30      0.132200
     56 H31         2.3320   12.8490   -4.3130 hc        1 O30      0.093200
     57 H31A        0.5170   12.9720   -4.3170 hc        1 O30      0.093200
     58 H32         0.4830   12.4580   -6.8090 hx        1 O30      0.131200
     59 H32A        2.3160   12.3520   -6.8010 hx        1 O30      0.131200
     60 HN33        0.6970   14.7950   -6.1660 hn        1 O30      0.482133
     61 HN3A        2.3640   14.7000   -6.1580 hn        1 O30      0.482133
     62 H172        0.6880    6.3910   -3.5820 hn        1 O30      0.488300
     63 H292        2.0910   10.7170   -2.7830 hn        1 O30      0.472300
     64 H333        1.5210   14.4690   -7.5830 hn        1 O30      0.482133
@<TRIPOS>BOND
     1    1    2 1   
     2    2    3 1   
     3    2    4 1   
     4    2    5 1   
     5    5    6 2   
     6    5    9 1   
     7    6    7 1   
     8    7    8 1   
     9    7   14 1   
    10    8    9 2   
    11    8   13 1   
    12    9   10 1   
    13   10   11 1   
    14   10   34 1   
    15   10   35 1   
    16   11   12 1   
    17   11   36 1   
    18   11   37 1   
    19   12   13 1   
    20   12   38 1   
    21   12   39 1   
    22   13   40 1   
    23   13   41 1   
    24   14   15 1   
    25   14   42 1   
    26   14   43 1   
    27   15   16 2   
    28   15   17 1   
    29   17   18 1   
    30   17   44 1   
    31   17   62 1   
    32   18   19 1   
    33   18   22 2   
    34   19   20 1   
    35   20   21 2   
    36   20   26 1   
    37   21   22 1   
    38   21   23 1   
    39   22   27 1   
    40   23   24 1   
    41   23   45 1   
    42   23   46 1   
    43   24   25 1   
    44   24   47 1   
    45   24   48 1   
    46   25   26 1   
    47   25   49 1   
    48   25   50 1   
    49   26   51 1   
    50   26   52 1   
    51   27   28 2   
    52   27   29 1   
    53   29   30 1   
    54   29   53 1   
    55   29   63 1   
    56   30   31 1   
    57   30   54 1   
    58   30   55 1   
    59   31   32 1   
    60   31   56 1   
    61   31   57 1   
    62   32   33 1   
    63   32   58 1   
    64   32   59 1   
    65   33   60 1   
    66   33   61 1   
    67   33   64 1   
@<TRIPOS>SUBSTRUCTURE
     1 O30         1 TEMP              0 ****  ****    0 ROOT
