@<TRIPOS>MOLECULE
O38
   57    60     1     0     0
SMALL
bcc


@<TRIPOS>ATOM
      1 N6          1.4830    2.8720   -0.7540 n1        1 O38     -0.346800
      2 C23         0.9430    1.8940   -0.4330 c1        1 O38      0.179700
      3 C22         0.2480    0.6790   -0.0360 c3        1 O38      0.195500
      4 O           1.1250   -0.4330    0.1280 os        1 O38     -0.323900
      5 C21         1.9600   -0.3660    1.2430 ca        1 O38      0.101100
      6 C4          3.3550   -0.4110    1.0500 ca        1 O38      0.014000
      7 C2          3.9600   -0.4520   -0.2500 cc        1 O38     -0.218300
      8 C1          5.2510   -0.0200   -0.6150 cd        1 O38     -0.126300
      9 C3          3.3950   -0.9690   -1.4840 cc        1 O38      0.332200
     10 N1          4.2850   -0.8500   -2.4970 nd        1 O38     -0.513800
     11 N           5.3940   -0.2860   -1.9790 na        1 O38      0.088400
     12 C           6.5590    0.0500   -2.7580 c3        1 O38      0.040600
     13 C20         1.3930   -0.3540    2.5210 ca        1 O38     -0.197000
     14 C7          2.2210   -0.3790    3.6610 ca        1 O38      0.148600
     15 C6          3.6210   -0.4140    3.4800 ca        1 O38     -0.112000
     16 C5          4.1600   -0.4320    2.2020 ca        1 O38     -0.112000
     17 N2          1.6410   -0.4570    4.9450 nh        1 O38     -0.727300
     18 C8          1.9530    0.4210    5.9960 ca        1 O38      0.712200
     19 N5          2.9740    1.3110    5.8610 nb        1 O38     -0.783000
     20 C13         3.3050    2.0980    6.9340 ca        1 O38      0.739200
     21 C11         2.5630    2.0360    8.1670 ca        1 O38     -0.259300
     22 C12         2.8860    2.8690    9.2610 cg        1 O38      0.249800
     23 N3          3.1440    3.5530   10.1680 n1        1 O38     -0.387800
     24 C10         1.5060    1.1230    8.2680 ca        1 O38      0.016000
     25 C9          1.1810    0.3080    7.2000 ca        1 O38     -0.357300
     26 N4          4.4180    2.9280    6.8580 nh        1 O38     -0.839900
     27 C14         5.0710    3.2550    5.6030 c3        1 O38      0.214500
     28 C19         6.4730    3.8380    5.8640 c3        1 O38     -0.093900
     29 C18         7.1880    4.0850    4.5530 c3        1 O38     -0.074400
     30 C17         6.4000    5.0170    3.6560 c3        1 O38     -0.081400
     31 C16         4.9980    4.4930    3.4240 c3        1 O38     -0.074400
     32 C15         4.2760    4.2420    4.7300 c3        1 O38     -0.093900
     33 H1         -0.4430    0.3420   -0.8620 h1        1 O38      0.082700
     34 H2         -0.3330    0.8730    0.9060 h1        1 O38      0.082700
     35 H3          6.0400    0.4440   -0.0250 h4        1 O38      0.175000
     36 H4          2.4010   -1.3990   -1.6180 h4        1 O38      0.057100
     37 H5          6.3270    0.9060   -3.4480 h1        1 O38      0.058367
     38 H6          7.3850    0.3460   -2.0610 h1        1 O38      0.058367
     39 H7          6.8830   -0.8330   -3.3710 h1        1 O38      0.058367
     40 H8          0.2970   -0.3380    2.6190 ha        1 O38      0.136000
     41 H9          4.2950   -0.4310    4.3510 ha        1 O38      0.157000
     42 H10         5.2550   -0.4720    2.0820 ha        1 O38      0.137000
     43 H11         0.6950   -0.7770    4.9570 hn        1 O38      0.430800
     44 H12         0.9320    1.0600    9.2060 ha        1 O38      0.148000
     45 H13         0.3590   -0.4140    7.2770 ha        1 O38      0.148000
     46 H14         4.4520    3.6490    7.5470 hn        1 O38      0.426800
     47 H15         5.2010    2.2950    5.0190 h1        1 O38      0.083700
     48 H16         7.0730    3.1270    6.4890 hc        1 O38      0.048450
     49 H17         6.3860    4.8020    6.4310 hc        1 O38      0.048450
     50 H18         7.3510    3.1070    4.0260 hc        1 O38      0.044200
     51 H19         8.1970    4.5270    4.7610 hc        1 O38      0.044200
     52 H20         6.3470    6.0330    4.1280 hc        1 O38      0.041700
     53 H21         6.9270    5.1290    2.6740 hc        1 O38      0.041700
     54 H22         4.4160    5.2350    2.8160 hc        1 O38      0.044200
     55 H23         5.0460    3.5400    2.8340 hc        1 O38      0.044200
     56 H24         4.1410    5.2100    5.2790 hc        1 O38      0.048450
     57 H25         3.2580    3.8230    4.5170 hc        1 O38      0.048450
@<TRIPOS>BOND
     1    1    2 3   
     2    2    3 1   
     3    3    4 1   
     4    3   33 1   
     5    3   34 1   
     6    4    5 1   
     7    5    6 ar  
     8    5   13 ar  
     9    6    7 1   
    10    6   16 ar  
    11    7    8 2   
    12    7    9 1   
    13    8   11 1   
    14    8   35 1   
    15    9   10 2   
    16    9   36 1   
    17   10   11 1   
    18   11   12 1   
    19   12   37 1   
    20   12   38 1   
    21   12   39 1   
    22   13   14 ar  
    23   13   40 1   
    24   14   15 ar  
    25   14   17 1   
    26   15   16 ar  
    27   15   41 1   
    28   16   42 1   
    29   17   18 1   
    30   17   43 1   
    31   18   19 ar  
    32   18   25 ar  
    33   19   20 ar  
    34   20   21 ar  
    35   20   26 1   
    36   21   22 1   
    37   21   24 ar  
    38   22   23 3   
    39   24   25 ar  
    40   24   44 1   
    41   25   45 1   
    42   26   27 1   
    43   26   46 1   
    44   27   28 1   
    45   27   32 1   
    46   27   47 1   
    47   28   29 1   
    48   28   48 1   
    49   28   49 1   
    50   29   30 1   
    51   29   50 1   
    52   29   51 1   
    53   30   31 1   
    54   30   52 1   
    55   30   53 1   
    56   31   32 1   
    57   31   54 1   
    58   31   55 1   
    59   32   56 1   
    60   32   57 1   
@<TRIPOS>SUBSTRUCTURE
     1 O38         1 TEMP              0 ****  ****    0 ROOT
