@<TRIPOS>MOLECULE
O38
   57    59     1     0     0
SMALL
bcc


@<TRIPOS>ATOM
      1 N6          1.2690    2.7820   -0.7090 n1        1 O38     -0.346800
      2 C23         0.8160    1.7600   -0.3910 c1        1 O38      0.179700
      3 C22         0.2280    0.4890    0.0030 c3        1 O38      0.195500
      4 O           1.1960   -0.5500    0.1390 os        1 O38     -0.323900
      5 C21         2.0360   -0.4320    1.2450 ca        1 O38      0.101100
      6 C4          3.4270   -0.3580    1.0370 ca        1 O38      0.014000
      7 C2          4.0170   -0.3280   -0.2710 cc        1 O38     -0.219300
      8 C1          5.2610    0.2190   -0.6440 cd        1 O38     -0.126300
      9 C3          3.4830   -0.8740   -1.5060 cc        1 O38      0.332200
     10 N1          4.3460   -0.6630   -2.5270 nd        1 O38     -0.513800
     11 N           5.4090   -0.0140   -2.0140 na        1 O38      0.088400
     12 C           6.5290    0.4350   -2.8020 c3        1 O38      0.040600
     13 C20         1.4860   -0.4860    2.5300 ca        1 O38     -0.196000
     14 C7          2.3280   -0.4620    3.6600 ca        1 O38      0.148600
     15 C6          3.7240   -0.3790    3.4630 ca        1 O38     -0.113000
     16 C5          4.2460   -0.3320    2.1790 ca        1 O38     -0.112000
     17 N2          1.7720   -0.6100    4.9490 nu        1 O38     -0.727300
     18 C8          2.0270    0.2650    6.0160 ca        1 O38      0.712200
     19 N5          2.9730    1.2370    5.8920 nb        1 O38     -0.782000
     20 C13         3.2540    2.0210    6.9800 ca        1 O38      0.737200
     21 C11         2.5360    1.8710    8.2200 ca        1 O38     -0.258300
     22 C12         2.8060    2.7010    9.3310 cg        1 O38      0.249800
     23 N3          3.0210    3.3800   10.2530 n1        1 O38     -0.386800
     24 C10         1.5550    0.8750    8.3090 ca        1 O38      0.015000
     25 C9          1.2820    0.0640    7.2250 ca        1 O38     -0.356300
     26 N4          4.3000    2.9370    6.9160 nu        1 O38     -0.840900
     27 C14         4.8950    3.3620    5.6570 c3        1 O38      0.216500
     28 C19         6.2680    4.0140    5.9330 c3        1 O38     -0.061200
     29 C18         7.1810    3.8950    4.7710 c2        1 O38     -0.160200
     30 C17         8.0030    4.8660    4.3770 c2        1 O38     -0.224000
     31 C16         4.3690    4.3810    3.4080 c3        1 O38     -0.095100
     32 C15         3.9920    4.3270    4.8640 c3        1 O38     -0.101400
     33 H1         -0.3510    0.6250    0.9570 h1        1 O38      0.082700
     34 H2         -0.4460    0.1060   -0.8160 h1        1 O38      0.082700
     35 H3          6.0150    0.7410   -0.0560 h4        1 O38      0.175000
     36 H4          2.5270   -1.3850   -1.6350 h4        1 O38      0.057100
     37 H5          6.9140   -0.4040   -3.4400 h1        1 O38      0.058367
     38 H6          6.2160    1.2840   -3.4670 h1        1 O38      0.058367
     39 H7          7.3400    0.7820   -2.1100 h1        1 O38      0.058367
     40 H8          0.3940   -0.5620    2.6410 ha        1 O38      0.136000
     41 H9          4.4080   -0.3560    4.3250 ha        1 O38      0.157000
     42 H10         5.3390   -0.2800    2.0450 ha        1 O38      0.137000
     43 H11         0.8560   -1.0070    4.9640 hn        1 O38      0.430800
     44 H12         1.0000    0.7440    9.2520 ha        1 O38      0.148000
     45 H13         0.5200   -0.7230    7.2940 ha        1 O38      0.148000
     46 H14         4.2810    3.6420    7.6220 hn        1 O38      0.424800
     47 H15         5.0630    2.4380    5.0270 h1        1 O38      0.086700
     48 H16         6.1210    5.0890    6.2180 hc        1 O38      0.057700
     49 H17         6.7670    3.5040    6.8050 hc        1 O38      0.057700
     50 H18         7.1640    2.9200    4.2550 ha        1 O38      0.122000
     51 H19         8.0430    5.8480    4.8670 ha        1 O38      0.113000
     52 H20         5.4260    4.7220    3.2820 hc        1 O38      0.039700
     53 H21         8.6940    4.7410    3.5340 ha        1 O38      0.113000
     54 H22         3.7010    5.0950    2.8670 hc        1 O38      0.039700
     55 H23         4.2640    3.3750    2.9350 hc        1 O38      0.039700
     56 H24         2.9230    3.9920    4.9440 hc        1 O38      0.044700
     57 H25         4.0530    5.3530    5.3130 hc        1 O38      0.044700
@<TRIPOS>BOND
     1    1    2 3   
     2    2    3 1   
     3    3    4 1   
     4    3   33 1   
     5    3   34 1   
     6    4    5 1   
     7    5    6 ar  
     8    5   13 ar  
     9    6    7 1   
    10    6   16 ar  
    11    7    8 2   
    12    7    9 1   
    13    8   11 1   
    14    8   35 1   
    15    9   10 2   
    16    9   36 1   
    17   10   11 1   
    18   11   12 1   
    19   12   37 1   
    20   12   38 1   
    21   12   39 1   
    22   13   14 ar  
    23   13   40 1   
    24   14   15 ar  
    25   14   17 1   
    26   15   16 ar  
    27   15   41 1   
    28   16   42 1   
    29   17   18 1   
    30   17   43 1   
    31   18   19 ar  
    32   18   25 ar  
    33   19   20 ar  
    34   20   21 ar  
    35   20   26 1   
    36   21   22 1   
    37   21   24 ar  
    38   22   23 3   
    39   24   25 ar  
    40   24   44 1   
    41   25   45 1   
    42   26   27 1   
    43   26   46 1   
    44   27   28 1   
    45   27   32 1   
    46   27   47 1   
    47   28   29 1   
    48   28   48 1   
    49   28   49 1   
    50   29   30 2   
    51   29   50 1   
    52   30   51 1   
    53   30   53 1   
    54   31   32 1   
    55   31   52 1   
    56   31   54 1   
    57   31   55 1   
    58   32   56 1   
    59   32   57 1   
@<TRIPOS>SUBSTRUCTURE
     1 O38         1 TEMP              0 ****  ****    0 ROOT
