@<TRIPOS>MOLECULE
O3N
   76    79     1     0     0
SMALL
bcc


@<TRIPOS>ATOM
      1 C1         -5.6920    2.8650   -2.1310 ca        1 O3N     -0.151000
      2 C2         -6.3330    1.6320   -2.0020 ca        1 O3N     -0.137000
      3 C3         -4.3060    2.9340   -2.0470 ca        1 O3N     -0.097000
      4 C4         -5.5820    0.4820   -1.7830 ca        1 O3N     -0.142000
      5 C5         -0.5000   -2.7620   -1.4290 ca        1 O3N     -0.147000
      6 C6          0.8620   -2.7460   -1.7070 ca        1 O3N     -0.158000
      7 C7         -3.5440    1.7760   -1.8230 ca        1 O3N     -0.092600
      8 C8         -0.1480   -1.5250    0.6440 ca        1 O3N     -0.080600
      9 C9         -4.1820    0.5400   -1.6830 ca        1 O3N     -0.040300
     10 C10        -1.0000   -2.1800   -0.2590 ca        1 O3N     -0.097300
     11 C11         1.7320   -2.1280   -0.8000 ca        1 O3N      0.057100
     12 C12         1.2280   -1.5050    0.3600 ca        1 O3N      0.062100
     13 C14        -4.2690   -1.3200    2.1780 c2        1 O3N     -0.136200
     14 C15        -2.0530    1.9610   -1.8290 c         1 O3N      0.649700
     15 C17         7.8030   -1.5500   -0.1200 c         1 O3N      0.908600
     16 C18         2.0190    4.6860    1.9820 c3        1 O3N     -0.075400
     17 C19         2.5080    4.5720    0.5530 c3        1 O3N     -0.069900
     18 C20         0.5080    4.6050    2.0460 c3        1 O3N     -0.069900
     19 C21         2.0090    3.2960   -0.0920 c3        1 O3N     -0.080900
     20 C22        -0.0100    3.3410    1.3920 c3        1 O3N     -0.080900
     21 C23         3.3810   -0.6280    0.7490 c3        1 O3N      0.092400
     22 C24         0.4900    3.1990   -0.0360 c3        1 O3N     -0.070700
     23 C25         3.9380   -1.8310   -0.0050 c3        1 O3N      0.103100
     24 C26        -3.4300   -0.7440   -1.4680 c3        1 O3N      0.207100
     25 C27        -2.4550   -2.3280    0.0780 c3        1 O3N      0.214100
     26 C28        -4.4650   -1.1170    0.7070 c3        1 O3N      0.201000
     27 C30         0.0760    1.8370   -0.6240 c3        1 O3N      0.086000
     28 C31         5.3250   -1.5780   -0.5810 c3        1 O3N     -0.061400
     29 N32        -1.3450    1.6290   -0.7160 n         1 O3N     -0.516900
     30 N33        -3.2350   -1.1030   -0.0710 n3        1 O3N     -0.713600
     31 O34        -0.8670    0.3890    1.8900 o         1 O3N     -0.835800
     32 O35         8.7160   -2.4200   -0.0040 o         1 O3N     -0.855800
     33 O36        -1.5190    2.4640   -2.8510 o         1 O3N     -0.665100
     34 O37        -1.1330   -1.6150    2.8240 o         1 O3N     -0.835800
     35 O38         7.9880   -0.4080   -0.6300 o         1 O3N     -0.855800
     36 O39         2.0770   -0.8970    1.2730 os        1 O3N     -0.302900
     37 O40         3.0780   -2.1390   -1.1240 os        1 O3N     -0.331900
     38 H1         -6.2800    3.7770   -2.3010 ha        1 O3N      0.117000
     39 H2         -7.4280    1.5690   -2.0720 ha        1 O3N      0.114000
     40 H3         -3.7850    3.8960   -2.1710 ha        1 O3N      0.143000
     41 H4         -6.0850   -0.4910   -1.6760 ha        1 O3N      0.126000
     42 H5         -1.1890   -3.2480   -2.1340 ha        1 O3N      0.106000
     43 H6          1.2670   -3.2050   -2.6170 ha        1 O3N      0.128000
     44 H261       -3.9810   -1.5590   -2.0330 h1        1 O3N      0.042700
     45 H262       -2.4000   -0.6600   -1.9230 h1        1 O3N      0.042700
     46 H271       -2.8970   -3.1610   -0.5480 h1        1 O3N      0.048200
     47 H272       -2.5060   -2.6410    1.1660 h1        1 O3N      0.048200
     48 H131       -5.1280   -1.8590    4.0440 ha        1 O3N      0.091500
     49 H132       -6.2590   -1.9910    2.5860 ha        1 O3N      0.091500
     50 H14        -3.2560   -1.0800    2.5800 ha        1 O3N      0.215000
     51 H281       -5.1940   -1.8900    0.3120 h1        1 O3N      0.020700
     52 H282       -4.9540   -0.1050    0.5780 h1        1 O3N      0.020700
     53 H32        -1.7710    1.1750    0.0730 hn        1 O3N      0.377500
     54 H291        6.3790   -2.9920    0.6820 hc        1 O3N      0.022700
     55 H292        6.2440   -1.3190    1.3610 hc        1 O3N      0.022700
     56 H181        2.4620    3.8570    2.5940 hc        1 O3N      0.029700
     57 H182        2.3670    5.6560    2.4240 hc        1 O3N      0.029700
     58 H191        2.1500    5.4560   -0.0360 hc        1 O3N      0.022950
     59 H192        3.6290    4.5860    0.5360 hc        1 O3N      0.022950
     60 H201        0.1770    4.6310    3.1170 hc        1 O3N      0.022950
     61 H202        0.0680    5.5020    1.5360 hc        1 O3N      0.022950
     62 H211        2.3460    3.2610   -1.1610 hc        1 O3N      0.059200
     63 H212        2.4560    2.4110    0.4330 hc        1 O3N      0.059200
     64 H221        0.2950    2.4340    1.9840 hc        1 O3N      0.059200
     65 H222       -1.1310    3.3590    1.3970 hc        1 O3N      0.059200
     66 H24         0.0540    4.0240   -0.6630 hc        1 O3N      0.033700
     67 H231        3.9990   -0.4010    1.6560 h1        1 O3N      0.064700
     68 H232        3.3260    0.2680    0.0770 h1        1 O3N      0.064700
     69 H25         3.9420   -2.7310    0.6720 h1        1 O3N      0.053700
     70 H301        0.5320    1.7440   -1.6510 h1        1 O3N      0.076700
     71 H302        0.4830    1.0200    0.0490 h1        1 O3N      0.076700
     72 H311        5.4550   -2.2110   -1.4980 hc        1 O3N      0.059700
     73 H312        5.4240   -0.5070   -0.9000 hc        1 O3N      0.059700
     74 C13        -5.2600   -1.7390    2.9620 c2        1 O3N     -0.281000
     75 C29         6.4060   -1.9040    0.4200 c3        1 O3N     -0.193400
     76 C16        -0.7400   -0.8690    1.8820 c         1 O3N      0.935200
@<TRIPOS>BOND
     1    1    2 ar  
     2    1    3 ar  
     3    1   38 1   
     4    2    4 ar  
     5    2   39 1   
     6    3    7 ar  
     7    3   40 1   
     8    4    9 ar  
     9    4   41 1   
    10    5    6 ar  
    11    5   10 ar  
    12    5   42 1   
    13    6   11 ar  
    14    6   43 1   
    15    7    9 ar  
    16    7   14 1   
    17    8   10 ar  
    18    8   12 ar  
    19    8   76 1   
    20    9   24 1   
    21   10   25 1   
    22   11   12 ar  
    23   11   37 1   
    24   12   36 1   
    25   13   26 1   
    26   13   50 1   
    27   13   74 2   
    28   14   29 1   
    29   14   33 2   
    30   15   32 1   
    31   15   35 1   
    32   15   75 1   
    33   16   17 1   
    34   16   18 1   
    35   16   56 1   
    36   16   57 1   
    37   17   19 1   
    38   17   58 1   
    39   17   59 1   
    40   18   20 1   
    41   18   60 1   
    42   18   61 1   
    43   19   22 1   
    44   19   62 1   
    45   19   63 1   
    46   20   22 1   
    47   20   64 1   
    48   20   65 1   
    49   21   23 1   
    50   21   36 1   
    51   21   67 1   
    52   21   68 1   
    53   22   27 1   
    54   22   66 1   
    55   23   28 1   
    56   23   37 1   
    57   23   69 1   
    58   24   30 1   
    59   24   44 1   
    60   24   45 1   
    61   25   30 1   
    62   25   46 1   
    63   25   47 1   
    64   26   30 1   
    65   26   51 1   
    66   26   52 1   
    67   27   29 1   
    68   27   70 1   
    69   27   71 1   
    70   28   72 1   
    71   28   73 1   
    72   28   75 1   
    73   29   53 1   
    74   31   76 1   
    75   34   76 1   
    76   48   74 1   
    77   49   74 1   
    78   54   75 1   
    79   55   75 1   
@<TRIPOS>SUBSTRUCTURE
     1 O3N         1 TEMP              0 ****  ****    0 ROOT
