@<TRIPOS>MOLECULE
O3N
   78    81     1     0     0
SMALL
bcc


@<TRIPOS>ATOM
      1 C1         -0.4110    2.2200    1.2410 ca        1 O3N     -0.112000
      2 C2          0.9330    2.3520    1.5900 ca        1 O3N     -0.121000
      3 C3         -1.2250    1.3260    1.9350 ca        1 O3N     -0.096000
      4 C4          1.4600    1.5980    2.6360 ca        1 O3N     -0.117000
      5 C5          2.5900   -0.6090    7.6520 ca        1 O3N     -0.121000
      6 C6          2.2580   -0.0380    8.8830 ca        1 O3N     -0.103000
      7 C7         -0.6970    0.5620    2.9800 ca        1 O3N     -0.091600
      8 C8          0.4900   -1.8400    7.5950 ca        1 O3N     -0.152600
      9 C9          0.6480    0.7020    3.3450 ca        1 O3N     -0.093300
     10 C10         1.7100   -1.4710    6.9950 ca        1 O3N     -0.102300
     11 C11         1.0380   -0.3710    9.4700 ca        1 O3N      0.095100
     12 C12         0.1880   -1.3220    8.8610 ca        1 O3N      0.139100
     13 C14         1.6290   -3.5220    3.2010 c2        1 O3N     -0.208200
     14 C15        -1.5830   -0.4580    3.6340 c         1 O3N      0.641700
     15 C18        -7.3830   -2.0960    3.6710 c3        1 O3N     -0.076400
     16 C19        -7.2630   -1.5580    5.0820 c3        1 O3N     -0.075400
     17 C20        -6.4730   -1.3460    2.7200 c3        1 O3N     -0.075400
     18 C21        -5.8260   -1.5810    5.5610 c3        1 O3N     -0.074400
     19 C22        -5.0360   -1.3690    3.2000 c3        1 O3N     -0.074400
     20 C23        -1.5610   -0.8560   10.4150 c3        1 O3N      0.099400
     21 C24        -4.9160   -0.8150    4.6110 c3        1 O3N     -0.068700
     22 C25        -0.7640    0.3880   10.7990 c3        1 O3N      0.120100
     23 C26         1.2170    0.0340    4.5540 c3        1 O3N      0.134100
     24 C27         2.0800   -1.9960    5.6460 c3        1 O3N      0.167100
     25 C28         1.6290   -2.0300    3.2240 c3        1 O3N      0.150000
     26 C30        -3.4740   -0.9140    5.1310 c3        1 O3N      0.052000
     27 C31        -1.2790    1.6590   10.1290 c3        1 O3N     -0.083400
     28 N32        -2.5580   -0.0100    4.4750 n         1 O3N     -0.495900
     29 N33         1.2050   -1.4660    4.5450 n4        1 O3N     -0.679400
     30 O34        -1.8040   -2.5510    7.0650 oh        1 O3N     -0.562100
     31 O35        -0.9410    1.2860    6.4400 o         1 O3N     -0.875800
     32 O36        -1.4160   -1.6700    3.3330 o         1 O3N     -0.677100
     33 O37        -0.1730   -3.6140    6.0970 o         1 O3N     -0.570000
     34 O38        -2.2900    0.2520    7.8520 o         1 O3N     -0.875800
     35 O39        -0.9290   -1.7790    9.5100 os        1 O3N     -0.312900
     36 O40         0.6620    0.2240   10.6540 os        1 O3N     -0.310900
     37 H1         -0.8310    2.8240    0.4220 ha        1 O3N      0.143000
     38 H2          1.5790    3.0560    1.0440 ha        1 O3N      0.140000
     39 H3         -2.2870    1.2170    1.6650 ha        1 O3N      0.154000
     40 H4          2.5170    1.7230    2.9180 ha        1 O3N      0.132000
     41 H5          3.5530   -0.3480    7.1870 ha        1 O3N      0.135000
     42 H6          2.9320    0.6740    9.3800 ha        1 O3N      0.160000
     43 H261        0.6110    0.3730    5.4650 hx        1 O3N      0.130700
     44 H262        2.2880    0.3570    4.6990 hx        1 O3N      0.130700
     45 H271        3.1450   -1.7250    5.3950 hx        1 O3N      0.105700
     46 H272        1.9760   -3.1250    5.6380 hx        1 O3N      0.105700
     47 H131        3.4480   -3.7640    2.0990 ha        1 O3N      0.123000
     48 H132        2.5370   -5.3200    2.5260 ha        1 O3N      0.123000
     49 H14         0.7550   -4.0070    3.6790 ha        1 O3N      0.178000
     50 H281        2.6420   -1.6080    2.9750 hx        1 O3N      0.100700
     51 H282        0.8700   -1.6630    2.4640 hx        1 O3N      0.100700
     52 H32        -2.3980    0.8660    4.9460 hn        1 O3N      0.364500
     53 H291        0.3240    1.8710    8.6850 hc        1 O3N      0.051700
     54 H292       -1.0470    3.0290    8.4960 hc        1 O3N      0.051700
     55 H181       -7.1140   -3.1850    3.6630 hc        1 O3N      0.036200
     56 H182       -8.4450   -2.0090    3.3240 hc        1 O3N      0.036200
     57 H191       -7.8970   -2.1710    5.7730 hc        1 O3N      0.035200
     58 H192       -7.6500   -0.5060    5.1140 hc        1 O3N      0.035200
     59 H201       -6.8220   -0.2840    2.6310 hc        1 O3N      0.035200
     60 H202       -6.5340   -1.8070    1.7000 hc        1 O3N      0.035200
     61 H211       -5.7650   -1.1270    6.5850 hc        1 O3N      0.044450
     62 H212       -5.4720   -2.6430    5.6410 hc        1 O3N      0.044450
     63 H221       -4.4000   -0.7640    2.5020 hc        1 O3N      0.044450
     64 H222       -4.6480   -2.4210    3.1790 hc        1 O3N      0.044450
     65 H24        -5.2380    0.2630    4.6040 hc        1 O3N      0.049700
     66 H231       -2.5220   -0.5620    9.9040 h1        1 O3N      0.090200
     67 H232       -1.7630   -1.4860   11.3240 h1        1 O3N      0.090200
     68 H25        -0.8510    0.5260   11.9200 h1        1 O3N      0.078700
     69 H301       -3.4670   -0.6620    6.2370 h1        1 O3N      0.088700
     70 H302       -3.1130   -1.9770    5.0150 h1        1 O3N      0.088700
     71 H311       -2.4020    1.6020   10.1120 hc        1 O3N      0.053700
     72 H312       -0.9870    2.5200   10.7900 hc        1 O3N      0.053700
     73 C13         2.5790   -4.2240    2.5870 c2        1 O3N     -0.183000
     74 C29        -0.7920    1.9610    8.7330 c3        1 O3N     -0.184400
     75 H322       -2.0050   -1.7480    7.5980 ho        1 O3N      0.498000
     76 H331        0.2310   -1.7950    4.7130 hn        1 O3N      0.487800
     77 C16        -0.4770   -2.7170    6.9000 c         1 O3N      0.662700
     78 C17        -1.3870    1.1130    7.6180 c         1 O3N      0.913600
@<TRIPOS>BOND
     1    1    2 ar  
     2    1    3 ar  
     3    1   37 1   
     4    2    4 ar  
     5    2   38 1   
     6    3    7 ar  
     7    3   39 1   
     8    4    9 ar  
     9    4   40 1   
    10    5    6 ar  
    11    5   10 ar  
    12    5   41 1   
    13    6   11 ar  
    14    6   42 1   
    15    7    9 ar  
    16    7   14 1   
    17    8   10 ar  
    18    8   12 ar  
    19    8   77 1   
    20    9   23 1   
    21   10   24 1   
    22   11   12 ar  
    23   11   36 1   
    24   12   35 1   
    25   13   25 1   
    26   13   49 1   
    27   13   73 2   
    28   14   28 1   
    29   14   32 2   
    30   15   16 1   
    31   15   17 1   
    32   15   55 1   
    33   15   56 1   
    34   16   18 1   
    35   16   57 1   
    36   16   58 1   
    37   17   19 1   
    38   17   59 1   
    39   17   60 1   
    40   18   21 1   
    41   18   61 1   
    42   18   62 1   
    43   19   21 1   
    44   19   63 1   
    45   19   64 1   
    46   20   22 1   
    47   20   35 1   
    48   20   66 1   
    49   20   67 1   
    50   21   26 1   
    51   21   65 1   
    52   22   27 1   
    53   22   36 1   
    54   22   68 1   
    55   23   29 1   
    56   23   43 1   
    57   23   44 1   
    58   24   29 1   
    59   24   45 1   
    60   24   46 1   
    61   25   29 1   
    62   25   50 1   
    63   25   51 1   
    64   26   28 1   
    65   26   69 1   
    66   26   70 1   
    67   27   71 1   
    68   27   72 1   
    69   27   74 1   
    70   28   52 1   
    71   29   76 1   
    72   30   75 1   
    73   30   77 1   
    74   31   78 1   
    75   33   77 2   
    76   34   78 1   
    77   47   73 1   
    78   48   73 1   
    79   53   74 1   
    80   54   74 1   
    81   74   78 1   
@<TRIPOS>SUBSTRUCTURE
     1 O3N         1 TEMP              0 ****  ****    0 ROOT
