@<TRIPOS>MOLECULE
O3N
   76    70     1     0     0
SMALL
bcc


@<TRIPOS>ATOM
      1 C1         -4.1830   -1.4840   -2.0290 c1        1 O3N     -0.157250
      2 C2         -4.7900   -1.6670   -0.7870 c1        1 O3N     -0.157250
      3 C3         -3.2200   -0.4960   -2.1920 c1        1 O3N     -0.157250
      4 C4         -4.4310   -0.8610    0.2890 c1        1 O3N     -0.157250
      5 C5         -0.7800   -2.3490    3.8590 c1        1 O3N     -0.157250
      6 C6          0.5030   -2.9790    3.9510 c1        1 O3N     -0.157250
      7 C7         -2.8620    0.3080   -1.1190 c1        1 O3N     -0.102000
      8 C8          0.3130   -0.1190    3.6420 c1        1 O3N     -0.061000
      9 C9         -3.4700    0.1250    0.1260 c1        1 O3N     -0.011000
     10 C10        -0.8740   -0.9110    3.7030 c1        1 O3N     -0.110000
     11 C11         1.6640   -2.2100    3.8910 c1        1 O3N      0.014000
     12 C12         1.5690   -0.7320    3.7310 c1        1 O3N      0.029000
     13 C13        -0.0560   -1.9700    0.6240 c1        1 O3N     -0.157250
     14 C14        -0.8910   -1.1550    1.3550 c1        1 O3N     -0.157250
     15 C15        -1.8370    1.4300   -1.1300 c2        1 O3N      0.324000
     16 C16         0.6350    1.3470    3.9140 c2        1 O3N      0.372000
     17 C17         7.6850   -3.3180    3.9550 c1        1 O3N      0.329000
     18 C18        -0.3580    3.9300   -7.1990 c3        1 O3N     -0.151000
     19 C19         0.1930    4.4350   -5.8830 c3        1 O3N     -0.154000
     20 C20        -0.5850    2.4330   -7.1960 c3        1 O3N     -0.154000
     21 C21        -0.6330    3.9770   -4.6930 c3        1 O3N     -0.149000
     22 C22        -1.4120    1.9730   -6.0040 c3        1 O3N     -0.149000
     23 C23         3.9120   -0.7040    3.1550 c3        1 O3N     -0.056000
     24 C24        -0.8600    2.4790   -4.6880 c3        1 O3N     -0.113000
     25 C25         4.0720   -1.9640    3.9210 c3        1 O3N     -0.008000
     26 C26        -3.0810    0.5830    1.5580 c3        1 O3N     -0.063000
     27 C27        -2.2810   -0.2160    3.6810 c3        1 O3N     -0.031000
     28 C28        -2.2790   -1.6540    1.7700 c2        1 O3N     -0.041000
     29 C29         6.2590   -3.1990    4.4560 c2        1 O3N     -0.222000
     30 C30        -1.8570    2.1290   -3.5580 c3        1 O3N     -0.047000
     31 C31         5.3600   -2.7500    3.3190 c3        1 O3N     -0.140000
     32 N32        -1.1200    1.7470   -2.3610 n         1 O3N     -0.319000
     33 N33        -2.9960   -0.5860    2.4420 n3        1 O3N     -0.265000
     34 O34         0.9580    2.1030    2.9710 o         1 O3N     -0.576000
     35 O35         8.1170   -4.4290    3.5430 o         1 O3N     -0.590000
     36 O36        -1.6980    2.1280   -0.1550 o         1 O3N     -0.409000
     37 O37         0.5560    1.8020    5.0860 o         1 O3N     -0.576000
     38 O38         8.4100   -2.2880    3.8660 o         1 O3N     -0.590000
     39 O39         2.8400    0.0160    3.4140 os        1 O3N     -0.184000
     40 O40         3.0280   -2.8130    3.9090 os        1 O3N     -0.215000
     41 H1         -4.4350   -2.0500   -2.7840 ha        1 O3N      0.129750
     42 H2         -5.4660   -2.3590   -0.6730 ha        1 O3N      0.129750
     43 H3         -2.7980   -0.3690   -3.0550 ha        1 O3N      0.129750
     44 H4         -4.8740   -0.9720    1.1510 ha        1 O3N      0.129750
     45 H5         -1.5900   -2.8770    3.9870 ha        1 O3N      0.129750
     46 H6          0.5660   -3.9570    4.0070 ha        1 O3N      0.129750
     47 H261       -2.2220    1.0310    1.5310 h1        1 O3N      0.117000
     48 H262       -3.7620    1.2030    1.8990 h1        1 O3N      0.117000
     49 H271       -2.8000   -0.5080    4.4560 h1        1 O3N      0.095500
     50 H272       -2.1650    0.7530    3.7140 h1        1 O3N      0.095500
     51 H131       -0.3500   -2.8680    0.3690 DU        1 O3N      0.081000
     52 H132        0.8340   -1.6490    0.3580 ha        1 O3N      0.129750
     53 H14        -0.5990   -0.2620    1.6080 ha        1 O3N      0.129750
     54 H281       -2.7750   -1.9310    0.9780 h4        1 O3N      0.081000
     55 H282       -2.1840   -2.4160    2.3790 h4        1 O3N      0.081000
     56 H32        -0.2100    1.7450   -2.3700 hn        1 O3N      0.256000
     57 H291        5.9580   -4.0630    4.7840 ha        1 O3N      0.062000
     58 H292        6.2210   -2.5470    5.1780 ha        1 O3N      0.062000
     59 H181        0.2790    4.1540   -7.9180 hc        1 O3N      0.060000
     60 H182       -1.2050    4.3760   -7.3770 hc        1 O3N      0.060000
     61 H191        1.1120    4.1050   -5.7760 hc        1 O3N      0.072250
     62 H192        0.2080    5.4110   -5.9000 hc        1 O3N      0.072250
     63 H201       -1.0520    2.1800   -8.0240 hc        1 O3N      0.072250
     64 H202        0.2820    1.9820   -7.1720 hc        1 O3N      0.072250
     65 H211       -0.1700    4.2290   -3.8730 hc        1 O3N      0.078750
     66 H212       -1.4970    4.4270   -4.7190 hc        1 O3N      0.078750
     67 H221       -1.4250    1.0040   -5.9870 hc        1 O3N      0.078750
     68 H222       -2.3330    2.3030   -6.1110 hc        1 O3N      0.078750
     69 H24        -0.0100    2.0320   -4.5090 hc        1 O3N      0.141000
     70 H231        3.9020   -0.9280    2.2080 h1        1 O3N      0.105500
     71 H232        4.7010   -0.1440    3.3270 h1        1 O3N      0.105500
     72 H25         4.2610   -1.7340    4.8460 h1        1 O3N      0.092000
     73 H301       -2.4280    1.3800   -3.8450 h1        1 O3N      0.112000
     74 H302       -2.4150    2.9090   -3.3620 h1        1 O3N      0.112000
     75 H311        5.8570   -2.1540    2.7270 hc        1 O3N      0.098500
     76 H312        5.0580   -3.5310    2.8140 hc        1 O3N      0.098500
@<TRIPOS>BOND
     1    1    3 1   
     2    1   41 1   
     3    2    4 1   
     4    2   42 1   
     5    3   43 1   
     6    4   44 1   
     7    5    6 1   
     8    5   45 1   
     9    6   46 1   
    10    7    9 1   
    11    7   15 1   
    12    8   10 1   
    13    8   16 1   
    14    9   26 1   
    15   10   27 1   
    16   11   12 1   
    17   11   40 1   
    18   12   39 1   
    19   13   14 1   
    20   13   52 1   
    21   14   53 1   
    22   15   32 1   
    23   15   36 1   
    24   16   34 1   
    25   16   37 1   
    26   17   35 1   
    27   17   38 1   
    28   18   19 1   
    29   18   20 1   
    30   18   59 1   
    31   18   60 1   
    32   19   21 1   
    33   19   61 1   
    34   19   62 1   
    35   20   22 1   
    36   20   63 1   
    37   20   64 1   
    38   21   24 1   
    39   21   65 1   
    40   21   66 1   
    41   22   24 1   
    42   22   67 1   
    43   22   68 1   
    44   23   25 1   
    45   23   39 1   
    46   23   70 1   
    47   23   71 1   
    48   24   30 1   
    49   24   69 1   
    50   25   31 1   
    51   25   40 1   
    52   25   72 1   
    53   26   33 1   
    54   26   47 1   
    55   26   48 1   
    56   27   33 1   
    57   27   49 1   
    58   27   50 1   
    59   28   33 1   
    60   28   54 1   
    61   28   55 1   
    62   29   31 1   
    63   29   57 1   
    64   29   58 1   
    65   30   32 1   
    66   30   73 1   
    67   30   74 1   
    68   31   75 1   
    69   31   76 1   
    70   32   56 1   
@<TRIPOS>SUBSTRUCTURE
     1 O3N         1 TEMP              0 ****  ****    0 ROOT
