@<TRIPOS>MOLECULE
O40
   57    50     1     0     0
SMALL
bcc


@<TRIPOS>ATOM
      1 C1         -1.0910   -0.7610    3.7460 c1        1 O40     -0.121000
      2 C2          0.2610   -0.6390    3.3690 c1        1 O40      0.132000
      3 C3          1.2350   -0.4650    4.3380 c1        1 O40     -0.080000
      4 C4          0.8680   -0.4100    5.7140 c1        1 O40      0.027000
      5 C5         -0.4490   -0.5280    6.0800 c1        1 O40     -0.152000
      6 C6         -1.4460   -0.7070    5.0890 c1        1 O40     -0.121000
      7 O7          1.6100   -0.1860    6.8630 o         1 O40      0.005300
      8 N8          0.7310   -0.1670    7.9510 n2        1 O40     -0.001300
      9 C9         -0.5270   -0.3750    7.4790 c1        1 O40     -0.166000
     10 C10        -2.8960    1.1680   -6.0410 c1        1 O40     -0.154000
     11 O11         0.0930   -1.1680    2.0520 os        1 O40     -0.203000
     12 C12         2.8030   -0.5080    4.3560 c2        1 O40     -0.114000
     13 C13        -3.4050    1.5730   -7.2730 c1        1 O40     -0.096000
     14 C14        -0.9650   -0.2640    8.9530 c2        1 O40      0.510000
     15 C15         0.1770   -0.1680    0.9960 c3        1 O40     -0.018000
     16 C16        -2.8180    1.1130   -8.4580 c1        1 O40     -0.110000
     17 C17         3.3630    0.8660    3.9150 c3        1 O40     -0.157000
     18 C18        -1.7220    0.2480   -8.4040 c2        1 O40     -0.091000
     19 C19        -1.2130   -0.1580   -7.1700 c1        1 O40     -0.201000
     20 C20         4.8660    0.8080    3.8850 c3        1 O40     -0.210000
     21 N21         0.0430   -0.4450   -2.8000 n         1 O40     -0.324000
     22 C22         1.0370   -1.4300   -3.2200 c3        1 O40     -0.092000
     23 C23        -1.0150   -0.0620   -3.7070 c2        1 O40      0.378000
     24 N24        -0.7910   -0.0870   -5.1140 n         1 O40     -0.297000
     25 C26         0.0820   -0.8690   -0.3930 c3        1 O40     -0.201000
     26 C29         0.1490    0.1960   -1.5090 c3        1 O40     -0.023000
     27 O30        -4.5670    0.9680  -10.0890 o         1 O40     -0.564500
     28 C32        -3.4930    1.5280   -9.7330 c1        1 O40      0.358000
     29 O33        -2.1190    0.3090   -3.2570 o         1 O40     -0.391000
     30 O34        -3.0120    2.4690  -10.4230 o         1 O40     -0.564500
     31 F38        -0.3450   -1.1930    9.6740 f         1 O40     -0.155333
     32 F39        -0.6420    0.9640    9.4260 f         1 O40     -0.155333
     33 F40        -2.2840   -0.4450    9.0390 f         1 O40     -0.155333
     34 C42        -1.8010    0.3030   -5.9850 c1        1 O40      0.016000
     35 H1         -1.7990   -0.8870    3.0440 ha        1 O40      0.154000
     36 H6         -2.3880   -0.7900    5.3510 ha        1 O40      0.154000
     37 H10        -3.3020    1.4850   -5.2230 ha        1 O40      0.146000
     38 H12         3.1220   -1.2110    3.7340 ha        1 O40      0.106000
     39 H12A        3.1150   -0.7090    5.2650 ha        1 O40      0.106000
     40 H13        -4.1840    2.1870   -7.3120 ha        1 O40      0.156000
     41 H15         1.0410    0.3150    1.0630 h1        1 O40      0.085500
     42 H15A       -0.5740    0.4810    1.0920 h1        1 O40      0.085500
     43 H17         3.0280    1.0840    3.0220 hc        1 O40      0.084000
     44 H17A        3.0710    1.5670    4.5590 hc        1 O40      0.084000
     45 H18        -1.2780   -0.0320   -9.2350 ha        1 O40      0.154000
     46 H19        -0.4390   -0.7690   -7.1310 ha        1 O40      0.102000
     47 H20         5.2300    1.6580    4.1750 hc        1 O40      0.073333
     48 H20A        5.1750    0.1050    4.4790 hc        1 O40      0.073333
     49 H20B        5.1660    0.6190    2.9750 hc        1 O40      0.073333
     50 H22         1.9080   -0.9780   -3.3770 h1        1 O40      0.075000
     51 H22A        1.1420   -2.1050   -2.5280 h1        1 O40      0.075000
     52 H22B        0.7350   -1.8600   -4.0560 h1        1 O40      0.075000
     53 HN24        0.0520   -0.2920   -5.4440 hn        1 O40      0.215000
     54 H26         0.8270   -1.5000   -0.4970 hc        1 O40      0.108500
     55 H26A       -0.7750   -1.3600   -0.4550 hc        1 O40      0.108500
     56 H29        -0.5950    0.8320   -1.3990 h1        1 O40      0.100000
     57 H29A        1.0070    0.6810   -1.4500 h1        1 O40      0.100000
@<TRIPOS>BOND
     1    1    6 1   
     2    1   35 1   
     3    2    3 1   
     4    2   11 1   
     5    3    4 1   
     6    4    5 1   
     7    6   36 1   
     8    7    8 2   
     9    8    9 1   
    10   10   34 1   
    11   10   37 1   
    12   11   15 1   
    13   12   17 1   
    14   12   38 1   
    15   12   39 1   
    16   13   16 1   
    17   13   40 1   
    18   14   31 1   
    19   14   32 1   
    20   14   33 1   
    21   15   25 1   
    22   15   41 1   
    23   15   42 1   
    24   16   18 1   
    25   17   20 1   
    26   17   43 1   
    27   17   44 1   
    28   18   19 1   
    29   18   45 1   
    30   19   46 1   
    31   20   47 1   
    32   20   48 1   
    33   20   49 1   
    34   21   22 1   
    35   21   23 1   
    36   21   26 1   
    37   22   50 1   
    38   22   51 1   
    39   22   52 1   
    40   23   24 1   
    41   23   29 1   
    42   24   34 1   
    43   24   53 1   
    44   25   26 1   
    45   25   54 1   
    46   25   55 1   
    47   26   56 1   
    48   26   57 1   
    49   27   28 1   
    50   28   30 1   
@<TRIPOS>SUBSTRUCTURE
     1 O40         1 TEMP              0 ****  ****    0 ROOT
