@<TRIPOS>MOLECULE
O40
   58    60     1     0     0
SMALL
bcc


@<TRIPOS>ATOM
      1 C1         -0.2410    0.1510   -0.0230 ca        1 O40     -0.213000
      2 C2          1.1630    0.0730   -0.0980 ca        1 O40      0.151100
      3 C3          1.9870    0.0040    1.0530 ca        1 O40     -0.073300
      4 C4          1.2900    0.0110    2.2530 ca        1 O40      0.070100
      5 C5         -0.1350    0.0850    2.3590 ca        1 O40     -0.218900
      6 C6         -0.9010    0.1600    1.2040 ca        1 O40     -0.022000
      7 O7          1.8160   -0.0600    3.5660 os        1 O40      0.010400
      8 N8          0.8240   -0.0330    4.4360 nc        1 O40     -0.313200
      9 C9         -0.3560    0.0520    3.8050 cd        1 O40      0.278900
     10 C10         2.7480    3.6790   -8.1790 ca        1 O40     -0.136500
     11 O11         1.8620    0.0480   -1.2910 os        1 O40     -0.322900
     12 C12         3.4660   -0.0770    0.9850 c3        1 O40     -0.025100
     13 C13         3.3180    4.8520   -8.6630 ca        1 O40     -0.096500
     14 C14        -1.6960    0.1010    4.5210 c3        1 O40      0.649600
     15 C15         1.0770    0.0840   -2.4870 c3        1 O40      0.132400
     16 C16         4.5420    4.8300   -9.3370 ca        1 O40     -0.083600
     17 C17         4.0960    1.2750    0.7040 c3        1 O40     -0.076400
     18 C18         5.1990    3.6090   -9.5360 ca        1 O40     -0.096500
     19 C19         4.6560    2.4240   -9.0610 ca        1 O40     -0.136500
     20 C20         5.5980    1.1720    0.6380 c3        1 O40     -0.094100
     21 N21         2.2640   -0.3790   -6.1160 nx        1 O40     -0.606200
     22 C22         3.6270   -0.9010   -5.8910 c3        1 O40      0.083100
     23 C23         2.3550    1.0970   -6.6810 c         1 O40      0.616100
     24 N24         2.8350    1.2200   -7.9620 ns        1 O40     -0.343100
     25 C26         2.0970    0.0680   -3.6200 c3        1 O40     -0.108400
     26 C29         1.4220   -0.4480   -4.8830 c3        1 O40      0.124800
     27 O30         4.5330    7.1940   -9.6350 o         1 O40     -0.794300
     28 C32         5.1740    6.1330   -9.8480 c         1 O40      0.910200
     29 O33         1.8270    1.9330   -5.9470 o         1 O40     -0.483100
     30 O34         6.2830    6.0290  -10.4340 o         1 O40     -0.794300
     31 F38        -1.8320    1.1690    5.3690 f         1 O40     -0.220967
     32 F39        -2.7720    0.1890    3.6740 f         1 O40     -0.220967
     33 F40        -1.9510   -1.0030    5.2930 f         1 O40     -0.220967
     34 C42         3.4140    2.4560   -8.3850 ca        1 O40     -0.097400
     35 H1         -0.8440    0.2120   -0.9400 ha        1 O40      0.144000
     36 H6         -2.0000    0.2240    1.2580 ha        1 O40      0.165000
     37 H10         1.7920    3.7130   -7.6360 ha        1 O40      0.123500
     38 H12         3.7570   -0.7970    0.1720 hc        1 O40      0.060700
     39 H12A        3.8620   -0.4790    1.9570 hc        1 O40      0.060700
     40 H13         2.8200    5.8280   -8.5230 ha        1 O40      0.180500
     41 H15         0.4080   -0.8160   -2.5220 h1        1 O40      0.054200
     42 H15A        0.4620    1.0220   -2.5150 h1        1 O40      0.054200
     43 H17         3.8020    2.0010    1.5080 hc        1 O40      0.047700
     44 H17A        3.6960    1.6710   -0.2680 hc        1 O40      0.047700
     45 H18         6.1620    3.6220  -10.0770 ha        1 O40      0.180500
     46 H19         5.1860    1.4750   -9.2270 ha        1 O40      0.123500
     47 H20         6.0430    2.1730    0.4250 hc        1 O40      0.036700
     48 H20A        6.0110    0.8000    1.6070 hc        1 O40      0.036700
     49 H20B        5.9110    0.4670   -0.1700 hc        1 O40      0.036700
     50 H22         4.1450   -1.0560   -6.8750 hx        1 O40      0.099033
     51 H22A        3.5770   -1.8800   -5.3430 hx        1 O40      0.099033
     52 H22B        4.2120   -0.1630   -5.2760 hx        1 O40      0.099033
     53 HN24        3.2530    0.4170   -8.3900 hn        1 O40      0.314500
     54 H26         2.4900    1.1090   -3.7750 hc        1 O40      0.088700
     55 H26A        2.9590   -0.5890   -3.3300 hc        1 O40      0.088700
     56 H29         0.4900    0.1600   -5.0820 hx        1 O40      0.097700
     57 H29A        1.1330   -1.5290   -4.7410 hx        1 O40      0.097700
     58 H211        1.8000   -0.9610   -6.8220 hn        1 O40      0.435800
@<TRIPOS>BOND
     1    1    2 ar  
     2    1    6 ar  
     3    1   35 1   
     4    2    3 ar  
     5    2   11 1   
     6    3    4 ar  
     7    3   12 1   
     8    4    5 ar  
     9    4    7 1   
    10    5    6 ar  
    11    5    9 1   
    12    6   36 1   
    13    7    8 1   
    14    8    9 2   
    15    9   14 1   
    16   10   13 ar  
    17   10   34 ar  
    18   10   37 1   
    19   11   15 1   
    20   12   17 1   
    21   12   38 1   
    22   12   39 1   
    23   13   16 ar  
    24   13   40 1   
    25   14   31 1   
    26   14   32 1   
    27   14   33 1   
    28   15   25 1   
    29   15   41 1   
    30   15   42 1   
    31   16   18 ar  
    32   16   28 1   
    33   17   20 1   
    34   17   43 1   
    35   17   44 1   
    36   18   19 ar  
    37   18   45 1   
    38   19   34 ar  
    39   19   46 1   
    40   20   47 1   
    41   20   48 1   
    42   20   49 1   
    43   21   22 1   
    44   21   23 1   
    45   21   26 1   
    46   21   58 1   
    47   22   50 1   
    48   22   51 1   
    49   22   52 1   
    50   23   24 1   
    51   23   29 2   
    52   24   34 1   
    53   24   53 1   
    54   25   26 1   
    55   25   54 1   
    56   25   55 1   
    57   26   56 1   
    58   26   57 1   
    59   27   28 1   
    60   28   30 1   
@<TRIPOS>SUBSTRUCTURE
     1 O40         1 TEMP              0 ****  ****    0 ROOT
