@<TRIPOS>MOLECULE
O40
   59    61     1     0     0
SMALL
bcc


@<TRIPOS>ATOM
      1 C1         -0.0370    1.4440   -0.9500 ca        1 O40     -0.166000
      2 C2          1.1150    0.7710   -1.4020 ca        1 O40      0.107100
      3 C3          2.2250    0.5030   -0.5780 ca        1 O40     -0.075300
      4 C4          2.1010    0.9950    0.7180 ca        1 O40      0.056100
      5 C5          0.9520    1.6900    1.2050 ca        1 O40     -0.186900
      6 C6         -0.1300    1.9110    0.3590 ca        1 O40     -0.026000
      7 O7          3.0340    0.9040    1.7760 os        1 O40      0.011400
      8 N8          2.5330    1.4880    2.8510 nc        1 O40     -0.294200
      9 C9          1.3100    1.9760    2.5970 cd        1 O40      0.278900
     10 C10         2.4780    2.7600   -4.6270 ca        1 O40     -0.107000
     11 O11         1.2120    0.4160   -2.7450 os        1 O40     -0.419900
     12 C12         3.4210   -0.2520   -1.0260 c3        1 O40     -0.031100
     13 C13         2.3920    4.0660   -5.1000 ca        1 O40     -0.072000
     14 C14         0.4580    2.7100    3.6250 c3        1 O40      0.650600
     15 C15         0.2200   -0.5340   -3.1830 c3        1 O40      0.128400
     16 C16         3.3430    4.5590   -6.0020 ca        1 O40     -0.119600
     17 C17         4.6220    0.6510   -1.2370 c3        1 O40     -0.093400
     18 C18         4.3970    3.7430   -6.4240 ca        1 O40     -0.072000
     19 C19         4.5030    2.4340   -5.9590 ca        1 O40     -0.107000
     20 C20         5.8160   -0.1270   -1.7270 c3        1 O40     -0.105100
     21 N21         2.4100   -0.8520   -6.1830 n         1 O40     -0.408800
     22 C22         2.4110   -1.8900   -7.1980 c3        1 O40      0.060300
     23 C23         3.6210   -0.4500   -5.6800 c         1 O40      0.637100
     24 N24         3.6620    0.5790   -4.5440 n4        1 O40     -0.541200
     25 C26         0.8810   -1.3840   -4.2530 c3        1 O40     -0.131400
     26 C29         1.1510   -0.5710   -5.5240 c3        1 O40      0.061000
     27 O30         2.7560    6.8850   -5.7750 o         1 O40     -0.442000
     28 C32         3.2200    5.9680   -6.4490 c         1 O40      0.627700
     29 O33         4.7480   -0.7770   -6.0770 o         1 O40     -0.511100
     30 O34         3.6300    6.3350   -7.6940 oh        1 O40     -0.546100
     31 F38        -0.7580    3.1130    3.1340 f         1 O40     -0.212967
     32 F39         0.1630    1.9560    4.7290 f         1 O40     -0.212967
     33 F40         1.0430    3.8510    4.1040 f         1 O40     -0.212967
     34 C42         3.5390    1.9450   -5.0600 ca        1 O40     -0.026400
     35 H1         -0.8730    1.6010   -1.6490 ha        1 O40      0.156000
     36 H6         -1.0290    2.4400    0.7170 ha        1 O40      0.180000
     37 H10         1.7260    2.3880   -3.9060 ha        1 O40      0.176500
     38 H12         3.6770   -1.0230   -0.2460 hc        1 O40      0.055700
     39 H12A        3.1830   -0.8060   -1.9740 hc        1 O40      0.055700
     40 H13         1.5780    4.7310   -4.7530 ha        1 O40      0.181000
     41 H15        -0.1210   -1.1730   -2.3280 h1        1 O40      0.073200
     42 H15A       -0.6470    0.0510   -3.5890 h1        1 O40      0.073200
     43 H17         4.3640    1.4670   -1.9620 hc        1 O40      0.050700
     44 H17A        4.8750    1.1520   -0.2630 hc        1 O40      0.050700
     45 H18         5.1670    4.1320   -7.1130 ha        1 O40      0.181000
     46 H19         5.3380    1.7960   -6.3010 ha        1 O40      0.176500
     47 H20         6.6700    0.5630   -1.9370 hc        1 O40      0.042700
     48 H20A        6.1470   -0.8640   -0.9540 hc        1 O40      0.042700
     49 H20B        5.5780   -0.6960   -2.6590 hc        1 O40      0.042700
     50 H22         1.7120   -1.5730   -8.0180 h1        1 O40      0.080700
     51 H22A        3.4420   -2.0290   -7.6240 h1        1 O40      0.080700
     52 H22B        2.0590   -2.8600   -6.7550 h1        1 O40      0.080700
     53 HN24        2.9270    0.3970   -3.8400 hn        1 O40      0.483800
     54 H26         1.8260   -1.8230   -3.8340 hc        1 O40      0.077700
     55 H26A        0.1970   -2.2410   -4.4940 hc        1 O40      0.077700
     56 H29         1.0970    0.5330   -5.2920 h1        1 O40      0.085200
     57 H29A        0.3350   -0.7860   -6.2750 h1        1 O40      0.085200
     58 H211        3.9170    5.5640   -8.2030 ho        1 O40      0.431000
     59 H242        4.5860    0.4820   -4.0870 hn        1 O40      0.483800
@<TRIPOS>BOND
     1    1    2 ar  
     2    1    6 ar  
     3    1   35 1   
     4    2    3 ar  
     5    2   11 1   
     6    3    4 ar  
     7    3   12 1   
     8    4    5 ar  
     9    4    7 1   
    10    5    6 ar  
    11    5    9 1   
    12    6   36 1   
    13    7    8 1   
    14    8    9 2   
    15    9   14 1   
    16   10   13 ar  
    17   10   34 ar  
    18   10   37 1   
    19   11   15 1   
    20   12   17 1   
    21   12   38 1   
    22   12   39 1   
    23   13   16 ar  
    24   13   40 1   
    25   14   31 1   
    26   14   32 1   
    27   14   33 1   
    28   15   25 1   
    29   15   41 1   
    30   15   42 1   
    31   16   18 ar  
    32   16   28 1   
    33   17   20 1   
    34   17   43 1   
    35   17   44 1   
    36   18   19 ar  
    37   18   45 1   
    38   19   34 ar  
    39   19   46 1   
    40   20   47 1   
    41   20   48 1   
    42   20   49 1   
    43   21   22 1   
    44   21   23 1   
    45   21   26 1   
    46   22   50 1   
    47   22   51 1   
    48   22   52 1   
    49   23   24 1   
    50   23   29 2   
    51   24   34 1   
    52   24   53 1   
    53   24   59 1   
    54   25   26 1   
    55   25   54 1   
    56   25   55 1   
    57   26   56 1   
    58   26   57 1   
    59   27   28 2   
    60   28   30 1   
    61   30   58 1   
@<TRIPOS>SUBSTRUCTURE
     1 O40         1 TEMP              0 ****  ****    0 ROOT
