@<TRIPOS>MOLECULE
O40
   57    59     1     0     0
SMALL
bcc


@<TRIPOS>ATOM
      1 C1         -3.3480    1.2560    0.2790 ca        1 O40     -0.217000
      2 C2         -2.8070    0.1850   -0.4650 ca        1 O40      0.175100
      3 C3         -3.5850   -0.9400   -0.8440 ca        1 O40     -0.088300
      4 C4         -4.9070   -0.8870   -0.4330 ca        1 O40      0.072100
      5 C5         -5.4800    0.1890    0.3160 ca        1 O40     -0.235900
      6 C6         -4.6820    1.2670    0.6750 ca        1 O40     -0.026000
      7 O7         -5.9310   -1.8420   -0.6650 os        1 O40      0.004400
      8 N8         -7.0550   -1.4190   -0.1170 nc        1 O40     -0.333200
      9 C9         -6.8710   -0.2310    0.4790 cd        1 O40      0.280900
     10 C10         7.0520   -0.0840   -1.1430 ca        1 O40     -0.177000
     11 O11        -1.5000    0.1370   -0.8850 os        1 O40     -0.317900
     12 C12        -3.0280   -2.0720   -1.6240 c3        1 O40     -0.023100
     13 C13         8.0540   -0.7610   -0.4600 ca        1 O40     -0.094000
     14 C14        -7.9700    0.5260    1.2010 c3        1 O40      0.648600
     15 C15        -0.6850    1.2840   -0.5870 c3        1 O40      0.131400
     16 C16         8.1280   -0.7210    0.9360 ca        1 O40     -0.130600
     17 C17        -2.1860   -2.9950   -0.7620 c3        1 O40     -0.077400
     18 C18         7.1750    0.0170    1.6400 ca        1 O40     -0.094000
     19 C19         6.1640    0.7120    0.9780 ca        1 O40     -0.177000
     20 C20        -1.6270   -4.1350   -1.5730 c3        1 O40     -0.092100
     21 N21         2.8640    2.1250   -1.6870 n         1 O40     -0.465800
     22 C22         3.0230    1.8090   -3.0790 c3        1 O40      0.062300
     23 C23         3.8190    1.6180   -0.7400 c         1 O40      0.751100
     24 N24         5.1270    1.3990   -1.1670 n         1 O40     -0.443100
     25 C26         0.6760    0.9820   -1.1850 c3        1 O40     -0.122400
     26 C29         1.5100    2.2660   -1.2060 c3        1 O40      0.093000
     27 O30        10.0590   -2.1250    0.9710 o         1 O40     -0.829800
     28 C32         9.2320   -1.4700    1.6670 c         1 O40      0.909200
     29 O33         3.4600    1.5030    0.4560 o         1 O40     -0.630100
     30 O34         9.2630   -1.3970    2.9280 o         1 O40     -0.829800
     31 F38        -9.0360    0.8550    0.4020 f         1 O40     -0.226633
     32 F39        -8.5230   -0.1600    2.2520 f         1 O40     -0.226633
     33 F40        -7.5670    1.7200    1.7430 f         1 O40     -0.226633
     34 C42         6.0920    0.6700   -0.4260 ca        1 O40      0.008600
     35 H1         -2.7090    2.1060    0.5620 ha        1 O40      0.151000
     36 H6         -5.0950    2.1050    1.2560 ha        1 O40      0.156000
     37 H10         7.0190   -0.1330   -2.2410 ha        1 O40      0.124000
     38 H12        -3.8680   -2.6540   -2.0900 hc        1 O40      0.058700
     39 H12A       -2.3900   -1.6620   -2.4550 hc        1 O40      0.058700
     40 H13         8.8120   -1.3490   -1.0040 ha        1 O40      0.155000
     41 H15        -1.1450    2.1940   -1.0530 h1        1 O40      0.045700
     42 H15A       -0.6170    1.4140    0.5250 h1        1 O40      0.045700
     43 H17        -1.3470   -2.4040   -0.3060 hc        1 O40      0.050200
     44 H17A       -2.8100   -3.3970    0.0780 hc        1 O40      0.050200
     45 H18         7.2410    0.0390    2.7400 ha        1 O40      0.155000
     46 H19         5.4200    1.2800    1.5560 ha        1 O40      0.124000
     47 H20        -1.0080   -4.8010   -0.9240 hc        1 O40      0.034367
     48 H20A       -2.4500   -4.7430   -2.0200 hc        1 O40      0.034367
     49 H20B       -0.9830   -3.7520   -2.4010 hc        1 O40      0.034367
     50 H22         3.8780    2.4060   -3.4990 h1        1 O40      0.035700
     51 H22A        3.2240    0.7170   -3.2550 h1        1 O40      0.035700
     52 H22B        2.0950    2.0880   -3.6450 h1        1 O40      0.035700
     53 HN24        5.3150    1.4460   -2.1440 hn        1 O40      0.301500
     54 H26         1.1920    0.2000   -0.5680 hc        1 O40      0.069200
     55 H26A        0.5540    0.5740   -2.2210 hc        1 O40      0.069200
     56 H29         1.5560    2.6820   -0.1580 h1        1 O40      0.060700
     57 H29A        0.9980    3.0230   -1.8660 h1        1 O40      0.060700
@<TRIPOS>BOND
     1    1    2 ar  
     2    1    6 ar  
     3    1   35 1   
     4    2    3 ar  
     5    2   11 1   
     6    3    4 ar  
     7    3   12 1   
     8    4    5 ar  
     9    4    7 1   
    10    5    6 ar  
    11    5    9 1   
    12    6   36 1   
    13    7    8 1   
    14    8    9 2   
    15    9   14 1   
    16   10   13 ar  
    17   10   34 ar  
    18   10   37 1   
    19   11   15 1   
    20   12   17 1   
    21   12   38 1   
    22   12   39 1   
    23   13   16 ar  
    24   13   40 1   
    25   14   31 1   
    26   14   32 1   
    27   14   33 1   
    28   15   25 1   
    29   15   41 1   
    30   15   42 1   
    31   16   18 ar  
    32   16   28 1   
    33   17   20 1   
    34   17   43 1   
    35   17   44 1   
    36   18   19 ar  
    37   18   45 1   
    38   19   34 ar  
    39   19   46 1   
    40   20   47 1   
    41   20   48 1   
    42   20   49 1   
    43   21   22 1   
    44   21   23 1   
    45   21   26 1   
    46   22   50 1   
    47   22   51 1   
    48   22   52 1   
    49   23   24 1   
    50   23   29 2   
    51   24   34 1   
    52   24   53 1   
    53   25   26 1   
    54   25   54 1   
    55   25   55 1   
    56   26   56 1   
    57   26   57 1   
    58   27   28 1   
    59   28   30 1   
@<TRIPOS>SUBSTRUCTURE
     1 O40         1 TEMP              0 ****  ****    0 ROOT
