@<TRIPOS>MOLECULE
O43
   73    78     1     0     0
SMALL
bcc


@<TRIPOS>ATOM
      1 O01        -0.1640    0.9330    0.0940 o         1 O43     -0.437100
      2 C02         1.0420    0.7410    0.0270 c         1 O43      0.588700
      3 N03         1.7460    0.5980    1.3830 ny        1 O43     -0.647800
      4 C04         1.0270   -0.3120    2.2860 cx        1 O43      0.001500
      5 C05         1.6690   -0.7860    3.5740 cx        1 O43     -0.104400
      6 C06         1.4600   -1.7540    2.4510 cx        1 O43     -0.104400
      7 C07         1.8920    0.6150   -1.1430 ca        1 O43     -0.247600
      8 C08         1.2730    0.1950   -2.3380 ca        1 O43     -0.054000
      9 C09         2.0170    0.0590   -3.4980 ca        1 O43     -0.143000
     10 C10         3.4000    0.3510   -3.5140 ca        1 O43      0.124200
     11 C11         4.0040    0.7960   -2.3180 ca        1 O43     -0.143000
     12 C12         3.2640    0.9240   -1.1540 ca        1 O43     -0.054000
     13 C13         4.1100    0.2170   -4.7490 cc        1 O43     -0.171300
     14 C14         3.5470    0.2050   -6.0760 cd        1 O43      0.053600
     15 N15         4.5070    0.0840   -7.0300 nd        1 O43     -0.260600
     16 C16         5.7020    0.0040   -6.3450 cc        1 O43     -0.125300
     17 N17         5.5050    0.0910   -4.9390 na        1 O43      0.282200
     18 N18         6.4560    0.0070   -4.0190 nc        1 O43     -0.634800
     19 C19         7.7420   -0.1180   -4.4810 cd        1 O43      0.691200
     20 N20         8.8050   -0.0820   -3.5810 nu        1 O43     -0.829900
     21 C21         8.6280   -0.2860   -2.1540 c3        1 O43      0.212500
     22 C22         9.8920    0.1540   -1.3890 c3        1 O43     -0.096900
     23 C23         9.6660    0.0370    0.1030 c3        1 O43     -0.072400
     24 C24         9.2890   -1.3750    0.4990 c3        1 O43     -0.083400
     25 C25         8.0800   -1.8550   -0.2750 c3        1 O43     -0.072400
     26 C26         8.2950   -1.7390   -1.7690 c3        1 O43     -0.096900
     27 C27         8.0700   -0.2100   -5.8880 cd        1 O43     -0.411300
     28 C28         7.0620   -0.1520   -6.8500 cc        1 O43      0.311600
     29 N29         7.2600   -0.2500   -8.1940 nu        1 O43     -0.743600
     30 C30         8.5780   -0.3420   -8.7660 c3        1 O43      0.212800
     31 C31         8.5770   -0.3690  -10.2990 c3        1 O43     -0.076700
     32 C32         8.1250    0.9610  -10.8820 c3        1 O43     -0.112900
     33 C33         8.2920    0.9660  -12.3930 c3        1 O43      0.125900
     34 O34         9.6250    0.6550  -12.7800 os        1 O43     -0.406600
     35 C35        10.0590   -0.6110  -12.2970 c3        1 O43      0.125900
     36 C36         9.9850   -0.6920  -10.7810 c3        1 O43     -0.112900
     37 H1          2.7010    0.2570    1.2340 hn        1 O43      0.452800
     38 H2         -0.0640   -0.0730    2.2780 hx        1 O43      0.159700
     39 H3          2.6990   -0.4750    3.8300 hc        1 O43      0.108200
     40 H4          1.0250   -0.8370    4.4740 hc        1 O43      0.108200
     41 H5          2.3400   -2.1370    1.9010 hc        1 O43      0.108200
     42 H6          0.6620   -2.5190    2.5230 hc        1 O43      0.108200
     43 H7          0.1920   -0.0280   -2.3430 ha        1 O43      0.141000
     44 H8          1.5220   -0.2850   -4.4210 ha        1 O43      0.172500
     45 H9          5.0720    1.0690   -2.2990 ha        1 O43      0.172500
     46 H10         3.7710    1.3140   -0.2590 ha        1 O43      0.141000
     47 H11         2.4890    0.3000   -6.3300 h4        1 O43      0.190000
     48 H12         9.6610   -0.4410   -3.9490 hn        1 O43      0.424800
     49 H13         7.7740    0.3740   -1.8150 h1        1 O43      0.070700
     50 H14        10.1430    1.2160   -1.6470 hc        1 O43      0.052950
     51 H15        10.7620   -0.4860   -1.6890 hc        1 O43      0.052950
     52 H16         8.8550    0.7450    0.4170 hc        1 O43      0.040700
     53 H17        10.6030    0.3400    0.6400 hc        1 O43      0.040700
     54 H18        10.1540   -2.0620    0.3040 hc        1 O43      0.047700
     55 H19         9.0720   -1.4130    1.5990 hc        1 O43      0.047700
     56 H20         7.1810   -1.2520    0.0210 hc        1 O43      0.040700
     57 H21         7.8670   -2.9250   -0.0150 hc        1 O43      0.040700
     58 H22         7.3700   -2.0740   -2.3070 hc        1 O43      0.052950
     59 H23         9.1340   -2.4140   -2.0800 hc        1 O43      0.052950
     60 H24         9.1210   -0.3160   -6.1880 ha        1 O43      0.161000
     61 H25         6.4820   -0.1610   -8.8080 hn        1 O43      0.466800
     62 H26         9.2010    0.5340   -8.4150 h1        1 O43      0.051200
     63 H27         9.0710   -1.2860   -8.3870 h1        1 O43      0.051200
     64 H28         7.8830   -1.1790  -10.6610 hc        1 O43      0.062700
     65 H29         8.7360    1.7900  -10.4390 hc        1 O43      0.054700
     66 H30         7.0500    1.1540  -10.6350 hc        1 O43      0.054700
     67 H31         8.1190    1.9920  -12.8140 h1        1 O43      0.054700
     68 H32         7.5830    0.2350  -12.8670 h1        1 O43      0.054700
     69 H33         9.4410   -1.4240  -12.7630 h1        1 O43      0.054700
     70 H34        11.1210   -0.6880  -12.6530 h1        1 O43      0.054700
     71 H35        10.7100    0.0380  -10.3350 hc        1 O43      0.054700
     72 H36        10.2790   -1.7200  -10.4510 hc        1 O43      0.054700
     73 H032        1.7880    1.5220    1.8260 hn        1 O43      0.452800
@<TRIPOS>BOND
     1    1    2 2   
     2    2    3 1   
     3    2    7 1   
     4    3    4 1   
     5    3   37 1   
     6    3   73 1   
     7    4    5 1   
     8    4    6 1   
     9    4   38 1   
    10    5    6 1   
    11    5   39 1   
    12    5   40 1   
    13    6   41 1   
    14    6   42 1   
    15    7    8 ar  
    16    7   12 ar  
    17    8    9 ar  
    18    8   43 1   
    19    9   10 ar  
    20    9   44 1   
    21   10   11 ar  
    22   10   13 1   
    23   11   12 ar  
    24   11   45 1   
    25   12   46 1   
    26   13   14 2   
    27   13   17 1   
    28   14   15 1   
    29   14   47 1   
    30   15   16 2   
    31   16   17 1   
    32   16   28 1   
    33   17   18 1   
    34   18   19 2   
    35   19   20 1   
    36   19   27 1   
    37   20   21 1   
    38   20   48 1   
    39   21   22 1   
    40   21   26 1   
    41   21   49 1   
    42   22   23 1   
    43   22   50 1   
    44   22   51 1   
    45   23   24 1   
    46   23   52 1   
    47   23   53 1   
    48   24   25 1   
    49   24   54 1   
    50   24   55 1   
    51   25   26 1   
    52   25   56 1   
    53   25   57 1   
    54   26   58 1   
    55   26   59 1   
    56   27   28 2   
    57   27   60 1   
    58   28   29 1   
    59   29   30 1   
    60   29   61 1   
    61   30   31 1   
    62   30   62 1   
    63   30   63 1   
    64   31   32 1   
    65   31   36 1   
    66   31   64 1   
    67   32   33 1   
    68   32   65 1   
    69   32   66 1   
    70   33   34 1   
    71   33   67 1   
    72   33   68 1   
    73   34   35 1   
    74   35   36 1   
    75   35   69 1   
    76   35   70 1   
    77   36   71 1   
    78   36   72 1   
@<TRIPOS>SUBSTRUCTURE
     1 O43         1 TEMP              0 ****  ****    0 ROOT
