@<TRIPOS>MOLECULE
O43
   73    78     1     0     0
SMALL
bcc


@<TRIPOS>ATOM
      1 O01        -0.1580    0.9590    0.0960 o         1 O43     -0.437100
      2 C02         1.0480    0.7600    0.0290 c         1 O43      0.588700
      3 N03         1.7500    0.6080    1.3840 n4        1 O43     -0.647800
      4 C04         1.0250   -0.2990    2.2850 cx        1 O43      0.001500
      5 C05         1.6630   -0.7800    3.5720 cx        1 O43     -0.104400
      6 C06         1.4470   -1.7440    2.4470 cx        1 O43     -0.104400
      7 C07         1.8970    0.6330   -1.1420 ca        1 O43     -0.247600
      8 C08         1.2750    0.2220   -2.3390 ca        1 O43     -0.054000
      9 C09         2.0190    0.0860   -3.4980 ca        1 O43     -0.143000
     10 C10         3.4030    0.3680   -3.5130 ca        1 O43      0.124200
     11 C11         4.0100    0.8050   -2.3150 ca        1 O43     -0.143000
     12 C12         3.2710    0.9330   -1.1510 ca        1 O43     -0.054000
     13 C13         4.1130    0.2330   -4.7480 cc        1 O43     -0.171300
     14 C14         3.5510    0.2310   -6.0760 cd        1 O43      0.053600
     15 N15         4.5100    0.1070   -7.0300 nd        1 O43     -0.260600
     16 C16         5.7050    0.0160   -6.3450 cc        1 O43     -0.125300
     17 N17         5.5080    0.0990   -4.9390 na        1 O43      0.282200
     18 N18         6.4570    0.0040   -4.0190 nc        1 O43     -0.634800
     19 C19         7.7430   -0.1270   -4.4800 cd        1 O43      0.691200
     20 N20         8.8050   -0.1020   -3.5790 nh        1 O43     -0.829900
     21 C21         8.6270   -0.3120   -2.1530 c3        1 O43      0.212500
     22 C22         9.8930    0.1170   -1.3870 c3        1 O43     -0.096900
     23 C23         9.6660   -0.0060    0.1050 c3        1 O43     -0.072400
     24 C24         9.2790   -1.4170    0.4950 c3        1 O43     -0.083400
     25 C25         8.0670   -1.8850   -0.2820 c3        1 O43     -0.072400
     26 C26         8.2840   -1.7640   -1.7750 c3        1 O43     -0.096900
     27 C27         8.0710   -0.2160   -5.8880 cd        1 O43     -0.411300
     28 C28         7.0640   -0.1470   -6.8490 cc        1 O43      0.311600
     29 N29         7.2610   -0.2410   -8.1940 nh        1 O43     -0.743600
     30 C30         8.5790   -0.3390   -8.7650 c3        1 O43      0.212800
     31 C31         8.5790   -0.3590  -10.2990 c3        1 O43     -0.076700
     32 C32         8.1350    0.9760  -10.8760 c3        1 O43     -0.112900
     33 C33         8.3020    0.9860  -12.3870 c3        1 O43      0.125900
     34 O34         9.6330    0.6690  -12.7750 os        1 O43     -0.406600
     35 C35        10.0600   -0.6010  -12.2970 c3        1 O43      0.125900
     36 C36         9.9850   -0.6880  -10.7820 c3        1 O43     -0.112900
     37 H1          1.7990    1.5320    1.8300 hn        1 O43      0.452800
     38 H2         -0.0650   -0.0510    2.2780 hx        1 O43      0.159700
     39 H3          1.0180   -0.8290    4.4720 hc        1 O43      0.108200
     40 H4          2.6950   -0.4770    3.8290 hc        1 O43      0.108200
     41 H5          0.6430   -2.5030    2.5170 hc        1 O43      0.108200
     42 H6          2.3240   -2.1320    1.8960 hc        1 O43      0.108200
     43 H7          0.1930    0.0060   -2.3440 ha        1 O43      0.141000
     44 H8          1.5220   -0.2530   -4.4230 ha        1 O43      0.172500
     45 H9          5.0800    1.0700   -2.2950 ha        1 O43      0.172500
     46 H10         3.7800    1.3160   -0.2540 ha        1 O43      0.141000
     47 H11         2.4930    0.3340   -6.3300 h4        1 O43      0.190000
     48 H12         9.6590   -0.4660   -3.9480 hn        1 O43      0.424800
     49 H13         7.7770    0.3520   -1.8120 h1        1 O43      0.070700
     50 H14        10.7590   -0.5280   -1.6890 hc        1 O43      0.052950
     51 H15        10.1510    1.1790   -1.6390 hc        1 O43      0.052950
     52 H16        10.6050    0.2890    0.6440 hc        1 O43      0.040950
     53 H17         8.8600    0.7070    0.4220 hc        1 O43      0.040950
     54 H18         9.0620   -1.4580    1.5940 hc        1 O43      0.047700
     55 H19        10.1400   -2.1090    0.2970 hc        1 O43      0.047700
     56 H20         7.1730   -1.2770    0.0160 hc        1 O43      0.040950
     57 H21         7.8470   -2.9550   -0.0270 hc        1 O43      0.040950
     58 H22         9.1190   -2.4430   -2.0890 hc        1 O43      0.052950
     59 H23         7.3570   -2.0900   -2.3150 hc        1 O43      0.052950
     60 H24         9.1210   -0.3280   -6.1870 ha        1 O43      0.161000
     61 H25         6.4840   -0.1440   -8.8080 hn        1 O43      0.466800
     62 H26         9.0660   -1.2870   -8.3910 h1        1 O43      0.051200
     63 H27         9.2070    0.5310   -8.4100 h1        1 O43      0.051200
     64 H28         7.8800   -1.1640  -10.6650 hc        1 O43      0.062700
     65 H29         7.0610    1.1750  -10.6290 hc        1 O43      0.054700
     66 H30         8.7510    1.8000  -10.4290 hc        1 O43      0.054700
     67 H31         7.5890    0.2620  -12.8650 h1        1 O43      0.054700
     68 H32         8.1360    2.0150  -12.8040 h1        1 O43      0.054700
     69 H33        11.1210   -0.6830  -12.6530 h1        1 O43      0.054700
     70 H34         9.4370   -1.4080  -12.7670 h1        1 O43      0.054700
     71 H35        10.7140    0.0350  -10.3320 hc        1 O43      0.054700
     72 H36        10.2730   -1.7200  -10.4560 hc        1 O43      0.054700
     73 H032        2.7030    0.2610    1.2350 hn        1 O43      0.452800
@<TRIPOS>BOND
     1    1    2 2   
     2    2    3 1   
     3    2    7 1   
     4    3    4 1   
     5    3   37 1   
     6    3   73 1   
     7    4    5 1   
     8    4    6 1   
     9    4   38 1   
    10    5    6 1   
    11    5   39 1   
    12    5   40 1   
    13    6   41 1   
    14    6   42 1   
    15    7    8 ar  
    16    7   12 ar  
    17    8    9 ar  
    18    8   43 1   
    19    9   10 ar  
    20    9   44 1   
    21   10   11 ar  
    22   10   13 1   
    23   11   12 ar  
    24   11   45 1   
    25   12   46 1   
    26   13   14 2   
    27   13   17 1   
    28   14   15 1   
    29   14   47 1   
    30   15   16 2   
    31   16   17 1   
    32   16   28 1   
    33   17   18 1   
    34   18   19 2   
    35   19   20 1   
    36   19   27 1   
    37   20   21 1   
    38   20   48 1   
    39   21   22 1   
    40   21   26 1   
    41   21   49 1   
    42   22   23 1   
    43   22   50 1   
    44   22   51 1   
    45   23   24 1   
    46   23   52 1   
    47   23   53 1   
    48   24   25 1   
    49   24   54 1   
    50   24   55 1   
    51   25   26 1   
    52   25   56 1   
    53   25   57 1   
    54   26   58 1   
    55   26   59 1   
    56   27   28 2   
    57   27   60 1   
    58   28   29 1   
    59   29   30 1   
    60   29   61 1   
    61   30   31 1   
    62   30   62 1   
    63   30   63 1   
    64   31   32 1   
    65   31   36 1   
    66   31   64 1   
    67   32   33 1   
    68   32   65 1   
    69   32   66 1   
    70   33   34 1   
    71   33   67 1   
    72   33   68 1   
    73   34   35 1   
    74   35   36 1   
    75   35   69 1   
    76   35   70 1   
    77   36   71 1   
    78   36   72 1   
@<TRIPOS>SUBSTRUCTURE
     1 O43         1 TEMP              0 ****  ****    0 ROOT
