@<TRIPOS>MOLECULE
O47
   46    47     1     0     0
SMALL
bcc


@<TRIPOS>ATOM
      1 C1          0.2280    0.9040    0.5630 ca        1 O47     -0.163300
      2 C2          1.5700    0.5570    0.6910 ca        1 O47     -0.053000
      3 C3          2.0520    0.1400    1.9380 ca        1 O47     -0.210600
      4 C4          1.1870    0.0480    3.0410 ca        1 O47      0.004000
      5 C5         -0.1590    0.4060    2.9010 cp        1 O47     -0.127500
      6 C6         -0.6390    0.8410    1.6590 ca        1 O47     -0.009000
      7 C7         -0.3010    1.3480   -0.8040 c3        1 O47      0.691200
      8 F8         -1.3670    2.2060   -0.7390 f         1 O47     -0.218300
      9 F9          0.6360    2.0020   -1.5660 f         1 O47     -0.218300
     10 F10        -0.7250    0.3080   -1.5910 f         1 O47     -0.218300
     11 N11        -0.5930    0.7210    5.2740 nb        1 O47     -0.709000
     12 C12        -1.0700    0.3360    4.0600 cp        1 O47      0.460800
     13 C13        -2.3890   -0.1200    3.8880 ca        1 O47     -0.340600
     14 C14        -3.2220   -0.1660    5.0380 ca        1 O47      0.473600
     15 N15        -2.7640    0.2120    6.2530 nb        1 O47     -0.655000
     16 C16        -1.4650    0.6410    6.3220 ca        1 O47      0.563700
     17 C17        -4.6390   -0.6400    4.8900 c3        1 O47     -0.142700
     18 C18        -4.8860   -1.9270    5.6530 c3        1 O47     -0.076400
     19 C19        -6.2920   -2.4220    5.4260 c3        1 O47     -0.097100
     20 C20         3.4480   -0.2580    2.1430 c         1 O47      0.575700
     21 N21         4.4920    0.5810    1.3990 nx        1 O47     -0.593200
     22 O22         3.8870   -1.1510    2.8500 o         1 O47     -0.402100
     23 C23         5.1650   -0.2470    0.3660 c3        1 O47      0.082100
     24 C24         5.4760    1.1400    2.3620 c3        1 O47      0.082100
     25 C25        -0.9570    1.0530    7.6840 ce        1 O47      0.390200
     26 N26         0.0140    1.8270    7.9540 n2        1 O47     -0.719100
     27 H2          2.2170    0.5950   -0.2020 ha        1 O47      0.150000
     28 H4          1.5710   -0.3060    4.0160 ha        1 O47      0.188000
     29 H6         -1.6970    1.1410    1.5400 ha        1 O47      0.186000
     30 H13        -2.7670   -0.4420    2.9100 ha        1 O47      0.162000
     31 H17        -4.8610   -0.7970    3.8010 hc        1 O47      0.069700
     32 H17A       -5.3370    0.1580    5.2660 hc        1 O47      0.069700
     33 H18        -4.7200   -1.7540    6.7490 hc        1 O47      0.052700
     34 H18A       -4.1530   -2.7090    5.3220 hc        1 O47      0.052700
     35 H19        -6.4720   -2.6270    4.3430 hc        1 O47      0.042033
     36 H19A       -7.0380   -1.6640    5.7690 hc        1 O47      0.042033
     37 H19B       -6.4620   -3.3660    5.9970 hc        1 O47      0.042033
     38 H23         5.9480    0.3660   -0.1560 hx        1 O47      0.110200
     39 H23A        5.6490   -1.1330    0.8600 hx        1 O47      0.110200
     40 H23B        4.4020   -0.6010   -0.3780 hx        1 O47      0.110200
     41 H24         4.9420    1.8070    3.0910 hx        1 O47      0.110200
     42 H24A        6.2510    1.7300    1.8040 hx        1 O47      0.110200
     43 H24B        5.9710    0.2970    2.9180 hx        1 O47      0.110200
     44 H25        -1.5270    0.6100    8.5290 h4        1 O47      0.056800
     45 HN26        0.5240    2.2380    7.2010 hn        1 O47      0.399400
     46 H211        4.0090    1.3630    0.9370 hn        1 O47      0.456800
@<TRIPOS>BOND
     1    1    2 ar  
     2    1    6 ar  
     3    1    7 1   
     4    2    3 ar  
     5    2   27 1   
     6    3    4 ar  
     7    3   20 1   
     8    4    5 ar  
     9    4   28 1   
    10    5    6 ar  
    11    5   12 1   
    12    6   29 1   
    13    7    8 1   
    14    7    9 1   
    15    7   10 1   
    16   11   12 ar  
    17   11   16 ar  
    18   12   13 ar  
    19   13   14 ar  
    20   13   30 1   
    21   14   15 ar  
    22   14   17 1   
    23   15   16 ar  
    24   16   25 1   
    25   17   18 1   
    26   17   31 1   
    27   17   32 1   
    28   18   19 1   
    29   18   33 1   
    30   18   34 1   
    31   19   35 1   
    32   19   36 1   
    33   19   37 1   
    34   20   21 1   
    35   20   22 2   
    36   21   23 1   
    37   21   24 1   
    38   21   46 1   
    39   23   38 1   
    40   23   39 1   
    41   23   40 1   
    42   24   41 1   
    43   24   42 1   
    44   24   43 1   
    45   25   26 2   
    46   25   44 1   
    47   26   45 1   
@<TRIPOS>SUBSTRUCTURE
     1 O47         1 TEMP              0 ****  ****    0 ROOT
