@<TRIPOS>MOLECULE
O47
   45    46     1     0     0
SMALL
bcc


@<TRIPOS>ATOM
      1 C1         -1.8070    1.6460   -0.6860 ca        1 O47     -0.180300
      2 C2         -2.7430    0.7730   -0.1280 ca        1 O47     -0.027000
      3 C3         -2.3240   -0.4850    0.3160 ca        1 O47     -0.141600
      4 C4         -0.9800   -0.8560    0.2260 ca        1 O47     -0.036000
      5 C5         -0.0430    0.0330   -0.3190 cp        1 O47     -0.162500
      6 C6         -0.4630    1.2840   -0.7870 ca        1 O47     -0.050000
      7 C7         -2.2520    3.0190   -1.1750 c3        1 O47      0.690200
      8 F8         -1.5390    3.4970   -2.2490 f         1 O47     -0.233633
      9 F9         -3.5620    3.0850   -1.5820 f         1 O47     -0.233633
     10 F10        -2.1410    4.0130   -0.2330 f         1 O47     -0.233633
     11 N11         1.7080   -1.6210   -0.7200 nb        1 O47     -0.679000
     12 C12         1.3800   -0.3380   -0.4100 cp        1 O47      0.492800
     13 C13         2.3690    0.6410   -0.1760 ca        1 O47     -0.353600
     14 C14         3.7240    0.2500   -0.2760 ca        1 O47      0.456600
     15 N15         4.0720   -1.0220   -0.5890 nb        1 O47     -0.679000
     16 C16         3.0420   -1.8960   -0.7950 ca        1 O47      0.605700
     17 C17         4.7980    1.2730   -0.0400 c3        1 O47     -0.136700
     18 C18         5.6260    0.9490    1.1880 c3        1 O47     -0.076400
     19 C19         6.6460    2.0280    1.4500 c3        1 O47     -0.095100
     20 C20        -3.3330   -1.3840    0.9530 c         1 O47      0.671700
     21 N21        -3.4800   -2.6770    0.4790 n         1 O47     -0.474800
     22 O22        -4.0330   -0.9670    1.8980 o         1 O47     -0.594100
     23 C23        -4.4020   -3.5810    1.1120 c3        1 O47      0.077300
     24 C24        -2.7720   -3.1800   -0.6620 c3        1 O47      0.077300
     25 C25         3.4260   -3.3170   -1.1230 ce        1 O47      0.391200
     26 N26         3.3670   -3.7450   -2.3210 n2        1 O47     -0.731100
     27 H2         -3.8010    1.0710   -0.0320 ha        1 O47      0.172000
     28 H4         -0.6580   -1.8470    0.5860 ha        1 O47      0.164000
     29 H6          0.2580    1.9820   -1.2450 ha        1 O47      0.158000
     30 H13         2.0970    1.6710    0.0860 ha        1 O47      0.160000
     31 H17         5.4670    1.3240   -0.9410 hc        1 O47      0.062700
     32 H17A        4.3210    2.2820    0.0830 hc        1 O47      0.062700
     33 H18         4.9530    0.8420    2.0790 hc        1 O47      0.051200
     34 H18A        6.1460   -0.0350    1.0420 hc        1 O47      0.051200
     35 H19         7.2510    1.7730    2.3530 hc        1 O47      0.036367
     36 H19A        7.3390    2.1360    0.5800 hc        1 O47      0.036367
     37 H19B        6.1470    3.0110    1.6260 hc        1 O47      0.036367
     38 H23        -5.2540   -3.8110    0.4170 h1        1 O47      0.047033
     39 H23A       -3.8740   -4.5390    1.3640 h1        1 O47      0.047033
     40 H23B       -4.8130   -3.1270    2.0530 h1        1 O47      0.047033
     41 H24        -1.8820   -3.7830   -0.3330 h1        1 O47      0.047033
     42 H24A       -3.4500   -3.8450   -1.2620 h1        1 O47      0.047033
     43 H24B       -2.4180   -2.3440   -1.3210 h1        1 O47      0.047033
     44 H25         3.7500   -3.8790   -0.2200 h4        1 O47     -0.012200
     45 HN26        3.6430   -4.6970   -2.4530 hn        1 O47      0.397400
@<TRIPOS>BOND
     1    1    2 ar  
     2    1    6 ar  
     3    1    7 1   
     4    2    3 ar  
     5    2   27 1   
     6    3    4 ar  
     7    3   20 1   
     8    4    5 ar  
     9    4   28 1   
    10    5    6 ar  
    11    5   12 1   
    12    6   29 1   
    13    7    8 1   
    14    7    9 1   
    15    7   10 1   
    16   11   12 ar  
    17   11   16 ar  
    18   12   13 ar  
    19   13   14 ar  
    20   13   30 1   
    21   14   15 ar  
    22   14   17 1   
    23   15   16 ar  
    24   16   25 1   
    25   17   18 1   
    26   17   31 1   
    27   17   32 1   
    28   18   19 1   
    29   18   33 1   
    30   18   34 1   
    31   19   35 1   
    32   19   36 1   
    33   19   37 1   
    34   20   21 1   
    35   20   22 2   
    36   21   23 1   
    37   21   24 1   
    38   23   38 1   
    39   23   39 1   
    40   23   40 1   
    41   24   41 1   
    42   24   42 1   
    43   24   43 1   
    44   25   26 2   
    45   25   44 1   
    46   26   45 1   
@<TRIPOS>SUBSTRUCTURE
     1 O47         1 TEMP              0 ****  ****    0 ROOT
