@<TRIPOS>MOLECULE
O47
   45    38     1     0     0
SMALL
bcc


@<TRIPOS>ATOM
      1 C1         -0.2680   -0.6120   -2.9740 c1        1 O47     -0.175000
      2 C2          1.1180   -0.5600   -2.9710 c2        1 O47     -0.046000
      3 C3          1.8120   -0.4610   -1.7550 c1        1 O47     -0.119000
      4 C4          1.1010   -0.4140   -0.5420 c1        1 O47     -0.128500
      5 C5         -0.2970   -0.4660   -0.5470 c1        1 O47      0.001000
      6 C6         -0.9830   -0.5640   -1.7480 c1        1 O47     -0.027000
      7 C7         -1.0180   -0.6620   -4.2680 c2        1 O47      0.469000
      8 F8         -0.9890    0.5750   -4.8600 f         1 O47     -0.162333
      9 F9         -0.4450   -1.5710   -5.0930 f         1 O47     -0.162333
     10 F10        -2.3110   -1.0230   -4.0240 f         1 O47     -0.162333
     11 N11        -1.3790   -1.6640    1.2190 n1        1 O47     -0.172000
     12 C12        -1.0060   -0.4840    0.6720 c1        1 O47      0.001000
     13 C13        -1.3680    0.7090    1.2830 c1        1 O47     -0.128500
     14 C14        -2.0860    0.6910    2.4140 c1        1 O47      0.032000
     15 N15        -2.4660   -0.5160    2.9700 n1        1 O47     -0.151000
     16 C16        -2.1140   -1.6800    2.3750 c1        1 O47     -0.003000
     17 C17        -2.5620    1.9880    3.0280 c3        1 O47     -0.122000
     18 C18        -2.4510    1.9030    4.4920 c3        1 O47     -0.155000
     19 C19        -2.9200    3.2260    5.1220 c3        1 O47     -0.213000
     20 C20         3.3870   -0.3390   -1.7500 c2        1 O47      0.345000
     21 N21         4.1120   -0.3270   -3.0020 n         1 O47     -0.332000
     22 O22         3.9750   -0.1110   -0.7050 o         1 O47     -0.359000
     23 C23         4.5640    0.9050   -3.5450 c3        1 O47     -0.078000
     24 C24         4.5560   -1.5590   -3.5810 c3        1 O47     -0.078000
     25 C25        -2.5950   -3.0000    2.9530 c2        1 O47      0.002000
     26 N26        -1.8380   -3.6600    3.8140 n1        1 O47     -0.202000
     27 H2          1.6250   -0.5950   -3.8390 ha        1 O47      0.161000
     28 H4          1.5970   -0.3430    0.3270 ha        1 O47      0.163500
     29 H6         -1.9870   -0.6010   -1.7510 ha        1 O47      0.172000
     30 H13        -1.1060    1.5400    0.9000 ha        1 O47      0.163500
     31 H17        -2.0120    2.7300    2.6990 hc        1 O47      0.102500
     32 H17A       -3.4910    2.1400    2.7820 hc        1 O47      0.102500
     33 H18        -3.0050    1.1780    4.8150 hc        1 O47      0.091000
     34 H18A       -1.5350    1.7380    4.7340 hc        1 O47      0.091000
     35 H19        -2.3890    3.9990    4.7230 hc        1 O47      0.076000
     36 H19A       -3.8820    3.3560    4.9370 hc        1 O47      0.076000
     37 H19B       -2.7700    3.1940    6.1240 hc        1 O47      0.076000
     38 H23         4.3280    0.9500   -4.4840 h1        1 O47      0.086000
     39 H23A        4.1440    1.6480   -3.0670 h1        1 O47      0.086000
     40 H23B        5.5110    0.9620   -3.4530 h1        1 O47      0.086000
     41 H24         3.8410   -2.2290   -3.5160 h1        1 O47      0.086000
     42 H24A        5.3480   -1.8790   -3.1020 h1        1 O47      0.086000
     43 H24B        4.7850   -1.4100   -4.5430 h1        1 O47      0.086000
     44 H25        -3.4910   -3.3730    2.6810 h4        1 O47      0.171000
     45 HN26       -1.0380   -3.3270    4.0570 DU        1 O47      0.163000
@<TRIPOS>BOND
     1    1    2 1   
     2    1    6 1   
     3    2    3 1   
     4    2   27 1   
     5    3   20 1   
     6    4    5 1   
     7    4   28 1   
     8    6   29 1   
     9    7    8 1   
    10    7    9 1   
    11    7   10 1   
    12   11   16 1   
    13   12   13 1   
    14   13   30 1   
    15   14   15 1   
    16   14   17 1   
    17   16   25 1   
    18   17   18 1   
    19   17   31 1   
    20   17   32 1   
    21   18   19 1   
    22   18   33 1   
    23   18   34 1   
    24   19   35 1   
    25   19   36 1   
    26   19   37 1   
    27   20   21 1   
    28   20   22 1   
    29   21   23 1   
    30   21   24 1   
    31   23   38 1   
    32   23   39 1   
    33   23   40 1   
    34   24   41 1   
    35   24   42 1   
    36   24   43 1   
    37   25   26 1   
    38   25   44 1   
@<TRIPOS>SUBSTRUCTURE
     1 O47         1 TEMP              0 ****  ****    0 ROOT
