@<TRIPOS>MOLECULE
O47
   46    47     1     0     0
SMALL
bcc


@<TRIPOS>ATOM
      1 C1          0.2340    0.9040    0.5680 ca        1 O47     -0.163300
      2 C2          1.5740    0.5460    0.6940 ca        1 O47     -0.053000
      3 C3          2.0530    0.1190    1.9400 ca        1 O47     -0.210600
      4 C4          1.1870    0.0290    3.0420 ca        1 O47      0.004000
      5 C5         -0.1570    0.3990    2.9030 cp        1 O47     -0.127500
      6 C6         -0.6330    0.8430    1.6630 ca        1 O47     -0.009000
      7 C7         -0.2910    1.3580   -0.7970 c3        1 O47      0.691200
      8 F8         -1.3510    2.2240   -0.7290 f         1 O47     -0.218300
      9 F9          0.6510    2.0080   -1.5560 f         1 O47     -0.218300
     10 F10        -0.7230    0.3250   -1.5890 f         1 O47     -0.218300
     11 N11        -0.5890    0.7070    5.2780 nb        1 O47     -0.709000
     12 C12        -1.0680    0.3310    4.0620 cp        1 O47      0.460800
     13 C13        -2.3910   -0.1140    3.8880 ca        1 O47     -0.340600
     14 C14        -3.2240   -0.1600    5.0370 ca        1 O47      0.473600
     15 N15        -2.7640    0.2090    6.2530 nb        1 O47     -0.655000
     16 C16        -1.4620    0.6280    6.3250 ca        1 O47      0.563700
     17 C17        -4.6450   -0.6230    4.8860 c3        1 O47     -0.142700
     18 C18        -4.8990   -1.9160    5.6380 c3        1 O47     -0.076400
     19 C19        -6.3090   -2.3990    5.4090 c3        1 O47     -0.097100
     20 C20         3.4450   -0.2900    2.1420 c         1 O47      0.575700
     21 N21         4.4960    0.5440    1.4030 n4        1 O47     -0.593200
     22 O22         3.8770   -1.1890    2.8460 o         1 O47     -0.402100
     23 C23         5.1630   -0.2840    0.3670 c3        1 O47      0.082100
     24 C24         5.4830    1.0910    2.3690 c3        1 O47      0.082100
     25 C25        -0.9510    1.0310    7.6890 ce        1 O47      0.390200
     26 N26         0.0250    1.7960    7.9620 n2        1 O47     -0.719100
     27 H2          2.2210    0.5830   -0.1990 ha        1 O47      0.150000
     28 H4          1.5680   -0.3320    4.0150 ha        1 O47      0.188000
     29 H6         -1.6890    1.1520    1.5460 ha        1 O47      0.186000
     30 H13        -2.7710   -0.4290    2.9080 ha        1 O47      0.162000
     31 H17        -5.3370    0.1750    5.2720 hc        1 O47      0.069700
     32 H17A       -4.8700   -0.7670    3.7960 hc        1 O47      0.069700
     33 H18        -4.7280   -1.7550    6.7350 hc        1 O47      0.052700
     34 H18A       -4.1720   -2.6990    5.2960 hc        1 O47      0.052700
     35 H19        -6.4930   -2.5920    4.3250 hc        1 O47      0.042033
     36 H19A       -7.0480   -1.6400    5.7620 hc        1 O47      0.042033
     37 H19B       -6.4830   -3.3480    5.9710 hc        1 O47      0.042033
     38 H23         4.3980   -0.6290   -0.3790 hx        1 O47      0.110200
     39 H23A        5.9510    0.3250   -0.1520 hx        1 O47      0.110200
     40 H23B        5.6410   -1.1770    0.8580 hx        1 O47      0.110200
     41 H24         5.9720    0.2430    2.9220 hx        1 O47      0.110200
     42 H24A        6.2630    1.6790    1.8140 hx        1 O47      0.110200
     43 H24B        4.9540    1.7600    3.1000 hx        1 O47      0.110200
     44 H25        -1.5250    0.5870    8.5320 h4        1 O47      0.056800
     45 HN26        0.5390    2.2070    7.2120 hn        1 O47      0.399400
     46 H211        4.0190    1.3310    0.9440 hn        1 O47      0.456800
@<TRIPOS>BOND
     1    1    2 ar  
     2    1    6 ar  
     3    1    7 1   
     4    2    3 ar  
     5    2   27 1   
     6    3    4 ar  
     7    3   20 1   
     8    4    5 ar  
     9    4   28 1   
    10    5    6 ar  
    11    5   12 1   
    12    6   29 1   
    13    7    8 1   
    14    7    9 1   
    15    7   10 1   
    16   11   12 ar  
    17   11   16 ar  
    18   12   13 ar  
    19   13   14 ar  
    20   13   30 1   
    21   14   15 ar  
    22   14   17 1   
    23   15   16 ar  
    24   16   25 1   
    25   17   18 1   
    26   17   31 1   
    27   17   32 1   
    28   18   19 1   
    29   18   33 1   
    30   18   34 1   
    31   19   35 1   
    32   19   36 1   
    33   19   37 1   
    34   20   21 1   
    35   20   22 2   
    36   21   23 1   
    37   21   24 1   
    38   21   46 1   
    39   23   38 1   
    40   23   39 1   
    41   23   40 1   
    42   24   41 1   
    43   24   42 1   
    44   24   43 1   
    45   25   26 2   
    46   25   44 1   
    47   26   45 1   
@<TRIPOS>SUBSTRUCTURE
     1 O47         1 TEMP              0 ****  ****    0 ROOT
