@<TRIPOS>MOLECULE
O47
   46    47     1     0     0
SMALL
bcc


@<TRIPOS>ATOM
      1 C1          0.2530    0.9220    0.5730 ca        1 O47     -0.163300
      2 C2          1.5890    0.5530    0.7030 ca        1 O47     -0.053000
      3 C3          2.0590    0.1170    1.9490 ca        1 O47     -0.210600
      4 C4          1.1880    0.0290    3.0470 ca        1 O47      0.004000
      5 C5         -0.1530    0.4090    2.9040 cp        1 O47     -0.127500
      6 C6         -0.6200    0.8620    1.6640 ca        1 O47     -0.009000
      7 C7         -0.2630    1.3860   -0.7920 c3        1 O47      0.691200
      8 F8         -1.3160    2.2600   -0.7250 f         1 O47     -0.218300
      9 F9          0.6880    2.0320   -1.5440 f         1 O47     -0.218300
     10 F10        -0.6990    0.3600   -1.5900 f         1 O47     -0.218300
     11 N11        -0.5930    0.7090    5.2790 nb        1 O47     -0.709000
     12 C12        -1.0690    0.3430    4.0590 cp        1 O47      0.460800
     13 C13        -2.3950   -0.0900    3.8770 ca        1 O47     -0.340600
     14 C14        -3.2330   -0.1350    5.0220 ca        1 O47      0.473600
     15 N15        -2.7760    0.2250    6.2420 nb        1 O47     -0.655000
     16 C16        -1.4710    0.6330    6.3210 ca        1 O47      0.563700
     17 C17        -4.6570   -0.5840    4.8640 c3        1 O47     -0.142700
     18 C18        -4.9270   -1.8770    5.6110 c3        1 O47     -0.076400
     19 C19        -6.3400   -2.3470    5.3740 c3        1 O47     -0.097100
     20 C20         3.4470   -0.3040    2.1560 c         1 O47      0.575700
     21 N21         4.5070    0.5260    1.4250 n4        1 O47     -0.593200
     22 O22         3.8690   -1.2090    2.8580 o         1 O47     -0.402100
     23 C23         5.1730   -0.3040    0.3880 c3        1 O47      0.082100
     24 C24         5.4950    1.0610    2.3970 c3        1 O47      0.082100
     25 C25        -0.9620    1.0250    7.6900 ce        1 O47      0.390200
     26 N26         0.0190    1.7820    7.9700 n2        1 O47     -0.719100
     27 H2          2.2400    0.5890   -0.1860 ha        1 O47      0.150000
     28 H4          1.5620   -0.3400    4.0200 ha        1 O47      0.188000
     29 H6         -1.6730    1.1800    1.5440 ha        1 O47      0.186000
     30 H13        -2.7730   -0.3980    2.8940 ha        1 O47      0.162000
     31 H17        -4.8780   -0.7250    3.7720 hc        1 O47      0.069700
     32 H17A       -5.3440    0.2190    5.2470 hc        1 O47      0.069700
     33 H18        -4.7620   -1.7190    6.7100 hc        1 O47      0.052700
     34 H18A       -4.2050   -2.6660    5.2730 hc        1 O47      0.052700
     35 H19        -6.5190   -2.5370    4.2880 hc        1 O47      0.042033
     36 H19A       -7.0750   -1.5820    5.7230 hc        1 O47      0.042033
     37 H19B       -6.5260   -3.2960    5.9330 hc        1 O47      0.042033
     38 H23         5.9670    0.3020   -0.1250 hx        1 O47      0.110200
     39 H23A        5.6410   -1.2020    0.8770 hx        1 O47      0.110200
     40 H23B        4.4080   -0.6400   -0.3630 hx        1 O47      0.110200
     41 H24         4.9680    1.7310    3.1290 hx        1 O47      0.110200
     42 H24A        6.2820    1.6450    1.8480 hx        1 O47      0.110200
     43 H24B        5.9750    0.2070    2.9490 hx        1 O47      0.110200
     44 H25        -1.5430    0.5830    8.5280 h4        1 O47      0.056800
     45 HN26        0.5390    2.1910    7.2240 hn        1 O47      0.399400
     46 H211        4.0390    1.3180    0.9670 hn        1 O47      0.456800
@<TRIPOS>BOND
     1    1    2 ar  
     2    1    6 ar  
     3    1    7 1   
     4    2    3 ar  
     5    2   27 1   
     6    3    4 ar  
     7    3   20 1   
     8    4    5 ar  
     9    4   28 1   
    10    5    6 ar  
    11    5   12 1   
    12    6   29 1   
    13    7    8 1   
    14    7    9 1   
    15    7   10 1   
    16   11   12 ar  
    17   11   16 ar  
    18   12   13 ar  
    19   13   14 ar  
    20   13   30 1   
    21   14   15 ar  
    22   14   17 1   
    23   15   16 ar  
    24   16   25 1   
    25   17   18 1   
    26   17   31 1   
    27   17   32 1   
    28   18   19 1   
    29   18   33 1   
    30   18   34 1   
    31   19   35 1   
    32   19   36 1   
    33   19   37 1   
    34   20   21 1   
    35   20   22 2   
    36   21   23 1   
    37   21   24 1   
    38   21   46 1   
    39   23   38 1   
    40   23   39 1   
    41   23   40 1   
    42   24   41 1   
    43   24   42 1   
    44   24   43 1   
    45   25   26 2   
    46   25   44 1   
    47   26   45 1   
@<TRIPOS>SUBSTRUCTURE
     1 O47         1 TEMP              0 ****  ****    0 ROOT
