@<TRIPOS>MOLECULE
O48
   39    38     1     0     0
SMALL
bcc


@<TRIPOS>ATOM
      1 C1         -0.2500    0.8520    0.7060 c3        1 O48      0.188400
      2 N1         -2.9640    0.4820   -1.9880 nz        1 O48     -0.801500
      3 O1         -1.4140   -1.2930   -1.0010 o         1 O48     -0.560800
      4 S1         -1.2160   -0.1050   -1.6350 s6        1 O48      1.637400
      5 C2          1.2360    0.6200    0.5330 c3        1 O48     -0.129400
      6 O2         -0.5950    0.1280   -2.8210 o         1 O48     -0.560800
      7 C3          1.9080    0.5670    1.8910 c3        1 O48     -0.076400
      8 O3         -0.8780    1.0480   -0.5750 os        1 O48     -0.591500
      9 C4          3.3950    0.3220    1.7440 c3        1 O48     -0.079400
     10 C5          4.0720    0.2730    3.0980 c3        1 O48     -0.079400
     11 C6          5.5590    0.0280    2.9540 c3        1 O48     -0.079400
     12 C7          6.2370   -0.0200    4.3070 c3        1 O48     -0.079400
     13 C8          7.7250   -0.2640    4.1650 c3        1 O48     -0.079400
     14 C9          8.4050   -0.3130    5.5160 c3        1 O48     -0.079400
     15 C10         9.8860   -0.5560    5.3800 c3        1 O48     -0.094100
     16 H1         -0.7590   -0.0020    1.2260 h1        1 O48      0.094200
     17 H1A        -0.4630    1.8240    1.2330 h1        1 O48      0.094200
     18 HN1        -3.0880    0.6940   -2.9800 hn        1 O48      0.472800
     19 HN1A       -3.1820    1.3330   -1.4680 hn        1 O48      0.472800
     20 H2          1.6830    1.4470   -0.0800 hc        1 O48      0.063200
     21 H2A         1.4160   -0.3440   -0.0130 hc        1 O48      0.063200
     22 H3          1.4500   -0.2510    2.5090 hc        1 O48      0.054200
     23 H3A         1.7380    1.5340    2.4330 hc        1 O48      0.054200
     24 H4          3.8530    1.1370    1.1230 hc        1 O48      0.047200
     25 H4A         3.5670   -0.6460    1.2030 hc        1 O48      0.047200
     26 H5          3.6150   -0.5410    3.7190 hc        1 O48      0.044200
     27 H5A         3.9010    1.2410    3.6400 hc        1 O48      0.044200
     28 H6          6.0170    0.8430    2.3330 hc        1 O48      0.042700
     29 H6A         5.7310   -0.9390    2.4130 hc        1 O48      0.042700
     30 H7          6.0660    0.9470    4.8490 hc        1 O48      0.041700
     31 H7A         5.7800   -0.8340    4.9290 hc        1 O48      0.041700
     32 H8          8.1820    0.5500    3.5430 hc        1 O48      0.041200
     33 H8A         7.8980   -1.2310    3.6230 hc        1 O48      0.041200
     34 H9          8.2300    0.6540    6.0580 hc        1 O48      0.039700
     35 H9A         7.9450   -1.1270    6.1370 hc        1 O48      0.039700
     36 H10        10.0810   -1.5270    4.8640 hc        1 O48      0.035700
     37 H10A       10.3670    0.2590    4.7850 hc        1 O48      0.035700
     38 H10B       10.3680   -0.5880    6.3870 hc        1 O48      0.035700
     39 H13        -3.6570   -0.2220   -1.7300 hn        1 O48      0.472800
@<TRIPOS>BOND
     1    1    5 1   
     2    1    8 1   
     3    1   16 1   
     4    1   17 1   
     5    2    4 1   
     6    2   18 1   
     7    2   19 1   
     8    2   39 1   
     9    3    4 2   
    10    4    6 2   
    11    4    8 1   
    12    5    7 1   
    13    5   20 1   
    14    5   21 1   
    15    7    9 1   
    16    7   22 1   
    17    7   23 1   
    18    9   10 1   
    19    9   24 1   
    20    9   25 1   
    21   10   11 1   
    22   10   26 1   
    23   10   27 1   
    24   11   12 1   
    25   11   28 1   
    26   11   29 1   
    27   12   13 1   
    28   12   30 1   
    29   12   31 1   
    30   13   14 1   
    31   13   32 1   
    32   13   33 1   
    33   14   15 1   
    34   14   34 1   
    35   14   35 1   
    36   15   36 1   
    37   15   37 1   
    38   15   38 1   
@<TRIPOS>SUBSTRUCTURE
     1 O48         1 TEMP              0 ****  ****    0 ROOT
