@<TRIPOS>MOLECULE
O48
   39    38     1     0     0
SMALL
bcc


@<TRIPOS>ATOM
      1 C1         -0.2710    0.7590    0.7190 c3        1 O48      0.188400
      2 N1         -2.9250    0.4940   -2.0460 n4        1 O48     -0.801500
      3 O1         -1.2710   -1.2680   -1.2210 o         1 O48     -0.560800
      4 S1         -1.1450   -0.0110   -1.7250 s6        1 O48      1.637400
      5 C2          1.2280    0.6390    0.5490 c3        1 O48     -0.129400
      6 O2         -0.5290    0.3850   -2.8700 o         1 O48     -0.560800
      7 C3          1.8870    0.4890    1.9060 c3        1 O48     -0.076400
      8 O3         -0.8970    1.0450   -0.5460 os        1 O48     -0.590500
      9 C4          3.3880    0.3530    1.7610 c3        1 O48     -0.079400
     10 C5          4.0520    0.2080    3.1140 c3        1 O48     -0.079400
     11 C6          5.5530    0.0710    2.9730 c3        1 O48     -0.079400
     12 C7          6.2190   -0.0740    4.3250 c3        1 O48     -0.079400
     13 C8          7.7200   -0.2110    4.1840 c3        1 O48     -0.079400
     14 C9          8.3870   -0.3560    5.5360 c3        1 O48     -0.079400
     15 C10         9.8820   -0.4930    5.4010 c3        1 O48     -0.094100
     16 H1         -0.7300   -0.1750    1.1410 h1        1 O48      0.094200
     17 H1A        -0.5520    1.6560    1.3390 h1        1 O48      0.094200
     18 HN1        -3.0530    0.8000   -3.0130 hn        1 O48      0.472800
     19 HN1A       -3.2050    1.2710   -1.4450 hn        1 O48      0.472800
     20 H2          1.6280    1.5520    0.0320 hc        1 O48      0.063200
     21 H2A         1.4760   -0.2510   -0.0890 hc        1 O48      0.063200
     22 H3          1.4760   -0.4150    2.4300 hc        1 O48      0.054700
     23 H3A         1.6500    1.3830    2.5410 hc        1 O48      0.054700
     24 H4          3.8000    1.2540    1.2350 hc        1 O48      0.047200
     25 H4A         3.6280   -0.5410    1.1270 hc        1 O48      0.047200
     26 H5          3.6400   -0.6920    3.6420 hc        1 O48      0.044200
     27 H5A         3.8140    1.1030    3.7490 hc        1 O48      0.044200
     28 H6          5.9660    0.9710    2.4450 hc        1 O48      0.042700
     29 H6A         5.7920   -0.8230    2.3380 hc        1 O48      0.042700
     30 H7          5.9810    0.8210    4.9590 hc        1 O48      0.041700
     31 H7A         5.8070   -0.9740    4.8530 hc        1 O48      0.041700
     32 H8          8.1330    0.6890    3.6560 hc        1 O48      0.041200
     33 H8A         7.9590   -1.1050    3.5500 hc        1 O48      0.041200
     34 H9          8.1460    0.5390    6.1690 hc        1 O48      0.039700
     35 H9A         7.9720   -1.2550    6.0630 hc        1 O48      0.039700
     36 H10        10.1430   -1.3930    4.7930 hc        1 O48      0.035700
     37 H10A       10.3170    0.4060    4.9000 hc        1 O48      0.035700
     38 H10B       10.3530   -0.5980    6.4080 hc        1 O48      0.035700
     39 H13        -3.5720   -0.2760   -1.8750 hn        1 O48      0.472800
@<TRIPOS>BOND
     1    1    5 1   
     2    1    8 1   
     3    1   16 1   
     4    1   17 1   
     5    2    4 1   
     6    2   18 1   
     7    2   19 1   
     8    2   39 1   
     9    3    4 2   
    10    4    6 2   
    11    4    8 1   
    12    5    7 1   
    13    5   20 1   
    14    5   21 1   
    15    7    9 1   
    16    7   22 1   
    17    7   23 1   
    18    9   10 1   
    19    9   24 1   
    20    9   25 1   
    21   10   11 1   
    22   10   26 1   
    23   10   27 1   
    24   11   12 1   
    25   11   28 1   
    26   11   29 1   
    27   12   13 1   
    28   12   30 1   
    29   12   31 1   
    30   13   14 1   
    31   13   32 1   
    32   13   33 1   
    33   14   15 1   
    34   14   34 1   
    35   14   35 1   
    36   15   36 1   
    37   15   37 1   
    38   15   38 1   
@<TRIPOS>SUBSTRUCTURE
     1 O48         1 TEMP              0 ****  ****    0 ROOT
