@<TRIPOS>MOLECULE
O48
   38    36     1     0     0
SMALL
bcc


@<TRIPOS>ATOM
      1 C1         -3.6600    0.0750   -2.0240 c3        1 O48      0.271100
      2 N1         -6.0500    0.3430   -5.0680 n3        1 O48     -1.004500
      3 O1         -6.3350    0.9370   -2.5500 o         1 O48     -0.553400
      4 S1         -5.6320    0.0120   -3.5150 s4        1 O48      1.690700
      5 C2         -2.1490   -0.0080   -2.0310 c3        1 O48     -0.081400
      6 O2         -6.1680   -1.3300   -3.0770 o         1 O48     -0.553400
      7 C3         -1.6330    0.0680   -0.6110 c3        1 O48     -0.080400
      8 O3         -4.1360    0.0840   -3.3500 o         1 O48     -0.889500
      9 C4         -0.1290   -0.0960   -0.6110 c3        1 O48     -0.077400
     10 C5          0.3950    0.0590    0.7990 c3        1 O48     -0.079400
     11 C6          1.8950   -0.1370    0.8040 c3        1 O48     -0.078400
     12 C7          2.4290    0.0880    2.2010 c3        1 O48     -0.079400
     13 C8          3.9220   -0.1520    2.2160 c3        1 O48     -0.079400
     14 C9          4.4650    0.1290    3.6000 c3        1 O48     -0.080400
     15 C10         5.9300   -0.2480    3.6530 c3        1 O48     -0.092100
     16 H1         -4.0270   -0.6990   -1.5500 h1        1 O48      0.041700
     17 H1A        -3.9390    0.8980   -1.5720 h1        1 O48      0.041700
     18 HN1        -6.1810    1.2090   -5.3320 hn        1 O48      0.458800
     19 HN1A       -6.1520   -0.3380   -5.6690 hn        1 O48      0.458800
     20 H2         -1.7840    0.7360   -2.5510 hc        1 O48      0.054700
     21 H2A        -1.8710   -0.8550   -2.4340 hc        1 O48      0.054700
     22 H3         -1.8670    0.9360   -0.2250 hc        1 O48      0.041700
     23 H3A        -2.0390   -0.6450   -0.0780 hc        1 O48      0.041700
     24 H4          0.1010   -0.9850   -0.9490 hc        1 O48      0.040700
     25 H4A         0.2730    0.5860   -1.1860 hc        1 O48      0.040700
     26 H5          0.1820    0.9550    1.1290 hc        1 O48      0.040700
     27 H5A        -0.0230   -0.6100    1.3780 hc        1 O48      0.040700
     28 H6          2.1060   -1.0480    0.5180 hc        1 O48      0.039700
     29 H6A         2.3090    0.5010    0.1900 hc        1 O48      0.039700
     30 H7          2.2440    1.0090    2.4760 hc        1 O48      0.039700
     31 H7A         1.9930   -0.5310    2.8210 hc        1 O48      0.039700
     32 H8          4.3540    0.4420    1.5690 hc        1 O48      0.039700
     33 H8A         4.1050   -1.0830    1.9760 hc        1 O48      0.039700
     34 H9          3.9690   -0.3980    4.2580 hc        1 O48      0.038700
     35 H9A         4.3660    1.0810    3.8020 hc        1 O48      0.038700
     36 H10         6.0250   -1.2100    3.4930 hc        1 O48      0.032700
     37 H10A        6.2920   -0.0260    4.5360 hc        1 O48      0.032700
     38 H10B        6.4200    0.2480    2.9640 hc        1 O48      0.032700
@<TRIPOS>BOND
     1    1    5 1   
     2    1    8 1   
     3    1   16 1   
     4    1   17 1   
     5    2    4 1   
     6    2   18 1   
     7    2   19 1   
     8    3    4 1   
     9    4    6 1   
    10    5    7 1   
    11    5   20 1   
    12    5   21 1   
    13    7    9 1   
    14    7   22 1   
    15    7   23 1   
    16    9   10 1   
    17    9   24 1   
    18    9   25 1   
    19   10   11 1   
    20   10   26 1   
    21   10   27 1   
    22   11   12 1   
    23   11   28 1   
    24   11   29 1   
    25   12   13 1   
    26   12   30 1   
    27   12   31 1   
    28   13   14 1   
    29   13   32 1   
    30   13   33 1   
    31   14   15 1   
    32   14   34 1   
    33   14   35 1   
    34   15   36 1   
    35   15   37 1   
    36   15   38 1   
@<TRIPOS>SUBSTRUCTURE
     1 O48         1 TEMP              0 ****  ****    0 ROOT
