@<TRIPOS>MOLECULE
O48
   39    38     1     0     0
SMALL
bcc


@<TRIPOS>ATOM
      1 C1         -0.2550    0.8340    0.7150 c3        1 O48      0.188400
      2 N1         -2.9610    0.5030   -1.9940 n4        1 O48     -0.801500
      3 O1         -1.4020   -1.2810   -1.0410 o         1 O48     -0.560800
      4 S1         -1.2100   -0.0790   -1.6490 s6        1 O48      1.637400
      5 C2          1.2330    0.6250    0.5390 c3        1 O48     -0.128400
      6 O2         -0.5880    0.1850   -2.8280 o         1 O48     -0.560800
      7 C3          1.9030    0.5470    1.8970 c3        1 O48     -0.076400
      8 O3         -0.8840    1.0530   -0.5620 os        1 O48     -0.591500
      9 C4          3.3940    0.3280    1.7480 c3        1 O48     -0.079400
     10 C5          4.0690    0.2540    3.1010 c3        1 O48     -0.079400
     11 C6          5.5600    0.0360    2.9550 c3        1 O48     -0.079400
     12 C7          6.2360   -0.0400    4.3080 c3        1 O48     -0.079400
     13 C8          7.7270   -0.2560    4.1630 c3        1 O48     -0.079400
     14 C9          8.4050   -0.3320    5.5140 c3        1 O48     -0.079400
     15 C10         9.8900   -0.5460    5.3750 c3        1 O48     -0.094100
     16 H1         -0.4830    1.7900    1.2650 h1        1 O48      0.094200
     17 H1A        -0.7540   -0.0390    1.2130 h1        1 O48      0.094200
     18 HN1        -3.1870    1.3410   -1.4550 hn        1 O48      0.472800
     19 HN1A       -3.6500   -0.2110   -1.7530 hn        1 O48      0.472800
     20 H2          1.4270   -0.3230   -0.0290 hc        1 O48      0.063200
     21 H2A         1.6710    1.4740   -0.0510 hc        1 O48      0.063200
     22 H3          1.7180    1.4980    2.4640 hc        1 O48      0.054200
     23 H3A         1.4570   -0.2920    2.4930 hc        1 O48      0.054200
     24 H4          3.8410    1.1650    1.1500 hc        1 O48      0.047200
     25 H4A         3.5810   -0.6230    1.1820 hc        1 O48      0.047200
     26 H5          3.6230   -0.5840    3.7000 hc        1 O48      0.044200
     27 H5A         3.8820    1.2030    3.6690 hc        1 O48      0.044200
     28 H6          5.7480   -0.9130    2.3870 hc        1 O48      0.042700
     29 H6A         6.0060    0.8740    2.3580 hc        1 O48      0.042700
     30 H7          5.7910   -0.8780    4.9050 hc        1 O48      0.041700
     31 H7A         6.0470    0.9090    4.8770 hc        1 O48      0.041700
     32 H8          7.9170   -1.2040    3.5940 hc        1 O48      0.041200
     33 H8A         8.1730    0.5830    3.5660 hc        1 O48      0.041200
     34 H9          7.9580   -1.1710    6.1100 hc        1 O48      0.039700
     35 H9A         8.2130    0.6160    6.0830 hc        1 O48      0.039700
     36 H10        10.1030   -1.4990    4.8330 hc        1 O48      0.035700
     37 H10A       10.3700   -0.5990    6.3830 hc        1 O48      0.035700
     38 H10B       10.3590    0.2930    4.8060 hc        1 O48      0.035700
     39 H13        -3.0850    0.7360   -2.9810 hn        1 O48      0.472800
@<TRIPOS>BOND
     1    1    5 1   
     2    1    8 1   
     3    1   16 1   
     4    1   17 1   
     5    2    4 1   
     6    2   18 1   
     7    2   19 1   
     8    2   39 1   
     9    3    4 2   
    10    4    6 2   
    11    4    8 1   
    12    5    7 1   
    13    5   20 1   
    14    5   21 1   
    15    7    9 1   
    16    7   22 1   
    17    7   23 1   
    18    9   10 1   
    19    9   24 1   
    20    9   25 1   
    21   10   11 1   
    22   10   26 1   
    23   10   27 1   
    24   11   12 1   
    25   11   28 1   
    26   11   29 1   
    27   12   13 1   
    28   12   30 1   
    29   12   31 1   
    30   13   14 1   
    31   13   32 1   
    32   13   33 1   
    33   14   15 1   
    34   14   34 1   
    35   14   35 1   
    36   15   36 1   
    37   15   37 1   
    38   15   38 1   
@<TRIPOS>SUBSTRUCTURE
     1 O48         1 TEMP              0 ****  ****    0 ROOT
