@<TRIPOS>MOLECULE
O48
   38    37     1     0     0
SMALL
bcc


@<TRIPOS>ATOM
      1 C1          2.3240   -0.3860   -0.2680 c3        1 O48      0.185400
      2 N1          5.7220   -0.6290   -0.8780 n3        1 O48     -1.037700
      3 O1          4.6540   -0.6520    1.3330 o         1 O48     -0.654800
      4 S1          4.9340    0.1700    0.2440 s6        1 O48      1.718400
      5 C2          1.0670    0.4690   -0.2950 c3        1 O48     -0.087400
      6 O2          5.4430    1.4500    0.4140 o         1 O48     -0.654800
      7 C3         -0.1630   -0.4010   -0.1600 c3        1 O48     -0.079400
      8 O3          3.4320    0.4670   -0.4440 os        1 O48     -0.582500
      9 C4         -1.4250    0.4350   -0.1840 c3        1 O48     -0.078400
     10 C5         -2.6590   -0.4310   -0.0510 c3        1 O48     -0.079400
     11 C6         -3.9210    0.4050   -0.0740 c3        1 O48     -0.079400
     12 C7         -5.1560   -0.4600    0.0590 c3        1 O48     -0.079400
     13 C8         -6.4180    0.3750    0.0360 c3        1 O48     -0.079400
     14 C9         -7.6540   -0.4890    0.1690 c3        1 O48     -0.080400
     15 C10        -8.9120    0.3390    0.1470 c3        1 O48     -0.092100
     16 H1          2.4090   -0.9360    0.7090 h1        1 O48      0.038700
     17 H1A         2.3180   -1.1240   -1.1160 h1        1 O48      0.038700
     18 HN1         5.7640   -1.6170   -0.9300 hn        1 O48      0.455300
     19 HN1A        6.2100   -0.1940   -1.6230 hn        1 O48      0.455300
     20 H2          1.1090    1.2160    0.5400 hc        1 O48      0.057700
     21 H2A         1.0340    1.0470   -1.2540 hc        1 O48      0.057700
     22 H3         -0.1920   -1.1480   -0.9970 hc        1 O48      0.040200
     23 H3A        -0.1140   -0.9800    0.8000 hc        1 O48      0.040200
     24 H4         -1.3970    1.1820    0.6530 hc        1 O48      0.042700
     25 H4A        -1.4740    1.0150   -1.1430 hc        1 O48      0.042700
     26 H5         -2.6880   -1.1780   -0.8870 hc        1 O48      0.039700
     27 H5A        -2.6100   -1.0110    0.9090 hc        1 O48      0.039700
     28 H6         -3.8930    1.1520    0.7630 hc        1 O48      0.040200
     29 H6A        -3.9700    0.9850   -1.0330 hc        1 O48      0.040200
     30 H7         -5.1840   -1.2070   -0.7770 hc        1 O48      0.039200
     31 H7A        -5.1070   -1.0400    1.0180 hc        1 O48      0.039200
     32 H8         -6.3900    1.1220    0.8730 hc        1 O48      0.039700
     33 H8A        -6.4670    0.9560   -0.9230 hc        1 O48      0.039700
     34 H9         -7.6790   -1.2360   -0.6680 hc        1 O48      0.038200
     35 H9A        -7.6010   -1.0690    1.1280 hc        1 O48      0.038200
     36 H10        -9.8100   -0.3170    0.2460 hc        1 O48      0.032700
     37 H10A       -8.9170    1.0730    0.9890 hc        1 O48      0.032700
     38 H10B       -8.9940    0.9060   -0.8120 hc        1 O48      0.032700
@<TRIPOS>BOND
     1    1    5 1   
     2    1    8 1   
     3    1   16 1   
     4    1   17 1   
     5    2    4 1   
     6    2   18 1   
     7    2   19 1   
     8    3    4 2   
     9    4    6 2   
    10    4    8 1   
    11    5    7 1   
    12    5   20 1   
    13    5   21 1   
    14    7    9 1   
    15    7   22 1   
    16    7   23 1   
    17    9   10 1   
    18    9   24 1   
    19    9   25 1   
    20   10   11 1   
    21   10   26 1   
    22   10   27 1   
    23   11   12 1   
    24   11   28 1   
    25   11   29 1   
    26   12   13 1   
    27   12   30 1   
    28   12   31 1   
    29   13   14 1   
    30   13   32 1   
    31   13   33 1   
    32   14   15 1   
    33   14   34 1   
    34   14   35 1   
    35   15   36 1   
    36   15   37 1   
    37   15   38 1   
@<TRIPOS>SUBSTRUCTURE
     1 O48         1 TEMP              0 ****  ****    0 ROOT
