@<TRIPOS>MOLECULE
O4B
   42    42     1     0     0
SMALL
bcc


@<TRIPOS>ATOM
      1 CAA        -2.8420   -0.1540    2.4000 c3        1 O4B      0.115400
      2 OAM        -1.3930   -0.1540    2.4000 os        1 O4B     -0.426933
      3 CAC        -0.8070   -0.1540    3.7240 c3        1 O4B      0.115400
      4 CAD         0.6060    0.5180    3.6710 c3        1 O4B      0.115400
      5 OAO         1.3300    0.0280    2.5150 os        1 O4B     -0.426933
      6 CAG         2.6710    0.5810    2.5150 c3        1 O4B      0.115400
      7 CAH         3.4440    0.0720    1.2530 c3        1 O4B      0.115400
      8 OAQ         2.7400    0.4860    0.0560 os        1 O4B     -0.426933
      9 CAK         3.4880    0.0700   -1.1130 c3        1 O4B      0.115400
     10 CAL         2.7670    0.5850   -2.4040 c3        1 O4B      0.115400
     11 OAR         1.4210    0.0470   -2.4520 os        1 O4B     -0.426933
     12 CAJ         0.7530    0.5230   -3.6460 c3        1 O4B      0.115400
     13 CAI        -0.6780   -0.1090   -3.7310 c3        1 O4B      0.115400
     14 OAP        -1.2670   -0.1500   -2.4070 os        1 O4B     -0.426933
     15 CAF        -2.7110   -0.1820   -2.5220 c3        1 O4B      0.115400
     16 CAE        -3.3200   -0.8730   -1.2550 c3        1 O4B      0.115400
     17 OAN        -2.7870   -0.2480   -0.0610 os        1 O4B     -0.426933
     18 CAB        -3.3660   -0.8740    1.1120 c3        1 O4B      0.115400
     19 HAA1       -3.1670   -0.6250    3.1910 h1        1 O4B      0.049117
     20 HAA2       -3.1670    0.7660    2.4130 h1        1 O4B      0.049117
     21 HAB1       -4.3390   -0.8020    1.0730 h1        1 O4B      0.049117
     22 HAB2       -3.1100   -1.8160    1.1380 h1        1 O4B      0.049117
     23 HAC1       -0.7180   -1.0730    4.0410 h1        1 O4B      0.049117
     24 HAC2       -1.3820    0.3450    4.3350 h1        1 O4B      0.049117
     25 HAD1        0.5040    1.4870    3.6040 h1        1 O4B      0.049117
     26 HAD2        1.1020    0.2990    4.4830 h1        1 O4B      0.049117
     27 HAG1        3.1400    0.2950    3.3220 h1        1 O4B      0.049117
     28 HAG2        2.6210    1.5550    2.4960 h1        1 O4B      0.049117
     29 HAH1        4.3440    0.4500    1.2480 h1        1 O4B      0.049117
     30 HAH2        3.5000   -0.9030    1.2760 h1        1 O4B      0.049117
     31 HAK1        3.5410   -0.9040   -1.1360 h1        1 O4B      0.049117
     32 HAK2        4.3890    0.4440   -1.0730 h1        1 O4B      0.049117
     33 HAL1        2.7280    1.5600   -2.3880 h1        1 O4B      0.049117
     34 HAL2        3.2620    0.2920   -3.1930 h1        1 O4B      0.049117
     35 HAJ1        1.2700    0.2640   -4.4330 h1        1 O4B      0.049117
     36 HAJ2        0.6780    1.4950   -3.6120 h1        1 O4B      0.049117
     37 HAI1       -0.6130   -1.0160   -4.0870 h1        1 O4B      0.049117
     38 HAI2       -1.2380    0.4320   -4.3200 h1        1 O4B      0.049117
     39 HAF1       -3.0530    0.7300   -2.5910 h1        1 O4B      0.049117
     40 HAF2       -2.9640   -0.6850   -3.3200 h1        1 O4B      0.049117
     41 HAE1       -4.2920   -0.7770   -1.2670 h1        1 O4B      0.049117
     42 HAE2       -3.0880   -1.8210   -1.2570 h1        1 O4B      0.049117
@<TRIPOS>BOND
     1    1    2 1   
     2    1   18 1   
     3    1   19 1   
     4    1   20 1   
     5    2    3 1   
     6    3    4 1   
     7    3   23 1   
     8    3   24 1   
     9    4    5 1   
    10    4   25 1   
    11    4   26 1   
    12    5    6 1   
    13    6    7 1   
    14    6   27 1   
    15    6   28 1   
    16    7    8 1   
    17    7   29 1   
    18    7   30 1   
    19    8    9 1   
    20    9   10 1   
    21    9   31 1   
    22    9   32 1   
    23   10   11 1   
    24   10   33 1   
    25   10   34 1   
    26   11   12 1   
    27   12   13 1   
    28   12   35 1   
    29   12   36 1   
    30   13   14 1   
    31   13   37 1   
    32   13   38 1   
    33   14   15 1   
    34   15   16 1   
    35   15   39 1   
    36   15   40 1   
    37   16   17 1   
    38   16   41 1   
    39   16   42 1   
    40   17   18 1   
    41   18   21 1   
    42   18   22 1   
@<TRIPOS>SUBSTRUCTURE
     1 O4B         1 TEMP              0 ****  ****    0 ROOT
