@<TRIPOS>MOLECULE
O4B
   42    42     1     0     0
SMALL
bcc


@<TRIPOS>ATOM
      1 CAA        -2.5640    2.5210    0.4290 c3        1 O4B      0.128400
      2 OAM        -2.8410    1.3470   -0.3320 os        1 O4B     -0.427600
      3 CAC        -3.5630    0.3640    0.4060 c3        1 O4B      0.128400
      4 CAD        -3.4460   -0.9380   -0.3820 c3        1 O4B      0.128400
      5 OAO        -2.5590   -1.7770    0.3560 os        1 O4B     -0.427600
      6 CAG        -2.0770   -2.8810   -0.4050 c3        1 O4B      0.128400
      7 CAH        -0.8810   -3.4430    0.3600 c3        1 O4B      0.128400
      8 OAQ         0.2790   -3.0830   -0.3850 os        1 O4B     -0.427600
      9 CAK         1.4860   -3.2300    0.3590 c3        1 O4B      0.128400
     10 CAL         2.5610   -2.4630   -0.4060 c3        1 O4B      0.128400
     11 OAR         2.8380   -1.2900    0.3540 os        1 O4B     -0.427600
     12 CAJ         3.5600   -0.3070   -0.3840 c3        1 O4B      0.128400
     13 CAI         3.4430    0.9960    0.4030 c3        1 O4B      0.128400
     14 OAP         2.5570    1.8340   -0.3340 os        1 O4B     -0.427600
     15 CAF         2.0750    2.9390    0.4270 c3        1 O4B      0.128400
     16 CAE         0.8790    3.5010   -0.3370 c3        1 O4B      0.128400
     17 OAN        -0.2820    3.1400    0.4080 os        1 O4B     -0.427600
     18 CAB        -1.4880    3.2870   -0.3370 c3        1 O4B      0.128400
     19 HAA1       -3.5020    3.1310    0.5050 h1        1 O4B      0.043200
     20 HAA2       -2.2010    2.2540    1.4570 h1        1 O4B      0.043200
     21 HAB1       -1.3720    2.8720   -1.3730 h1        1 O4B      0.043200
     22 HAB2       -1.7470    4.3770   -0.3920 h1        1 O4B      0.043200
     23 HAC1       -3.1340    0.2420    1.4350 h1        1 O4B      0.043200
     24 HAC2       -4.6360    0.6840    0.4790 h1        1 O4B      0.043200
     25 HAD1       -4.4440   -1.4450   -0.4540 h1        1 O4B      0.043200
     26 HAD2       -3.0460   -0.7410   -1.4110 h1        1 O4B      0.043200
     27 HAG1       -2.8910   -3.6500   -0.4800 h1        1 O4B      0.043200
     28 HAG2       -1.7680   -2.5550   -1.4330 h1        1 O4B      0.043200
     29 HAH1       -0.8400   -3.0140    1.3960 h1        1 O4B      0.043200
     30 HAH2       -0.9410   -4.5620    0.4160 h1        1 O4B      0.043200
     31 HAK1        1.3690   -2.8150    1.3950 h1        1 O4B      0.043200
     32 HAK2        1.7450   -4.3200    0.4150 h1        1 O4B      0.043200
     33 HAL1        3.4990   -3.0740   -0.4830 h1        1 O4B      0.043200
     34 HAL2        2.1980   -2.1970   -1.4340 h1        1 O4B      0.043200
     35 HAJ1        4.6330   -0.6270   -0.4580 h1        1 O4B      0.043200
     36 HAJ2        3.1300   -0.1840   -1.4130 h1        1 O4B      0.043200
     37 HAI1        3.0430    0.7980    1.4330 h1        1 O4B      0.043200
     38 HAI2        4.4410    1.5020    0.4750 h1        1 O4B      0.043200
     39 HAF1        1.7660    2.6120    1.4550 h1        1 O4B      0.043200
     40 HAF2        2.8890    3.7070    0.5030 h1        1 O4B      0.043200
     41 HAE1        0.9390    4.6200   -0.3930 h1        1 O4B      0.043200
     42 HAE2        0.8380    3.0720   -1.3740 h1        1 O4B      0.043200
@<TRIPOS>BOND
     1    1    2 1   
     2    1   18 1   
     3    1   19 1   
     4    1   20 1   
     5    2    3 1   
     6    3    4 1   
     7    3   23 1   
     8    3   24 1   
     9    4    5 1   
    10    4   25 1   
    11    4   26 1   
    12    5    6 1   
    13    6    7 1   
    14    6   27 1   
    15    6   28 1   
    16    7    8 1   
    17    7   29 1   
    18    7   30 1   
    19    8    9 1   
    20    9   10 1   
    21    9   31 1   
    22    9   32 1   
    23   10   11 1   
    24   10   33 1   
    25   10   34 1   
    26   11   12 1   
    27   12   13 1   
    28   12   35 1   
    29   12   36 1   
    30   13   14 1   
    31   13   37 1   
    32   13   38 1   
    33   14   15 1   
    34   15   16 1   
    35   15   39 1   
    36   15   40 1   
    37   16   17 1   
    38   16   41 1   
    39   16   42 1   
    40   17   18 1   
    41   18   21 1   
    42   18   22 1   
@<TRIPOS>SUBSTRUCTURE
     1 O4B         1 TEMP              0 ****  ****    0 ROOT
