@<TRIPOS>MOLECULE
O4B
   42    42     1     0     0
SMALL
bcc


@<TRIPOS>ATOM
      1 CAA         0.0050    0.1060    0.0150 c3        1 O4B      0.128400
      2 OAM         1.4300    0.1060    0.0230 os        1 O4B     -0.427600
      3 CAC         1.9790    0.0520    1.3370 c3        1 O4B      0.128400
      4 CAD         3.4500    0.4410    1.2070 c3        1 O4B      0.128400
      5 OAO         3.5710    1.7480    1.7640 os        1 O4B     -0.427600
      6 CAG         4.7950    2.3900    1.4150 c3        1 O4B      0.128400
      7 CAH         4.6150    3.8700    1.7430 c3        1 O4B      0.128400
      8 OAQ         4.4980    4.5480    0.4950 os        1 O4B     -0.427600
      9 CAK         3.9870    5.8720    0.6270 c3        1 O4B      0.128400
     10 CAL         3.5630    6.3130   -0.7710 c3        1 O4B      0.128400
     11 OAR         2.1380    6.3140   -0.7800 os        1 O4B     -0.427600
     12 CAJ         1.5900    6.3670   -2.0950 c3        1 O4B      0.128400
     13 CAI         0.1190    5.9780   -1.9650 c3        1 O4B      0.128400
     14 OAP        -0.0030    4.6710   -2.5210 os        1 O4B     -0.427600
     15 CAF        -1.2260    4.0300   -2.1710 c3        1 O4B      0.128400
     16 CAE        -1.0470    2.5500   -2.4990 c3        1 O4B      0.128400
     17 OAN        -0.9300    1.8710   -1.2520 os        1 O4B     -0.427600
     18 CAB        -0.4190    0.5480   -1.3840 c3        1 O4B      0.128400
     19 HAA1       -0.3990    0.8110    0.7890 h1        1 O4B      0.043200
     20 HAA2       -0.3570   -0.9340    0.2250 h1        1 O4B      0.043200
     21 HAB1        0.4570    0.5250   -2.0860 h1        1 O4B      0.043200
     22 HAB2       -1.2340   -0.1160   -1.7750 h1        1 O4B      0.043200
     23 HAC1        1.8830   -0.9970    1.7250 h1        1 O4B      0.043200
     24 HAC2        1.4440    0.7600    2.0230 h1        1 O4B      0.043200
     25 HAD1        3.7650    0.4350    0.1300 h1        1 O4B      0.043200
     26 HAD2        4.0960   -0.2630    1.7950 h1        1 O4B      0.043200
     27 HAG1        5.0200    2.2530    0.3240 h1        1 O4B      0.043200
     28 HAG2        5.6220    1.9480    2.0300 h1        1 O4B      0.043200
     29 HAH1        3.6970    4.0250    2.3700 h1        1 O4B      0.043200
     30 HAH2        5.5150    4.2640    2.2850 h1        1 O4B      0.043200
     31 HAK1        3.1110    5.8940    1.3290 h1        1 O4B      0.043200
     32 HAK2        4.8020    6.5360    1.0190 h1        1 O4B      0.043200
     33 HAL1        3.9260    7.3540   -0.9820 h1        1 O4B      0.043200
     34 HAL2        3.9680    5.6080   -1.5450 h1        1 O4B      0.043200
     35 HAJ1        2.1250    5.6580   -2.7800 h1        1 O4B      0.043200
     36 HAJ2        1.6860    7.4150   -2.4830 h1        1 O4B      0.043200
     37 HAI1       -0.1960    5.9850   -0.8880 h1        1 O4B      0.043200
     38 HAI2       -0.5260    6.6820   -2.5530 h1        1 O4B      0.043200
     39 HAF1       -2.0540    4.4710   -2.7870 h1        1 O4B      0.043200
     40 HAF2       -1.4520    4.1660   -1.0810 h1        1 O4B      0.043200
     41 HAE1       -1.9470    2.1560   -3.0410 h1        1 O4B      0.043200
     42 HAE2       -0.1300    2.3940   -3.1270 h1        1 O4B      0.043200
@<TRIPOS>BOND
     1    1    2 1   
     2    1   18 1   
     3    1   19 1   
     4    1   20 1   
     5    2    3 1   
     6    3    4 1   
     7    3   23 1   
     8    3   24 1   
     9    4    5 1   
    10    4   25 1   
    11    4   26 1   
    12    5    6 1   
    13    6    7 1   
    14    6   27 1   
    15    6   28 1   
    16    7    8 1   
    17    7   29 1   
    18    7   30 1   
    19    8    9 1   
    20    9   10 1   
    21    9   31 1   
    22    9   32 1   
    23   10   11 1   
    24   10   33 1   
    25   10   34 1   
    26   11   12 1   
    27   12   13 1   
    28   12   35 1   
    29   12   36 1   
    30   13   14 1   
    31   13   37 1   
    32   13   38 1   
    33   14   15 1   
    34   15   16 1   
    35   15   39 1   
    36   15   40 1   
    37   16   17 1   
    38   16   41 1   
    39   16   42 1   
    40   17   18 1   
    41   18   21 1   
    42   18   22 1   
@<TRIPOS>SUBSTRUCTURE
     1 O4B         1 TEMP              0 ****  ****    0 ROOT
