@<TRIPOS>MOLECULE
O4B
   42    42     1     0     0
SMALL
bcc


@<TRIPOS>ATOM
      1 CAA         0.0040    0.1070    0.0140 c3        1 O4B      0.128400
      2 OAM         1.4290    0.1060    0.0210 os        1 O4B     -0.427600
      3 CAC         1.9790    0.0510    1.3350 c3        1 O4B      0.128400
      4 CAD         3.4500    0.4410    1.2040 c3        1 O4B      0.128400
      5 OAO         3.5720    1.7460    1.7620 os        1 O4B     -0.427600
      6 CAG         4.7960    2.3880    1.4130 c3        1 O4B      0.128400
      7 CAH         4.6170    3.8680    1.7420 c3        1 O4B      0.128400
      8 OAQ         4.5000    4.5470    0.4950 os        1 O4B     -0.427600
      9 CAK         3.9870    5.8710    0.6280 c3        1 O4B      0.128400
     10 CAL         3.5640    6.3130   -0.7710 c3        1 O4B      0.128400
     11 OAR         2.1390    6.3140   -0.7790 os        1 O4B     -0.427600
     12 CAJ         1.5910    6.3670   -2.0940 c3        1 O4B      0.128400
     13 CAI         0.1200    5.9790   -1.9640 c3        1 O4B      0.128400
     14 OAP        -0.0030    4.6730   -2.5200 os        1 O4B     -0.427600
     15 CAF        -1.2270    4.0320   -2.1690 c3        1 O4B      0.128400
     16 CAE        -1.0500    2.5520   -2.4980 c3        1 O4B      0.128400
     17 OAN        -0.9310    1.8730   -1.2500 os        1 O4B     -0.427600
     18 CAB        -0.4210    0.5490   -1.3840 c3        1 O4B      0.128400
     19 HAA1       -0.3990    0.8110    0.7890 h1        1 O4B      0.043200
     20 HAA2       -0.3580   -0.9340    0.2240 h1        1 O4B      0.043200
     21 HAB1        0.4540    0.5260   -2.0860 h1        1 O4B      0.043200
     22 HAB2       -1.2370   -0.1150   -1.7740 h1        1 O4B      0.043200
     23 HAC1        1.8840   -0.9970    1.7220 h1        1 O4B      0.043200
     24 HAC2        1.4450    0.7590    2.0220 h1        1 O4B      0.043200
     25 HAD1        3.7640    0.4360    0.1270 h1        1 O4B      0.043200
     26 HAD2        4.0960   -0.2640    1.7900 h1        1 O4B      0.043200
     27 HAG1        5.0210    2.2520    0.3220 h1        1 O4B      0.043200
     28 HAG2        5.6230    1.9460    2.0290 h1        1 O4B      0.043200
     29 HAH1        3.7000    4.0230    2.3700 h1        1 O4B      0.043200
     30 HAH2        5.5170    4.2620    2.2840 h1        1 O4B      0.043200
     31 HAK1        3.1110    5.8920    1.3290 h1        1 O4B      0.043200
     32 HAK2        4.8020    6.5350    1.0200 h1        1 O4B      0.043200
     33 HAL1        3.9270    7.3530   -0.9800 h1        1 O4B      0.043200
     34 HAL2        3.9680    5.6080   -1.5450 h1        1 O4B      0.043200
     35 HAJ1        2.1260    5.6570   -2.7790 h1        1 O4B      0.043200
     36 HAJ2        1.6880    7.4150   -2.4830 h1        1 O4B      0.043200
     37 HAI1       -0.1960    5.9870   -0.8870 h1        1 O4B      0.043200
     38 HAI2       -0.5250    6.6840   -2.5530 h1        1 O4B      0.043200
     39 HAF1       -2.0550    4.4740   -2.7830 h1        1 O4B      0.043200
     40 HAF2       -1.4510    4.1680   -1.0770 h1        1 O4B      0.043200
     41 HAE1       -1.9500    2.1590   -3.0380 h1        1 O4B      0.043200
     42 HAE2       -0.1330    2.3960   -3.1260 h1        1 O4B      0.043200
@<TRIPOS>BOND
     1    1    2 1   
     2    1   18 1   
     3    1   19 1   
     4    1   20 1   
     5    2    3 1   
     6    3    4 1   
     7    3   23 1   
     8    3   24 1   
     9    4    5 1   
    10    4   25 1   
    11    4   26 1   
    12    5    6 1   
    13    6    7 1   
    14    6   27 1   
    15    6   28 1   
    16    7    8 1   
    17    7   29 1   
    18    7   30 1   
    19    8    9 1   
    20    9   10 1   
    21    9   31 1   
    22    9   32 1   
    23   10   11 1   
    24   10   33 1   
    25   10   34 1   
    26   11   12 1   
    27   12   13 1   
    28   12   35 1   
    29   12   36 1   
    30   13   14 1   
    31   13   37 1   
    32   13   38 1   
    33   14   15 1   
    34   15   16 1   
    35   15   39 1   
    36   15   40 1   
    37   16   17 1   
    38   16   41 1   
    39   16   42 1   
    40   17   18 1   
    41   18   21 1   
    42   18   22 1   
@<TRIPOS>SUBSTRUCTURE
     1 O4B         1 TEMP              0 ****  ****    0 ROOT
