@<TRIPOS>MOLECULE
O4N
   72    75     1     0     0
SMALL
bcc


@<TRIPOS>ATOM
      1 C1         -2.1030   -4.9930    2.0100 ca        1 O4N     -0.144000
      2 C2         -3.3500   -4.7780    1.4240 ca        1 O4N     -0.128000
      3 C3         -1.2230   -3.9260    2.1750 ca        1 O4N     -0.107000
      4 C4         -3.7120   -3.5020    1.0020 ca        1 O4N     -0.137000
      5 C5         -2.8650    2.2950    1.0770 ca        1 O4N     -0.141000
      6 C6          2.5400   -0.0130   -1.0510 ca        1 O4N     -0.080500
      7 C7          3.5140   -1.6380    0.4570 ca        1 O4N     -0.080500
      8 C8         -2.2780    3.3880    1.7380 ca        1 O4N     -0.138000
      9 C9          3.5470   -0.2650   -1.9770 ca        1 O4N     -0.189000
     10 C10         4.5300   -1.9050   -0.4610 ca        1 O4N     -0.189000
     11 C11        -1.5890   -2.6410    1.7590 ca        1 O4N     -0.113600
     12 C12        -1.4080    2.5330   -0.8880 ca        1 O4N     -0.068600
     13 C13         2.5280   -0.6910    0.1760 ca        1 O4N     -0.144300
     14 C14        -2.8370   -2.4190    1.1650 ca        1 O4N     -0.033300
     15 C15        -2.4540    1.8790   -0.1910 ca        1 O4N     -0.064300
     16 C16        -1.2660    4.0300    1.0550 ca        1 O4N      0.034100
     17 C17        -0.8400    3.6100   -0.2300 ca        1 O4N      0.060100
     18 C18         4.5430   -1.2100   -1.6760 ca        1 O4N      0.110100
     19 C21        -0.6340   -1.5100    2.0090 c         1 O4N      0.674700
     20 C23         0.4070    5.4160    0.3860 c3        1 O4N      0.318200
     21 C24         2.2240    1.5950    4.4080 c3        1 O4N     -0.085100
     22 C25         6.4790   -2.3830   -2.4090 c3        1 O4N      0.118700
     23 C26        -3.2740   -1.0460    0.7370 c3        1 O4N      0.197100
     24 C27        -3.1950    0.7580   -0.8650 c3        1 O4N      0.196100
     25 C28        -2.8780   -1.5180   -1.6270 c3        1 O4N      0.196000
     26 C30         2.0720   -0.0680    2.5550 c3        1 O4N     -0.072400
     27 C31         1.4390   -0.3940    1.1850 c3        1 O4N      0.148000
     28 N32         0.5030   -1.5120    1.2250 n         1 O4N     -0.534900
     29 N33        -2.7110   -0.5800   -0.5220 n3        1 O4N     -0.717600
     30 O34         0.2000    1.6150   -2.4050 o         1 O4N     -0.823300
     31 O35        -0.8380   -0.7030    2.9380 o         1 O4N     -0.609100
     32 O36        -1.7940    2.1880   -3.2190 o         1 O4N     -0.823300
     33 O37        -0.5210    5.1390    1.4570 os        1 O4N     -0.355900
     34 O38         0.1860    4.4560   -0.6620 os        1 O4N     -0.312900
     35 O39         5.5060   -1.3800   -2.6590 os        1 O4N     -0.330900
     36 H1         -1.8130   -6.0000    2.3400 ha        1 O4N      0.124000
     37 H2         -4.0470   -5.6180    1.2920 ha        1 O4N      0.123000
     38 H3         -0.2370   -4.0870    2.6360 ha        1 O4N      0.138000
     39 H4         -4.6940   -3.3370    0.5330 ha        1 O4N      0.132000
     40 H5         -3.6810    1.7590    1.5850 ha        1 O4N      0.118000
     41 H8         -2.6040    3.7030    2.7340 ha        1 O4N      0.133000
     42 H6          1.7390    0.7170   -1.3040 ha        1 O4N      0.174000
     43 H9          3.5620    0.2610   -2.9430 ha        1 O4N      0.140000
     44 H7          3.4920   -2.1800    1.4140 ha        1 O4N      0.174000
     45 H10         5.2980   -2.6510   -0.2210 ha        1 O4N      0.140000
     46 H31         0.8730    0.5260    0.8320 h1        1 O4N      0.084700
     47 H261       -4.4070   -1.0320    0.7180 h1        1 O4N      0.047200
     48 H262       -2.9350   -0.3090    1.5260 h1        1 O4N      0.047200
     49 H271       -4.2940    0.8620   -0.6100 h1        1 O4N      0.062200
     50 H272       -3.0970    0.9060   -1.9860 h1        1 O4N      0.062200
     51 H191       -0.9940   -2.0840   -4.4990 ha        1 O4N      0.098000
     52 H192       -2.1090   -3.2540   -3.5960 ha        1 O4N      0.098000
     53 H20        -1.4610   -0.2860   -2.8470 ha        1 O4N      0.198000
     54 H281       -3.9320   -1.4780   -2.0420 h1        1 O4N      0.025700
     55 H282       -2.7220   -2.5640   -1.2320 h1        1 O4N      0.025700
     56 H32         0.4500   -2.0300    0.3740 hn        1 O4N      0.315500
     57 H231        0.1960    6.4400   -0.0120 h2        1 O4N      0.051200
     58 H232        1.4480    5.2940    0.7750 h2        1 O4N      0.051200
     59 H241        1.8450    2.5750    4.7850 hc        1 O4N      0.022700
     60 H242        1.9990    0.8110    5.1710 hc        1 O4N      0.022700
     61 H243        3.3340    1.6650    4.2950 hc        1 O4N      0.022700
     62 H291        0.4570    1.2020    3.2220 hc        1 O4N      0.062200
     63 H292        1.7840    2.0700    2.3480 hc        1 O4N      0.062200
     64 H251        7.0890   -2.1280   -1.5080 h1        1 O4N      0.034367
     65 H252        5.9980   -3.3830   -2.2810 h1        1 O4N      0.034367
     66 H253        7.1160   -2.3690   -3.3300 h1        1 O4N      0.034367
     67 H301        3.1870   -0.0220    2.4440 hc        1 O4N      0.040200
     68 H302        1.8450   -0.8750    3.3000 hc        1 O4N      0.040200
     69 C22        -0.9620    2.0890   -2.2730 c         1 O4N      0.925200
     70 C19        -1.6710   -2.2500   -3.6520 c2        1 O4N     -0.264000
     71 C29         1.5720    1.2570    3.0920 c3        1 O4N     -0.092400
     72 C20        -1.9300   -1.2900   -2.7660 c2        1 O4N     -0.140200
@<TRIPOS>BOND
     1    1    2 ar  
     2    1    3 ar  
     3    1   36 1   
     4    2    4 ar  
     5    2   37 1   
     6    3   11 ar  
     7    3   38 1   
     8    4   14 ar  
     9    4   39 1   
    10    5    8 ar  
    11    5   15 ar  
    12    5   40 1   
    13    6    9 ar  
    14    6   13 ar  
    15    6   42 1   
    16    7   10 ar  
    17    7   13 ar  
    18    7   44 1   
    19    8   16 ar  
    20    8   41 1   
    21    9   18 ar  
    22    9   43 1   
    23   10   18 ar  
    24   10   45 1   
    25   11   14 ar  
    26   11   19 1   
    27   12   15 ar  
    28   12   17 ar  
    29   12   69 1   
    30   13   27 1   
    31   14   23 1   
    32   15   24 1   
    33   16   17 ar  
    34   16   33 1   
    35   17   34 1   
    36   18   35 1   
    37   19   28 1   
    38   19   31 2   
    39   20   33 1   
    40   20   34 1   
    41   20   57 1   
    42   20   58 1   
    43   21   59 1   
    44   21   60 1   
    45   21   61 1   
    46   21   71 1   
    47   22   35 1   
    48   22   64 1   
    49   22   65 1   
    50   22   66 1   
    51   23   29 1   
    52   23   47 1   
    53   23   48 1   
    54   24   29 1   
    55   24   49 1   
    56   24   50 1   
    57   25   29 1   
    58   25   54 1   
    59   25   55 1   
    60   25   72 1   
    61   26   27 1   
    62   26   67 1   
    63   26   68 1   
    64   26   71 1   
    65   27   28 1   
    66   27   46 1   
    67   28   56 1   
    68   30   69 1   
    69   32   69 1   
    70   51   70 1   
    71   52   70 1   
    72   53   72 1   
    73   62   71 1   
    74   63   71 1   
    75   70   72 2   
@<TRIPOS>SUBSTRUCTURE
     1 O4N         1 TEMP              0 ****  ****    0 ROOT
