@<TRIPOS>MOLECULE
O4N
   72    64     1     0     0
SMALL
bcc


@<TRIPOS>ATOM
      1 C1          0.1280   -2.2700   -3.6700 c1        1 O4N     -0.091125
      2 C2          1.4870   -2.4130   -3.7440 c1        1 O4N     -0.091125
      3 C3         -0.4780   -2.0060   -2.4450 c1        1 O4N     -0.091125
      4 C4          2.2800   -2.2920   -2.5650 c1        1 O4N     -0.091125
      5 C5          5.4700    1.7900   -1.2910 c1        1 O4N     -0.083500
      6 C6         -3.5850   -1.4610    2.9920 c1        1 O4N     -0.042500
      7 C7         -4.6480   -2.2460    0.9960 c1        1 O4N     -0.091125
      8 C8          5.3830    3.1930   -1.4490 c1        1 O4N     -0.083500
      9 C9         -4.5480   -2.1170    3.7590 c1        1 O4N     -0.117500
     10 C10        -5.6130   -2.9030    1.7660 c1        1 O4N     -0.091125
     11 C11         0.3000   -1.8880   -1.2910 cg        1 O4N     -0.075200
     12 C12         3.9920    1.9240    0.6080 cg        1 O4N     -0.017200
     13 C13        -3.6350   -1.5250    1.6210 c1        1 O4N     -0.071100
     14 C14         1.6800   -2.0330   -1.3610 c1        1 O4N      0.011900
     15 C15         4.7840    1.1670   -0.2780 c1        1 O4N     -0.068100
     16 C16         4.5860    3.9580   -0.5570 c1        1 O4N      0.021600
     17 C17         3.9010    3.3320    0.4560 c1        1 O4N      0.051600
     18 C18        -5.5570   -2.8350    3.1420 c1        1 O4N      0.084600
     19 C19         4.0130    0.8980   -4.2170 c1        1 O4N     -0.091125
     20 C20         4.2490    0.0270   -3.2680 c1        1 O4N     -0.091125
     21 C21        -0.4940   -1.5530   -0.0040 c         1 O4N      0.612300
     22 C22         3.2730    1.9440    1.9340 c         1 O4N      0.868800
     23 C23         3.4410    5.5890    0.5870 c3        1 O4N      0.318200
     24 C24        -4.3750    2.8910    0.5930 c3        1 O4N     -0.086100
     25 C25        -7.7690   -3.4750    3.9430 c3        1 O4N      0.118700
     26 C26         2.7680   -1.5280   -0.3700 c3        1 O4N     -0.033600
     27 C27         4.8360   -0.4120   -0.1520 c3        1 O4N      0.009400
     28 C28         3.3600    0.0060   -1.9900 c2        1 O4N      0.263100
     29 C29        -3.7000    1.6410    1.2950 c3        1 O4N     -0.072400
     30 C30        -3.3210    0.5580    0.2080 c3        1 O4N     -0.107400
     31 C31        -2.6030   -0.6350    0.8940 c3        1 O4N      0.114800
     32 N32        -1.9420   -1.3890   -0.0670 n         1 O4N     -0.531900
     33 N33         3.8390   -1.0150   -1.0920 nh        1 O4N     -0.283100
     34 O34         2.0470    1.9070    1.9660 o         1 O4N     -0.829300
     35 O35         0.0880   -1.5080    1.0860 o         1 O4N     -0.652100
     36 O36         3.9360    1.9750    3.0150 o         1 O4N     -0.829300
     37 O37         4.2560    5.3780   -0.5100 os        1 O4N     -0.337400
     38 O38         3.1770    4.3290    1.1860 os        1 O4N     -0.298400
     39 O39        -6.3470   -3.3790    4.2370 os        1 O4N     -0.325400
     40 H1         -0.4230   -2.2900   -4.5050 ha        1 O4N      0.077500
     41 H2          1.9220   -2.6040   -4.6230 ha        1 O4N      0.077500
     42 H3         -1.4400   -1.9050   -2.3910 ha        1 O4N      0.077500
     43 H4          3.1790   -2.4820   -2.5970 ha        1 O4N      0.077500
     44 H5          5.9840    1.2190   -1.9930 ha        1 O4N      0.063500
     45 H8          5.8220    3.5890   -2.0970 ha        1 O4N      0.076500
     46 H6         -2.9010   -0.9750    3.4140 ha        1 O4N      0.070500
     47 H9         -4.5600   -1.9990    4.7180 ha        1 O4N      0.074500
     48 H7         -4.6830   -2.2930    0.0270 ha        1 O4N      0.077500
     49 H10        -6.3050   -3.3950    1.3440 ha        1 O4N      0.077500
     50 H31        -1.9300   -0.2800    1.5670 h1        1 O4N      0.068700
     51 H261        2.4010   -0.8430    0.1840 h1        1 O4N      0.093200
     52 H262        3.0880   -2.3060    0.2140 h1        1 O4N      0.093200
     53 H271        4.6140   -0.6860    0.8020 h1        1 O4N      0.066200
     54 H272        5.7270   -0.7240   -0.3800 h1        1 O4N      0.066200
     55 H191        3.2530    1.5560   -4.1200 DU        1 O4N      0.107000
     56 H192        4.5720    0.9120   -5.0190 ha        1 O4N      0.077500
     57 H20         4.9430   -0.5740   -3.3570 ha        1 O4N      0.077500
     58 H281        3.4030    0.9020   -1.5320 h4        1 O4N     -0.040700
     59 H282        2.4660   -0.1790   -2.2320 h4        1 O4N     -0.040700
     60 H32        -2.4430   -1.7900   -0.8010 hn        1 O4N      0.358500
     61 H231        3.9070    6.1900    1.2480 h2        1 O4N      0.054200
     62 H232        2.5990    6.0030    0.3000 h2        1 O4N      0.054200
     63 H241       -5.2480    2.6320    0.2280 hc        1 O4N      0.027700
     64 H242       -4.4960    3.6010    1.2450 hc        1 O4N      0.027700
     65 H243       -3.7590    3.2290   -0.1810 hc        1 O4N      0.027700
     66 H291       -4.2900    1.2730    1.8980 hc        1 O4N      0.026200
     67 H292       -2.9180    1.9190    1.7500 hc        1 O4N      0.026200
     68 H251       -7.9080   -4.0750    3.1140 h1        1 O4N      0.036033
     69 H252       -8.1290   -2.5690    3.7580 h1        1 O4N      0.036033
     70 H253       -8.2460   -3.8680    4.7200 h1        1 O4N      0.036033
     71 H301       -2.7390    0.9410   -0.4340 hc        1 O4N      0.085200
     72 H302       -4.1210    0.2500   -0.2270 hc        1 O4N      0.085200
@<TRIPOS>BOND
     1    1    3 3   
     2    1   40 1   
     3    2    4 3   
     4    2   41 1   
     5    3   42 1   
     6    4   43 1   
     7    5   15 3   
     8    5   44 1   
     9    6   13 3   
    10    6   46 1   
    11    7   10 3   
    12    7   48 1   
    13    8   16 3   
    14    8   45 1   
    15    9   18 3   
    16    9   47 1   
    17   10   49 1   
    18   11   14 3   
    19   11   21 1   
    20   12   17 3   
    21   12   22 1   
    22   13   31 1   
    23   14   26 1   
    24   15   27 1   
    25   16   37 1   
    26   17   38 1   
    27   18   39 1   
    28   19   20 3   
    29   19   56 1   
    30   20   57 1   
    31   21   32 1   
    32   21   35 2   
    33   22   34 1   
    34   22   36 1   
    35   23   37 1   
    36   23   38 1   
    37   23   61 1   
    38   23   62 1   
    39   24   29 1   
    40   24   63 1   
    41   24   64 1   
    42   24   65 1   
    43   25   39 1   
    44   25   68 1   
    45   25   69 1   
    46   25   70 1   
    47   26   33 1   
    48   26   51 1   
    49   26   52 1   
    50   27   33 1   
    51   27   53 1   
    52   27   54 1   
    53   28   33 2   
    54   28   58 1   
    55   28   59 1   
    56   29   30 1   
    57   29   66 1   
    58   29   67 1   
    59   30   31 1   
    60   30   71 1   
    61   30   72 1   
    62   31   32 1   
    63   31   50 1   
    64   32   60 1   
@<TRIPOS>SUBSTRUCTURE
     1 O4N         1 TEMP              0 ****  ****    0 ROOT
