@<TRIPOS>MOLECULE
O4N
   74    73     1     0     0
SMALL
bcc


@<TRIPOS>ATOM
      1 C1         -0.0780    0.0930   -0.1140 ca        1 O4N     -0.116000
      2 C2          1.2990   -0.1650   -0.2430 ca        1 O4N     -0.055000
      3 C3         -0.6300    0.4420    1.1100 ca        1 O4N     -0.111000
      4 C4          2.0980   -0.0550    0.8780 ca        1 O4N     -0.098000
      5 C5          2.8670   -2.8130    8.7780 ca        1 O4N     -0.156000
      6 C6         -4.9120    0.1680    5.0710 c1        1 O4N     -0.113000
      7 C7         -5.7400   -3.4640    3.6740 c2        1 O4N     -0.114000
      8 C8          2.3370   -2.7460   10.0730 ca        1 O4N     -0.023000
      9 C9         -6.1930   -0.0060    4.8850 c2        1 O4N     -0.017000
     10 C10        -6.2520   -2.3070    3.9520 c1        1 O4N     -0.205000
     11 C11         0.1860    0.5550    2.2570 ca        1 O4N     -0.162000
     12 C12         0.7790   -1.9600    7.8640 ca        1 O4N     -0.241000
     13 C13        -3.6560    0.3810    5.3390 c2        1 O4N     -0.189000
     14 C14         1.5470    0.3120    2.1340 ca        1 O4N     -0.025000
     15 C15         2.1020   -2.4260    7.6860 ca        1 O4N      0.006000
     16 C16         1.0380   -2.2920   10.2620 ca        1 O4N     -0.119000
     17 C17         0.2430   -1.8860    9.1640 ca        1 O4N      0.161000
     18 C18        -6.8040   -1.1560    4.2440 c2        1 O4N     -0.027000
     19 C21        -0.3630    0.9560    3.5590 c2        1 O4N      0.324000
     20 C23        -0.5870   -2.4810   12.0070 c1        1 O4N      0.015000
     21 C24        -3.0890    4.1980    2.5970 c2        1 O4N     -0.146000
     22 C26         2.6530    0.3370    3.1590 c3        1 O4N     -0.069000
     23 C27         2.6720   -2.4670    6.3110 c3        1 O4N     -0.119000
     24 C28         3.5790   -0.2790    1.0490 c3        1 O4N     -0.058000
     25 C30        -3.4510    1.8470    3.2980 c3        1 O4N     -0.150000
     26 C31        -2.7220    1.1590    4.4580 c3        1 O4N     -0.009000
     27 N32        -1.6190    0.2380    3.9800 n4        1 O4N     -0.118000
     28 N33         3.9030    0.0240    2.4530 n3        1 O4N     -0.271000
     29 O34        -1.0740   -0.9490    6.6540 o         1 O4N     -0.410000
     30 O35         0.1070    1.7560    4.3560 o         1 O4N     -0.190000
     31 O36         0.4800   -1.7680    5.4200 os        1 O4N     -0.253000
     32 O37         0.5740   -2.1570   11.6010 os        1 O4N     -0.010000
     33 O38        -1.0150   -1.4590    9.4730 oh        1 O4N     -0.247000
     34 O39        -8.1850   -0.8770    3.9400 os        1 O4N     -0.026000
     35 H1         -0.7250    0.0210   -1.0040 ha        1 O4N      0.161000
     36 H2          1.7210   -0.4440   -1.2220 ha        1 O4N      0.166000
     37 H3         -1.7070    0.6670    1.1720 ha        1 O4N      0.140000
     38 H4          3.8330   -1.3600    0.8650 h1        1 O4N      0.118000
     39 H5          3.8980   -3.1730    8.6330 ha        1 O4N      0.160000
     40 H8          2.9430   -3.0430   10.9460 ha        1 O4N      0.176000
     41 H6         -3.2090    0.0210    6.2870 ha        1 O4N      0.178000
     42 H9         -6.9120    0.7690    5.2280 ha        1 O4N      0.188000
     43 H7         -5.2660   -3.6840    2.7040 ha        1 O4N      0.146000
     44 H10        -5.7560   -4.3010    4.3920 ha        1 O4N      0.146000
     45 H31        -2.2110    1.9500    5.0940 hx        1 O4N      0.168000
     46 H261        2.6840    1.3270    3.6910 h1        1 O4N      0.116000
     47 H262        2.4790   -0.4720    3.9270 h1        1 O4N      0.116000
     48 H271       -1.5930   -2.6610    4.2090 ha        1 O4N      0.004167
     49 H272       -1.7770   -2.6250    4.8600 ha        1 O4N      0.004167
     50 H191        2.5540   -3.9550    3.9440 ha        1 O4N      0.144500
     51 H192        0.8510   -3.3790    3.4420 ha        1 O4N      0.144500
     52 H20         4.1680    0.3490    0.3270 h1        1 O4N      0.118000
     53 H281        4.5380    0.7990    2.5060 hn        1 O4N      0.168000
     54 H282        3.2670   -1.5240    6.1360 hc        1 O4N      0.134000
     55 H32        -1.9670   -0.3350    3.2050 hn        1 O4N      0.267000
     56 H231       -1.4540   -1.0990    8.6840 ho        1 O4N      0.259000
     57 H232       -1.3590   -2.9130   11.3410 ha        1 O4N      0.058000
     58 H241       -1.6650    2.6570    2.3020 ha        1 O4N      0.112000
     59 H242       -2.4860    4.9880    2.1260 ha        1 O4N      0.132000
     60 H243       -4.0690    4.5250    2.9720 ha        1 O4N      0.132000
     61 H291       -1.5380   -0.3250   11.6020 ha        1 O4N      0.004167
     62 H292       -2.1130   -0.6260   11.4030 ha        1 O4N      0.004167
     63 H251       -8.7910   -2.8140    3.4440 ha        1 O4N      0.057000
     64 H252       -8.6900   -1.6970    1.1890 ha        1 O4N      0.004167
     65 H253       -9.2550   -1.3240    1.2360 ha        1 O4N      0.004167
     66 H301       -3.7320    1.1000    2.5060 hc        1 O4N      0.119000
     67 H302       -4.4160    2.2540    3.7140 hc        1 O4N      0.119000
     68 C19         1.6720   -3.3410    4.1690 c2        1 O4N     -0.202000
     69 C20         1.6210   -2.5780    5.2670 c2        1 O4N     -0.001000
     70 H322       -1.3670   -0.4010    4.7650 hn        1 O4N      0.267000
     71 H331        3.3860   -3.3310    6.2130 hc        1 O4N      0.134000
     72 C29        -2.6550    2.9430    2.6960 c2        1 O4N     -0.230000
     73 C22         0.0180   -1.5470    6.7000 c2        1 O4N      0.398000
     74 C25        -9.0360   -1.7410    3.5670 c1        1 O4N      0.005000
@<TRIPOS>BOND
     1    1    2 1   
     2    1    3 1   
     3    1   35 1   
     4    2    4 1   
     5    2   36 1   
     6    3   11 1   
     7    3   37 1   
     8    4   14 1   
     9    4   24 1   
    10    5    8 1   
    11    5   15 1   
    12    5   39 1   
    13    6    9 1   
    14    6   13 1   
    15    7   10 1   
    16    7   43 1   
    17    7   44 1   
    18    8   16 1   
    19    8   40 1   
    20    9   18 1   
    21    9   42 1   
    22   10   18 1   
    23   11   14 1   
    24   11   19 1   
    25   12   15 1   
    26   12   17 1   
    27   12   73 1   
    28   13   26 1   
    29   13   41 1   
    30   14   22 1   
    31   15   23 1   
    32   16   17 1   
    33   16   32 1   
    34   17   33 1   
    35   18   34 1   
    36   19   27 1   
    37   19   30 1   
    38   20   32 1   
    39   20   57 1   
    40   21   59 1   
    41   21   60 1   
    42   21   72 1   
    43   22   28 1   
    44   22   46 1   
    45   22   47 1   
    46   23   54 1   
    47   23   69 1   
    48   23   71 1   
    49   24   28 1   
    50   24   38 1   
    51   24   52 1   
    52   25   26 1   
    53   25   66 1   
    54   25   67 1   
    55   25   72 1   
    56   26   27 1   
    57   26   45 1   
    58   27   55 1   
    59   27   70 1   
    60   28   53 1   
    61   29   73 1   
    62   31   69 1   
    63   31   73 1   
    64   33   56 1   
    65   34   74 1   
    66   48   49 1   
    67   50   68 1   
    68   51   68 1   
    69   58   72 1   
    70   61   62 1   
    71   63   74 1   
    72   64   65 1   
    73   68   69 1   
@<TRIPOS>SUBSTRUCTURE
     1 O4N         1 TEMP              0 ****  ****    0 ROOT
