@<TRIPOS>MOLECULE
O53
   37    39     1     0     0
SMALL
bcc


@<TRIPOS>ATOM
      1 CAS         0.5870    0.0350    1.4080 c3        1 O53     -0.089100
      2 CAR         1.5490    0.1920    0.2460 c3        1 O53     -0.028400
      3 CAT         2.8390    0.8440    0.7070 c3        1 O53     -0.089100
      4 CAA         1.8190   -1.1260   -0.4090 ca        1 O53     -0.054300
      5 CAD         1.4740   -1.3280   -1.7510 ca        1 O53     -0.129000
      6 CAE         1.7220   -2.5520   -2.3680 ca        1 O53     -0.104500
      7 CAC         2.4170   -2.1730    0.3040 ca        1 O53     -0.129000
      8 CAB         2.6660   -3.3970   -0.3120 ca        1 O53     -0.104500
      9 CAF         2.3190   -3.5910   -1.6520 ca        1 O53     -0.177300
     10 CAG         2.5980   -4.9450   -2.3040 c3        1 O53      0.436200
     11 NAI         3.4360   -4.8130   -3.4840 ns        1 O53     -0.574900
     12 CAH         2.9640   -5.0010   -4.7740 c         1 O53      0.725100
     13 OAK         3.7100   -4.7500   -5.7420 o         1 O53     -0.641500
     14 CAQ         1.5880   -5.5150   -4.9240 ca        1 O53     -0.319900
     15 CAL         1.0450   -5.7240   -6.1960 ca        1 O53     -0.001000
     16 CAM        -0.2660   -6.1750   -6.3080 ca        1 O53     -0.308300
     17 CAN        -0.9960   -6.3930   -5.1230 ca        1 O53      0.459200
     18 NAO        -0.5180   -6.2080   -3.8870 nb        1 O53     -0.726000
     19 CAP         0.7890   -5.7910   -3.7690 ca        1 O53      0.671200
     20 NAJ         1.3650   -5.7160   -2.4970 nu        1 O53     -0.836900
     21 HAS1        0.3700    1.0330    1.8600 hc        1 O53      0.038033
     22 HAS2        1.0250   -0.6230    2.1970 hc        1 O53      0.038033
     23 HAS3       -0.3730   -0.4170    1.0620 hc        1 O53      0.038033
     24 HAR         1.0670    0.8770   -0.5120 hc        1 O53      0.053700
     25 HAT1        3.3490    0.2120    1.4730 hc        1 O53      0.038033
     26 HAT2        2.6200    1.8420    1.1590 hc        1 O53      0.038033
     27 HAT3        3.5340    0.9870   -0.1550 hc        1 O53      0.038033
     28 HAD         1.0040   -0.5150   -2.3250 ha        1 O53      0.138000
     29 HAC         2.6930   -2.0260    1.3600 ha        1 O53      0.138000
     30 HAE         1.4470   -2.6960   -3.4250 ha        1 O53      0.137500
     31 HAB         3.1380   -4.2100    0.2610 ha        1 O53      0.137500
     32 HAG         3.2010   -5.5660   -1.5560 h2        1 O53      0.071700
     33 HAI         4.2990   -4.3400   -3.3540 hn        1 O53      0.334500
     34 HAJ         0.7350   -5.6420   -1.7250 hn        1 O53      0.440800
     35 HAL         1.6670   -5.5230   -7.0840 ha        1 O53      0.165000
     36 HAM        -0.7260   -6.3550   -7.2870 ha        1 O53      0.150000
     37 HAN        -2.0470   -6.7360   -5.1670 h4        1 O53      0.024100
@<TRIPOS>BOND
     1    1    2 1   
     2    1   21 1   
     3    1   22 1   
     4    1   23 1   
     5    2    3 1   
     6    2    4 1   
     7    2   24 1   
     8    3   25 1   
     9    3   26 1   
    10    3   27 1   
    11    4    5 ar  
    12    4    7 ar  
    13    5    6 ar  
    14    5   28 1   
    15    6    9 ar  
    16    6   30 1   
    17    7    8 ar  
    18    7   29 1   
    19    8    9 ar  
    20    8   31 1   
    21    9   10 1   
    22   10   11 1   
    23   10   20 1   
    24   10   32 1   
    25   11   12 1   
    26   11   33 1   
    27   12   13 2   
    28   12   14 1   
    29   14   15 ar  
    30   14   19 ar  
    31   15   16 ar  
    32   15   35 1   
    33   16   17 ar  
    34   16   36 1   
    35   17   18 ar  
    36   17   37 1   
    37   18   19 ar  
    38   19   20 1   
    39   20   34 1   
@<TRIPOS>SUBSTRUCTURE
     1 O53         1 TEMP              0 ****  ****    0 ROOT
