@<TRIPOS>MOLECULE
O53
   37    39     1     0     0
SMALL
bcc


@<TRIPOS>ATOM
      1 CAS         0.5840   -0.0400    1.4740 c3        1 O53     -0.089100
      2 CAR         1.5320    0.1490    0.3040 c3        1 O53     -0.028400
      3 CAT         2.8190    0.8090    0.7640 c3        1 O53     -0.089100
      4 CAA         1.8120   -1.1540   -0.3760 ca        1 O53     -0.054300
      5 CAD         1.4550   -1.3370   -1.7180 ca        1 O53     -0.129000
      6 CAE         1.7120   -2.5470   -2.3590 ca        1 O53     -0.104500
      7 CAC         2.4300   -2.2060    0.3120 ca        1 O53     -0.129000
      8 CAB         2.6870   -3.4160   -0.3280 ca        1 O53     -0.104500
      9 CAF         2.3280   -3.5910   -1.6670 ca        1 O53     -0.177300
     10 CAG         2.6170   -4.9300   -2.3460 c3        1 O53      0.436200
     11 NAI         3.4420   -4.7670   -3.5310 n         1 O53     -0.574900
     12 CAH         2.9610   -4.9370   -4.8190 c         1 O53      0.725100
     13 OAK         3.6960   -4.6600   -5.7890 o         1 O53     -0.641500
     14 CAQ         1.5900   -5.4630   -4.9670 ca        1 O53     -0.319900
     15 CAL         1.0380   -5.6550   -6.2370 ca        1 O53     -0.001000
     16 CAM        -0.2690   -6.1190   -6.3460 ca        1 O53     -0.308300
     17 CAN        -0.9860   -6.3670   -5.1590 ca        1 O53      0.459200
     18 NAO        -0.4990   -6.2000   -3.9230 nb        1 O53     -0.726000
     19 CAP         0.8050   -5.7700   -3.8100 ca        1 O53      0.671200
     20 NAJ         1.3910   -5.7120   -2.5420 nh        1 O53     -0.836900
     21 HAS1       -0.3740   -0.4970    1.1290 hc        1 O53      0.038033
     22 HAS2        1.0380   -0.7060    2.2460 hc        1 O53      0.038033
     23 HAS3        0.3600    0.9480    1.9450 hc        1 O53      0.038033
     24 HAR         1.0340    0.8410   -0.4370 hc        1 O53      0.053700
     25 HAT1        3.3440    0.1700    1.5140 hc        1 O53      0.038033
     26 HAT2        3.5030    0.9750   -0.1020 hc        1 O53      0.038033
     27 HAT3        2.5930    1.7960    1.2350 hc        1 O53      0.038033
     28 HAD         0.9690   -0.5200   -2.2730 ha        1 O53      0.138000
     29 HAC         2.7150   -2.0740    1.3670 ha        1 O53      0.138000
     30 HAE         1.4270   -2.6760   -3.4150 ha        1 O53      0.137500
     31 HAB         3.1750   -4.2320    0.2270 ha        1 O53      0.137500
     32 HAG         3.2340   -5.5560   -1.6150 h2        1 O53      0.071700
     33 HAI         4.3020   -4.2860   -3.3990 hn        1 O53      0.334500
     34 HAJ         0.7670   -5.6590   -1.7630 hn        1 O53      0.440800
     35 HAL         1.6490   -5.4310   -7.1270 ha        1 O53      0.165000
     36 HAM        -0.7360   -6.2870   -7.3240 ha        1 O53      0.150000
     37 HAN        -2.0340   -6.7210   -5.1990 h4        1 O53      0.024100
@<TRIPOS>BOND
     1    1    2 1   
     2    1   21 1   
     3    1   22 1   
     4    1   23 1   
     5    2    3 1   
     6    2    4 1   
     7    2   24 1   
     8    3   25 1   
     9    3   26 1   
    10    3   27 1   
    11    4    5 ar  
    12    4    7 ar  
    13    5    6 ar  
    14    5   28 1   
    15    6    9 ar  
    16    6   30 1   
    17    7    8 ar  
    18    7   29 1   
    19    8    9 ar  
    20    8   31 1   
    21    9   10 1   
    22   10   11 1   
    23   10   20 1   
    24   10   32 1   
    25   11   12 1   
    26   11   33 1   
    27   12   13 2   
    28   12   14 1   
    29   14   15 ar  
    30   14   19 ar  
    31   15   16 ar  
    32   15   35 1   
    33   16   17 ar  
    34   16   36 1   
    35   17   18 ar  
    36   17   37 1   
    37   18   19 ar  
    38   19   20 1   
    39   20   34 1   
@<TRIPOS>SUBSTRUCTURE
     1 O53         1 TEMP              0 ****  ****    0 ROOT
