@<TRIPOS>MOLECULE
O58
   64    66     1     0     0
SMALL
bcc


@<TRIPOS>ATOM
      1 C1         -1.6070   -4.5350    1.0370 ca        1 O58     -0.115000
      2 C2         -0.9290   -3.9810   -0.0410 ca        1 O58     -0.105000
      3 C3         -0.7450   -2.5950   -0.1070 ca        1 O58      0.033400
      4 C4         -1.2460   -1.7730    0.9030 ca        1 O58     -0.117000
      5 C5         -1.9370   -2.3090    1.9970 ca        1 O58     -0.055300
      6 C6         -2.1160   -3.7090    2.0640 ca        1 O58     -0.009200
      7 N7         -2.8080   -4.3380    3.1400 na        1 O58      0.014500
      8 C8         -3.5970   -5.5090    3.0530 cc        1 O58      0.414400
      9 N9         -4.0080   -5.7740    4.3230 nd        1 O58     -0.359000
     10 N10        -3.4860   -4.8210    5.0940 nd        1 O58     -0.128000
     11 N11        -2.7800   -3.9740    4.4410 nc        1 O58     -0.215800
     12 CL12        0.0860   -1.9150   -1.4140 cl        1 O58     -0.043400
     13 C13        -2.4630   -1.3530    3.0170 c3        1 O58     -0.034100
     14 C14        -1.4720   -1.1280    4.1470 c3        1 O58     -0.141400
     15 C15        -1.9700   -1.4620    5.5340 c         1 O58      0.691100
     16 N16        -3.2470   -1.0700    5.9140 n         1 O58     -0.566900
     17 O17        -1.2560   -2.0780    6.3570 o         1 O58     -0.641100
     18 C18        -3.6720   -1.1310    7.2820 c3        1 O58      0.060700
     19 C19        -4.2450   -2.5280    7.6210 c         1 O58      0.522100
     20 O20        -5.4280   -2.8120    7.7370 o         1 O58     -0.424100
     21 N21        -3.2500   -3.6240    7.8310 n4        1 O58     -0.678800
     22 C22        -2.7470   -3.6640    9.2700 c3        1 O58      0.240900
     23 C23        -3.7720   -4.2960   10.1560 c2        1 O58     -0.253700
     24 C24        -3.5180   -5.3880   10.8920 ce        1 O58     -0.030000
     25 C25        -2.2260   -6.0610   10.8760 ce        1 O58     -0.130000
     26 C26        -1.1920   -5.4410   10.0590 ce        1 O58     -0.030000
     27 C27        -1.4170   -4.3510    9.3120 c2        1 O58     -0.253700
     28 C28        -4.7640   -0.0990    7.6360 c3        1 O58     -0.042100
     29 C29        -4.3300    1.2820    7.3010 ca        1 O58     -0.118300
     30 C30        -3.4780    1.9830    8.1630 ca        1 O58     -0.125000
     31 C31        -3.0900    3.2860    7.8560 ca        1 O58     -0.119500
     32 C32        -3.5500    3.8970    6.6890 ca        1 O58     -0.108000
     33 C33        -4.4020    3.2030    5.8290 ca        1 O58     -0.119500
     34 C34        -4.7910    1.8990    6.1330 ca        1 O58     -0.125000
     35 C35        -1.9990   -7.1820   11.5840 c2        1 O58     -0.093000
     36 C36        -3.1990   -8.6500    0.0520 c1        1 O58      0.898000
     37 O37        -3.0700   -7.6000    0.6070 o         1 O58     -0.448500
     38 O38        -3.3250   -9.6910   -0.4990 o         1 O58     -0.448500
     39 H1         -1.7460   -5.6310    1.0740 ha        1 O58      0.165000
     40 H2         -0.5380   -4.6350   -0.8370 ha        1 O58      0.169000
     41 H4         -1.1020   -0.6810    0.8400 ha        1 O58      0.162000
     42 H8         -3.8090   -6.0640    2.1290 h5        1 O58      0.117100
     43 H13        -2.6550   -0.3650    2.5110 hc        1 O58      0.065200
     44 H13A       -3.4630   -1.7010    3.3840 hc        1 O58      0.065200
     45 H14        -1.1540   -0.0490    4.1640 hc        1 O58      0.096200
     46 H14A       -0.5450   -1.7450    3.9840 hc        1 O58      0.096200
     47 HN16       -3.7850   -0.4940    5.3050 hn        1 O58      0.339500
     48 H18        -2.7770   -0.9610    7.9610 h1        1 O58      0.098700
     49 HN21       -3.6840   -4.5310    7.6130 hn        1 O58      0.482800
     50 H23        -4.7520   -3.7930   10.1940 ha        1 O58      0.158500
     51 H24        -4.2920   -5.8100   11.5580 ha        1 O58      0.155500
     52 H26        -0.1880   -5.9020   10.0910 ha        1 O58      0.155500
     53 H27        -0.6150   -3.8790    8.7200 ha        1 O58      0.158500
     54 H28        -4.9690   -0.1860    8.7370 hc        1 O58      0.081200
     55 H28A       -5.7150   -0.3570    7.0960 hc        1 O58      0.081200
     56 H30        -3.1230    1.5100    9.0900 ha        1 O58      0.131000
     57 H31        -2.4250    3.8360    8.5390 ha        1 O58      0.146500
     58 H32        -3.2480    4.9290    6.4510 ha        1 O58      0.149000
     59 H33        -4.7770    3.6880    4.9150 ha        1 O58      0.146500
     60 H34        -5.4810    1.3650    5.4620 ha        1 O58      0.131000
     61 H35        -1.0240   -7.6910   11.5780 ha        1 O58      0.138000
     62 H35A       -2.7760   -7.6500   12.2060 ha        1 O58      0.138000
     63 H162       -2.6010   -2.5810    9.5760 hx        1 O58      0.096700
     64 H212       -2.4380   -3.4810    7.2060 hn        1 O58      0.482800
@<TRIPOS>BOND
     1    1    2 ar  
     2    1    6 ar  
     3    1   39 1   
     4    2    3 ar  
     5    2   40 1   
     6    3    4 ar  
     7    3   12 1   
     8    4    5 ar  
     9    4   41 1   
    10    5    6 ar  
    11    5   13 1   
    12    6    7 1   
    13    7    8 1   
    14    7   11 1   
    15    8    9 2   
    16    8   42 1   
    17    9   10 1   
    18   10   11 2   
    19   13   14 1   
    20   13   43 1   
    21   13   44 1   
    22   14   15 1   
    23   14   45 1   
    24   14   46 1   
    25   15   16 1   
    26   15   17 2   
    27   16   18 1   
    28   16   47 1   
    29   18   19 1   
    30   18   28 1   
    31   18   48 1   
    32   19   20 2   
    33   19   21 1   
    34   21   22 1   
    35   21   49 1   
    36   21   64 1   
    37   22   23 1   
    38   22   27 1   
    39   22   63 1   
    40   23   24 2   
    41   23   50 1   
    42   24   25 1   
    43   24   51 1   
    44   25   26 1   
    45   25   35 2   
    46   26   27 2   
    47   26   52 1   
    48   27   53 1   
    49   28   29 1   
    50   28   54 1   
    51   28   55 1   
    52   29   30 ar  
    53   29   34 ar  
    54   30   31 ar  
    55   30   56 1   
    56   31   32 ar  
    57   31   57 1   
    58   32   33 ar  
    59   32   58 1   
    60   33   34 ar  
    61   33   59 1   
    62   34   60 1   
    63   35   61 1   
    64   35   62 1   
    65   36   37 2   
    66   36   38 2   
@<TRIPOS>SUBSTRUCTURE
     1 O58         1 TEMP              0 ****  ****    0 ROOT
