@<TRIPOS>MOLECULE
O58
   63    66     1     0     0
SMALL
bcc


@<TRIPOS>ATOM
      1 C1          0.2650   -1.9030    0.7780 ca        1 O58     -0.114000
      2 C2          1.3490   -2.7720    0.8000 ca        1 O58     -0.103000
      3 C3          2.0420   -2.9890    1.9960 ca        1 O58      0.036400
      4 C4          1.6480   -2.3320    3.1640 ca        1 O58     -0.109000
      5 C5          0.5620   -1.4480    3.1630 ca        1 O58     -0.059300
      6 C6         -0.1350   -1.2330    1.9530 ca        1 O58     -0.014200
      7 N7         -1.2500   -0.3470    1.8740 na        1 O58      0.014500
      8 C8         -1.5420    0.5510    0.8260 cc        1 O58      0.412400
      9 N9         -2.7380    1.1200    1.1460 nd        1 O58     -0.351000
     10 N10        -3.1170    0.5830    2.3030 nd        1 O58     -0.055000
     11 N11        -2.2770   -0.2770    2.7500 nc        1 O58     -0.280800
     12 CL12        3.3580   -4.0490    2.0300 cl        1 O58     -0.039400
     13 C13         0.2210   -0.7570    4.4400 c3        1 O58     -0.034100
     14 C14        -0.9070   -1.4580    5.1880 c3        1 O58     -0.143400
     15 C15        -2.0010   -0.4880    5.5370 c         1 O58      0.575100
     16 N16        -3.4200   -0.9770    5.3740 n4        1 O58     -0.661800
     17 O17        -1.8830    0.6600    5.9410 o         1 O58     -0.442100
     18 C18        -3.9660   -1.5640    6.6440 c3        1 O58      0.031500
     19 C19        -3.4240   -3.0180    6.8270 c         1 O58      0.628100
     20 O20        -2.9380   -3.5800    5.8190 o         1 O58     -0.630100
     21 N21        -3.4690   -3.5080    8.0920 n         1 O58     -0.386100
     22 C22        -3.1950   -4.8540    8.4640 ca        1 O58     -0.059400
     23 C23        -3.7890   -5.3480    9.6510 ca        1 O58     -0.138000
     24 C24        -3.5350   -6.6440   10.0630 ca        1 O58     -0.125000
     25 C25        -2.6920   -7.4900    9.3150 ca        1 O58      0.020700
     26 C26        -2.1120   -6.9930    8.1430 ca        1 O58     -0.125000
     27 C27        -2.3530   -5.6900    7.7130 ca        1 O58     -0.138000
     28 C28        -5.5010   -1.6140    6.6240 c3        1 O58     -0.052100
     29 C29        -6.0920   -0.2710    6.3830 ca        1 O58     -0.146300
     30 C30        -6.5070    0.0960    5.0970 ca        1 O58     -0.127500
     31 C31        -7.0750    1.3490    4.8750 ca        1 O58     -0.114500
     32 C32        -7.2370    2.2410    5.9350 ca        1 O58     -0.106000
     33 C33        -6.8340    1.8770    7.2200 ca        1 O58     -0.114500
     34 C34        -6.2640    0.6250    7.4450 ca        1 O58     -0.127500
     35 C35        -2.4670   -8.8770    9.7650 c3        1 O58     -0.202100
     36 C36        -3.8170   -9.6270    9.9890 c         1 O58      0.923600
     37 O37        -4.5680   -9.1990   10.9090 o         1 O58     -0.820300
     38 O38        -4.0510  -10.6140    9.2480 o         1 O58     -0.820300
     39 H1         -0.2810   -1.7510   -0.1680 ha        1 O58      0.155000
     40 H2          1.6530   -3.2910   -0.1240 ha        1 O58      0.170000
     41 H4          2.1990   -2.5090    4.1040 ha        1 O58      0.166000
     42 H8         -0.9040    0.7360   -0.0450 h5        1 O58      0.103100
     43 H13        -0.0310    0.3200    4.2470 hc        1 O58      0.080200
     44 H13A        1.1310   -0.7440    5.1040 hc        1 O58      0.080200
     45 H14        -1.2980   -2.3340    4.5980 hc        1 O58      0.120200
     46 H14A       -0.5280   -1.8780    6.1630 hc        1 O58      0.120200
     47 HN16       -3.4400   -1.7160    4.6510 hn        1 O58      0.479800
     48 H18        -3.6230   -0.8920    7.4860 hx        1 O58      0.112700
     49 HN21       -3.9590   -2.9780    8.7810 hn        1 O58      0.318500
     50 H23        -4.4630   -4.7160   10.2490 ha        1 O58      0.126000
     51 H24        -4.0350   -7.0740   10.9560 ha        1 O58      0.172500
     52 H26        -1.4680   -7.6470    7.5360 ha        1 O58      0.172500
     53 H27        -1.8950   -5.3370    6.7770 ha        1 O58      0.126000
     54 H28        -5.8480   -2.3470    5.8450 hc        1 O58      0.095200
     55 H28A       -5.8370   -2.0090    7.6220 hc        1 O58      0.095200
     56 H30        -6.4130   -0.6150    4.2610 ha        1 O58      0.136500
     57 H31        -7.4020    1.6300    3.8610 ha        1 O58      0.149000
     58 H32        -7.6900    3.2290    5.7590 ha        1 O58      0.148000
     59 H33        -6.9710    2.5750    8.0600 ha        1 O58      0.149000
     60 H34        -5.9600    0.3360    8.4630 ha        1 O58      0.136500
     61 H35        -1.9340   -8.8720   10.7500 hc        1 O58      0.051200
     62 H35A       -1.8540   -9.4480    9.0250 hc        1 O58      0.051200
     63 H162       -4.0270   -0.1950    5.0810 hn        1 O58      0.479800
@<TRIPOS>BOND
     1    1    2 ar  
     2    1    6 ar  
     3    1   39 1   
     4    2    3 ar  
     5    2   40 1   
     6    3    4 ar  
     7    3   12 1   
     8    4    5 ar  
     9    4   41 1   
    10    5    6 ar  
    11    5   13 1   
    12    6    7 1   
    13    7    8 1   
    14    7   11 1   
    15    8    9 2   
    16    8   42 1   
    17    9   10 1   
    18   10   11 2   
    19   13   14 1   
    20   13   43 1   
    21   13   44 1   
    22   14   15 1   
    23   14   45 1   
    24   14   46 1   
    25   15   16 1   
    26   15   17 2   
    27   16   18 1   
    28   16   47 1   
    29   16   63 1   
    30   18   19 1   
    31   18   28 1   
    32   18   48 1   
    33   19   20 2   
    34   19   21 1   
    35   21   22 1   
    36   21   49 1   
    37   22   23 ar  
    38   22   27 ar  
    39   23   24 ar  
    40   23   50 1   
    41   24   25 ar  
    42   24   51 1   
    43   25   26 ar  
    44   25   35 1   
    45   26   27 ar  
    46   26   52 1   
    47   27   53 1   
    48   28   29 1   
    49   28   54 1   
    50   28   55 1   
    51   29   30 ar  
    52   29   34 ar  
    53   30   31 ar  
    54   30   56 1   
    55   31   32 ar  
    56   31   57 1   
    57   32   33 ar  
    58   32   58 1   
    59   33   34 ar  
    60   33   59 1   
    61   34   60 1   
    62   35   36 1   
    63   35   61 1   
    64   35   62 1   
    65   36   37 1   
    66   36   38 1   
@<TRIPOS>SUBSTRUCTURE
     1 O58         1 TEMP              0 ****  ****    0 ROOT
