@<TRIPOS>MOLECULE
O58
   62    65     1     0     0
SMALL
bcc


@<TRIPOS>ATOM
      1 C1          6.4990    2.2590    0.3980 ca        1 O58     -0.101000
      2 C2          6.1100    3.5790    0.5850 ca        1 O58     -0.123000
      3 C3          4.7920    3.9570    0.3110 ca        1 O58      0.027400
      4 C4          3.8740    3.0160   -0.1530 ca        1 O58     -0.120000
      5 C5          4.2460    1.6790   -0.3520 ca        1 O58     -0.056300
      6 C6          5.5740    1.2950   -0.0630 ca        1 O58      0.001800
      7 N7          6.0270   -0.0440   -0.2350 na        1 O58     -0.017500
      8 C8          5.3990   -1.2350    0.1900 cc        1 O58      0.399400
      9 N9          6.2470   -2.2400   -0.1420 nd        1 O58     -0.375000
     10 N10         7.3090   -1.6690   -0.7240 nd        1 O58     -0.050000
     11 N11         7.2170   -0.3980   -0.7920 nc        1 O58     -0.182800
     12 CL12        4.3090    5.5670    0.5410 cl        1 O58     -0.074400
     13 C13         3.2030    0.7550   -0.8810 c3        1 O58     -0.047100
     14 C14         2.1570    0.4450    0.1740 c3        1 O58     -0.152400
     15 C15         1.0480   -0.4160   -0.4120 c         1 O58      0.655100
     16 N16         0.0820   -0.8550    0.4750 n         1 O58     -0.537900
     17 O17         1.0410   -0.7440   -1.6150 o         1 O58     -0.608100
     18 C18        -1.1260   -1.5020    0.0250 c3        1 O58      0.024700
     19 C19        -2.3570   -0.5600    0.2150 c         1 O58      0.630100
     20 O20        -2.4010    0.1850    1.2150 o         1 O58     -0.613100
     21 N21        -3.3370   -0.6570   -0.7390 n         1 O58     -0.444100
     22 C22        -4.5440    0.0810   -0.7930 ca        1 O58     -0.001400
     23 C23        -5.2150    0.1780   -2.0320 ca        1 O58     -0.159500
     24 C24        -6.4200    0.8660   -2.1210 ca        1 O58     -0.122000
     25 C25        -6.9900    1.4780   -0.9980 ca        1 O58     -0.019300
     26 C26        -6.3240    1.3700    0.2320 ca        1 O58     -0.122000
     27 C27        -5.1190    0.6860    0.3420 ca        1 O58     -0.159500
     28 C28        -1.4540   -2.7840    0.8150 c3        1 O58     -0.045100
     29 C29        -0.3880   -3.8150    0.7130 ca        1 O58     -0.072300
     30 C30         0.3130   -4.2200    1.8540 ca        1 O58     -0.123000
     31 C31         1.3010   -5.2000    1.7620 ca        1 O58     -0.130000
     32 C32         1.5980   -5.7830    0.5310 ca        1 O58     -0.132000
     33 C33         0.9000   -5.3850   -0.6100 ca        1 O58     -0.130000
     34 C34        -0.0890   -4.4080   -0.5210 ca        1 O58     -0.123000
     35 C35        -8.2570    2.2340   -1.1020 c3        1 O58     -0.179100
     36 C36        -9.2920    1.8470   -0.0150 c         1 O58      0.919600
     37 O37        -9.0170    2.1170    1.1890 o         1 O58     -0.837300
     38 O38       -10.3680    1.3180   -0.4030 o         1 O58     -0.837300
     39 H1          7.5440    1.9750    0.6100 ha        1 O58      0.160000
     40 H2          6.8400    4.3200    0.9450 ha        1 O58      0.156000
     41 H4          2.8380    3.3190   -0.3800 ha        1 O58      0.162000
     42 H8          4.4210   -1.2940    0.6800 h5        1 O58      0.093100
     43 H13         2.6950    1.2430   -1.7610 hc        1 O58      0.081700
     44 H13A        3.6340   -0.2030   -1.2750 hc        1 O58      0.081700
     45 H14         2.6250   -0.0870    1.0430 hc        1 O58      0.067700
     46 H14A        1.7090    1.4000    0.5590 hc        1 O58      0.067700
     47 HN16        0.0170   -0.4100    1.3650 hn        1 O58      0.322500
     48 H18        -0.9870   -1.7730   -1.0640 h1        1 O58      0.095700
     49 HN21       -3.1540   -1.2280   -1.5320 hn        1 O58      0.310500
     50 H23        -4.7970   -0.2920   -2.9340 ha        1 O58      0.128000
     51 H24        -6.9360    0.9220   -3.0910 ha        1 O58      0.159000
     52 H26        -6.8090    1.8150    1.1240 ha        1 O58      0.159000
     53 H27        -4.6190    0.6240    1.3210 ha        1 O58      0.128000
     54 H28        -1.6430   -2.5190    1.8890 hc        1 O58      0.069200
     55 H28A       -2.4120   -3.1980    0.3970 hc        1 O58      0.069200
     56 H30         0.0820   -3.7650    2.8290 ha        1 O58      0.132000
     57 H31         1.8470   -5.5130    2.6640 ha        1 O58      0.129000
     58 H32         2.3790   -6.5530    0.4590 ha        1 O58      0.129000
     59 H33         1.1330   -5.8410   -1.5830 ha        1 O58      0.129000
     60 H34        -0.6340   -4.0950   -1.4230 ha        1 O58      0.132000
     61 H35        -8.0390    3.3270   -0.9730 hc        1 O58      0.039200
     62 H35A       -8.7240    2.0840   -2.1090 hc        1 O58      0.039200
@<TRIPOS>BOND
     1    1    2 ar  
     2    1    6 ar  
     3    1   39 1   
     4    2    3 ar  
     5    2   40 1   
     6    3    4 ar  
     7    3   12 1   
     8    4    5 ar  
     9    4   41 1   
    10    5    6 ar  
    11    5   13 1   
    12    6    7 1   
    13    7    8 1   
    14    7   11 1   
    15    8    9 2   
    16    8   42 1   
    17    9   10 1   
    18   10   11 2   
    19   13   14 1   
    20   13   43 1   
    21   13   44 1   
    22   14   15 1   
    23   14   45 1   
    24   14   46 1   
    25   15   16 1   
    26   15   17 2   
    27   16   18 1   
    28   16   47 1   
    29   18   19 1   
    30   18   28 1   
    31   18   48 1   
    32   19   20 2   
    33   19   21 1   
    34   21   22 1   
    35   21   49 1   
    36   22   23 ar  
    37   22   27 ar  
    38   23   24 ar  
    39   23   50 1   
    40   24   25 ar  
    41   24   51 1   
    42   25   26 ar  
    43   25   35 1   
    44   26   27 ar  
    45   26   52 1   
    46   27   53 1   
    47   28   29 1   
    48   28   54 1   
    49   28   55 1   
    50   29   30 ar  
    51   29   34 ar  
    52   30   31 ar  
    53   30   56 1   
    54   31   32 ar  
    55   31   57 1   
    56   32   33 ar  
    57   32   58 1   
    58   33   34 ar  
    59   33   59 1   
    60   34   60 1   
    61   35   36 1   
    62   35   61 1   
    63   35   62 1   
    64   36   37 1   
    65   36   38 1   
@<TRIPOS>SUBSTRUCTURE
     1 O58         1 TEMP              0 ****  ****    0 ROOT
