@<TRIPOS>MOLECULE
O58
   62    57     1     0     0
SMALL
bcc


@<TRIPOS>ATOM
      1 C1         -0.1670   -3.4070   -3.0420 c1        1 O58     -0.098000
      2 C2         -0.2310   -3.4190   -4.4500 c1        1 O58     -0.090000
      3 C3          0.5340   -2.5310   -5.1890 c1        1 O58     -0.059000
      4 C4          1.3480   -1.6450   -4.5570 c1        1 O58     -0.149000
      5 C5          1.4140   -1.6310   -3.1500 c1        1 O58     -0.057000
      6 C6          0.6450   -2.5240   -2.4070 c2        1 O58      0.047000
      7 N7          0.8190   -2.6020   -0.9970 n3        1 O58     -0.148000
      8 C8         -0.1580   -2.5180   -0.0840 c1        1 O58     -0.065000
      9 N9          0.3530   -2.8650    1.1080 n2        1 O58     -0.153000
     10 N10         1.6470   -3.1640    0.9330 n2        1 O58     -0.072000
     11 N11         1.9380   -3.0030   -0.3670 n2        1 O58     -0.053000
     12 CL12        0.4430   -2.5410   -6.9300 cl        1 O58     -0.035000
     13 C13         2.3700   -0.6400   -2.4330 c2        1 O58     -0.120000
     14 C14         2.1070    0.7740   -2.9430 c3        1 O58     -0.170000
     15 C15         1.6790    1.6560   -1.7900 c2        1 O58      0.304000
     16 N16         0.2500    2.0950   -1.6720 n         1 O58     -0.369000
     17 O17         2.4800    1.9980   -0.9680 o         1 O58     -0.381000
     18 C18        -0.2990    2.3720   -0.4060 c3        1 O58     -0.004000
     19 C19        -0.3990    1.0160    0.4490 c2        1 O58      0.277000
     20 O20        -1.0200    0.1050    0.0390 o         1 O58     -0.368000
     21 N21         0.3070    0.9010    1.6810 n         1 O58     -0.298000
     22 C22         0.2650   -0.3800    2.4600 c2        1 O58      0.026000
     23 C23         1.4610   -1.0640    2.7430 c2        1 O58     -0.174000
     24 C24         1.4200   -2.3080    3.3360 c1        1 O58     -0.109000
     25 C25         0.1800   -2.8980    3.6600 c1        1 O58     -0.041000
     26 C26        -1.0200   -2.2210    3.3810 c1        1 O58     -0.124000
     27 C27        -0.9910   -0.9790    2.7890 c1        1 O58     -0.154000
     28 C28        -1.6410    2.9520   -0.5680 c3        1 O58     -0.125000
     29 C29        -1.7000    4.3590    0.1430 c2        1 O58     -0.078000
     30 C30        -2.2790    5.4330   -0.5180 c2        1 O58     -0.127000
     31 C31        -2.4920    6.6490    0.1540 c1        1 O58     -0.137000
     32 C32        -2.1220    6.7790    1.4860 c1        1 O58     -0.132500
     33 C33        -1.5390    5.6980    2.1580 c1        1 O58     -0.132500
     34 C34        -1.3270    4.4830    1.4810 c1        1 O58     -0.113000
     35 C35         0.1360   -4.2980    4.2160 c3        1 O58     -0.193000
     36 C36        -0.3800   -5.2270    3.1720 c2        1 O58      0.339000
     37 O37        -1.6150   -5.1990    2.8470 o         1 O58     -0.592000
     38 O38         0.3650   -6.0190    2.6460 o         1 O58     -0.592000
     39 H1         -0.7390   -4.0740   -2.4960 ha        1 O58      0.222000
     40 H2         -0.8200   -4.0600   -4.9060 ha        1 O58      0.197000
     41 H4          1.7720   -0.9500   -5.0570 ha        1 O58      0.125000
     42 H8         -1.0850   -2.2570   -0.2590 DU        1 O58      0.303000
     43 H13         2.2120   -0.6710   -1.4710 ha        1 O58      0.120000
     44 H13A        3.3350   -0.8990   -2.6260 ha        1 O58      0.120000
     45 H14         2.9310    1.1360   -3.3450 hc        1 O58      0.103500
     46 H14A        1.4320    0.7510   -3.5840 hc        1 O58      0.103500
     47 HN16       -0.2340    2.2190   -2.3990 hn        1 O58      0.226000
     48 H18         0.2820    3.0150    0.0680 h1        1 O58      0.138000
     49 HN21        0.8110    1.6140    1.9910 hn        1 O58      0.244000
     50 H23         2.3310   -0.6310    2.5640 ha        1 O58      0.126000
     51 H24         2.2570   -2.7630    3.5820 ha        1 O58      0.160000
     52 H26        -1.9190   -2.6570    3.6200 ha        1 O58      0.129000
     53 H27        -1.8110   -0.4460    2.7440 ha        1 O58      0.153000
     54 H28        -2.2430    2.4100   -0.2060 hc        1 O58      0.106500
     55 H28A       -1.8290    3.0580   -1.4970 hc        1 O58      0.106500
     56 H30        -2.5240    5.3470   -1.4000 ha        1 O58      0.129000
     57 H31        -3.0350    7.3820   -0.2920 ha        1 O58      0.125000
     58 H32        -2.2800    7.6740    1.9810 ha        1 O58      0.127000
     59 H33        -1.2800    5.7880    3.1300 ha        1 O58      0.127000
     60 H34        -0.9230    3.7260    1.9460 ha        1 O58      0.163000
     61 H35         1.0530   -4.5770    4.4890 hc        1 O58      0.084000
     62 H35A       -0.4750   -4.3220    5.0150 hc        1 O58      0.084000
@<TRIPOS>BOND
     1    1    6 1   
     2    1   39 1   
     3    2    3 1   
     4    2   40 1   
     5    3   12 1   
     6    4    5 1   
     7    4   41 1   
     8    5    6 1   
     9    6    7 1   
    10    7    8 1   
    11    7   11 1   
    12    8    9 1   
    13    9   10 1   
    14   10   11 1   
    15   13   14 1   
    16   13   43 1   
    17   13   44 1   
    18   14   15 1   
    19   14   45 1   
    20   14   46 1   
    21   15   16 1   
    22   15   17 1   
    23   16   18 1   
    24   16   47 1   
    25   18   19 1   
    26   18   28 1   
    27   18   48 1   
    28   19   20 1   
    29   19   21 1   
    30   21   22 1   
    31   21   49 1   
    32   22   23 1   
    33   22   27 1   
    34   23   24 1   
    35   23   50 1   
    36   24   51 1   
    37   25   26 1   
    38   25   35 1   
    39   26   52 1   
    40   27   53 1   
    41   28   29 1   
    42   28   54 1   
    43   28   55 1   
    44   29   30 1   
    45   29   34 1   
    46   30   31 1   
    47   30   56 1   
    48   31   57 1   
    49   32   33 1   
    50   32   58 1   
    51   33   59 1   
    52   34   60 1   
    53   35   36 1   
    54   35   61 1   
    55   35   62 1   
    56   36   37 1   
    57   36   38 1   
@<TRIPOS>SUBSTRUCTURE
     1 O58         1 TEMP              0 ****  ****    0 ROOT
