@<TRIPOS>MOLECULE
O58
   63    66     1     0     0
SMALL
bcc


@<TRIPOS>ATOM
      1 C1          0.1820   -1.8500    0.7320 ca        1 O58     -0.114000
      2 C2          1.2660   -2.7190    0.7270 ca        1 O58     -0.103000
      3 C3          1.9780   -2.9490    1.9090 ca        1 O58      0.036400
      4 C4          1.6040   -2.3060    3.0910 ca        1 O58     -0.109000
      5 C5          0.5190   -1.4210    3.1180 ca        1 O58     -0.059300
      6 C6         -0.1980   -1.1930    1.9220 ca        1 O58     -0.014200
      7 N7         -1.3130   -0.3050    1.8710 na        1 O58      0.014500
      8 C8         -1.6220    0.6050    0.8380 cc        1 O58      0.412400
      9 N9         -2.8120    1.1710    1.1850 nd        1 O58     -0.351000
     10 N10        -3.1730    0.6200    2.3410 nd        1 O58     -0.055000
     11 N11        -2.3270   -0.2450    2.7640 nc        1 O58     -0.280800
     12 Cl12        3.2940   -4.0110    1.9090 cl        1 O58     -0.039400
     13 C13         0.2000   -0.7460    4.4080 c3        1 O58     -0.034100
     14 C14        -0.9170   -1.4540    5.1660 c3        1 O58     -0.143400
     15 C15        -2.0040   -0.4880    5.5440 c         1 O58      0.575100
     16 N16        -3.4260   -0.9740    5.3990 ny        1 O58     -0.661800
     17 O17        -1.8790    0.6560    5.9590 o         1 O58     -0.442100
     18 C18        -3.9510   -1.5740    6.6720 c3        1 O58      0.031500
     19 C19        -3.4060   -3.0300    6.8320 c         1 O58      0.628100
     20 O20        -2.9370   -3.5820    5.8100 o         1 O58     -0.630100
     21 N21        -3.4300   -3.5330    8.0910 ns        1 O58     -0.386100
     22 C22        -3.1500   -4.8820    8.4460 ca        1 O58     -0.059400
     23 C23        -2.3220   -5.7110    7.6720 ca        1 O58     -0.138000
     24 C24        -2.0740   -7.0180    8.0850 ca        1 O58     -0.125000
     25 C25        -2.6330   -7.5260    9.2620 ca        1 O58      0.020700
     26 C26        -3.4620   -6.6870   10.0330 ca        1 O58     -0.125000
     27 C27        -3.7230   -5.3870    9.6390 ca        1 O58     -0.138000
     28 C28        -5.4860   -1.6240    6.6770 c3        1 O58     -0.052100
     29 C29        -6.0810   -0.2790    6.4600 ca        1 O58     -0.146300
     30 C30        -6.2360    0.6060    7.5330 ca        1 O58     -0.127500
     31 C31        -6.8090    1.8600    7.3300 ca        1 O58     -0.114500
     32 C32        -7.2340    2.2380    6.0560 ca        1 O58     -0.106000
     33 C33        -7.0890    1.3570    4.9840 ca        1 O58     -0.114500
     34 C34        -6.5160    0.1010    5.1840 ca        1 O58     -0.127500
     35 C35        -2.4010   -8.9170    9.6950 c3        1 O58     -0.202100
     36 C36        -3.7470   -9.6690    9.9370 c         1 O58      0.923600
     37 O37        -3.9940  -10.6490    9.1900 o         1 O58     -0.820800
     38 O38        -4.4810   -9.2500   10.8740 o         1 O58     -0.820800
     39 H1         -0.3790   -1.6860   -0.2030 ha        1 O58      0.155000
     40 H2          1.5550   -3.2280   -0.2080 ha        1 O58      0.170000
     41 H4          2.1710   -2.4940    4.0190 ha        1 O58      0.166000
     42 H8         -0.9990    0.8000   -0.0410 h5        1 O58      0.103100
     43 H13        -0.0550    0.3350    4.2310 hc        1 O58      0.080200
     44 H13A        1.1200   -0.7410    5.0570 hc        1 O58      0.080200
     45 H14        -1.3180   -2.3230    4.5730 hc        1 O58      0.120200
     46 H14A       -0.5220   -1.8850    6.1300 hc        1 O58      0.120200
     47 HN16       -3.4580   -1.7050    4.6690 hn        1 O58      0.479800
     48 H18        -3.5950   -0.9110    7.5150 hx        1 O58      0.112700
     49 HN21       -3.9090   -3.0090    8.7940 hn        1 O58      0.318500
     50 H23        -1.8810   -5.3500    6.7310 ha        1 O58      0.126000
     51 H24        -1.4410   -7.6670    7.4600 ha        1 O58      0.172500
     52 H26        -3.9460   -7.1260   10.9310 ha        1 O58      0.172500
     53 H27        -4.3860   -4.7610   10.2550 ha        1 O58      0.126000
     54 H28        -5.8460   -2.3490    5.8960 hc        1 O58      0.095200
     55 H28A       -5.8060   -2.0290    7.6760 hc        1 O58      0.095200
     56 H30        -5.9160    0.3060    8.5430 ha        1 O58      0.136500
     57 H31        -6.9330    2.5490    8.1800 ha        1 O58      0.149000
     58 H32        -7.6890    3.2280    5.8980 ha        1 O58      0.148000
     59 H33        -7.4310    1.6490    3.9790 ha        1 O58      0.149000
     60 H34        -6.4360   -0.6010    4.3390 ha        1 O58      0.136500
     61 H35        -1.8490   -8.9220   10.6700 hc        1 O58      0.051200
     62 H35A       -1.8010   -9.4820    8.9390 hc        1 O58      0.051200
     63 H162       -4.0370   -0.1890    5.1250 hn        1 O58      0.479800
@<TRIPOS>BOND
     1    1    2 ar  
     2    1    6 ar  
     3    1   39 1   
     4    2    3 ar  
     5    2   40 1   
     6    3    4 ar  
     7    3   12 1   
     8    4    5 ar  
     9    4   41 1   
    10    5    6 ar  
    11    5   13 1   
    12    6    7 1   
    13    7    8 1   
    14    7   11 1   
    15    8    9 2   
    16    8   42 1   
    17    9   10 1   
    18   10   11 2   
    19   13   14 1   
    20   13   43 1   
    21   13   44 1   
    22   14   15 1   
    23   14   45 1   
    24   14   46 1   
    25   15   16 1   
    26   15   17 2   
    27   16   18 1   
    28   16   47 1   
    29   16   63 1   
    30   18   19 1   
    31   18   28 1   
    32   18   48 1   
    33   19   20 2   
    34   19   21 1   
    35   21   22 1   
    36   21   49 1   
    37   22   23 ar  
    38   22   27 ar  
    39   23   24 ar  
    40   23   50 1   
    41   24   25 ar  
    42   24   51 1   
    43   25   26 ar  
    44   25   35 1   
    45   26   27 ar  
    46   26   52 1   
    47   27   53 1   
    48   28   29 1   
    49   28   54 1   
    50   28   55 1   
    51   29   30 ar  
    52   29   34 ar  
    53   30   31 ar  
    54   30   56 1   
    55   31   32 ar  
    56   31   57 1   
    57   32   33 ar  
    58   32   58 1   
    59   33   34 ar  
    60   33   59 1   
    61   34   60 1   
    62   35   36 1   
    63   35   61 1   
    64   35   62 1   
    65   36   37 1   
    66   36   38 1   
@<TRIPOS>SUBSTRUCTURE
     1 O58         1 TEMP              0 ****  ****    0 ROOT
