@<TRIPOS>MOLECULE
O59
   38    35     1     0     0
SMALL
bcc


@<TRIPOS>ATOM
      1 C1         -3.8750   -0.0130   -2.1460 c3        1 O59      0.031000
      2 N1         -6.3330   -0.2010   -5.1800 n3        1 O59     -0.948000
      3 O1         -6.6480    0.8240   -2.8300 o         1 O59     -0.553400
      4 S1         -5.9200   -0.2540   -3.6360 s4        1 O59      2.043800
      5 C2         -2.3370   -0.0960   -2.1690 c3        1 O59     -0.160000
      6 N2          6.3430    0.6130    5.0470 n3        1 O59     -0.948000
      7 O2         -6.4340   -1.5160   -2.9750 o         1 O59     -0.553400
      8 S2          5.7590   -0.1560    3.7410 s4        1 O59      2.043800
      9 C3         -1.7830    0.1190   -0.7490 c3        1 O59     -0.159000
     10 O3         -4.3760   -0.1270   -3.4870 o         1 O59     -0.728000
     11 C4         -0.2180   -0.0560   -0.7600 c3        1 O59     -0.157000
     12 O4          4.3710    0.2990    3.4510 o         1 O59     -0.728000
     13 C5          0.3420    0.2250    0.6840 c3        1 O59     -0.157000
     14 O5          6.6590    0.0360    2.5420 o         1 O59     -0.553400
     15 C6          1.8440   -0.0710    0.7280 c3        1 O59     -0.159000
     16 O6          5.8200   -1.6680    3.9170 o         1 O59     -0.553400
     17 C7          2.4170    0.3640    2.1020 c3        1 O59     -0.160000
     18 C8          3.8440   -0.0960    2.2130 c3        1 O59      0.031000
     19 H1         -4.2390   -0.7540   -1.5930 h1        1 O59      0.081000
     20 H1A        -4.1550    0.8580   -1.7610 h1        1 O59      0.081000
     21 HN1        -6.6610    0.5490   -5.5270 hn        1 O59      0.254000
     22 HN1A       -6.2910   -0.9400   -5.6790 hn        1 O59      0.254000
     23 H2         -1.9860    0.5890   -2.7600 hc        1 O59      0.094000
     24 H2A        -2.0580   -1.0020   -2.5010 hc        1 O59      0.094000
     25 HN2         6.0670    0.3620    5.8930 hn        1 O59      0.254000
     26 HN2A        6.9750    1.2940    4.9450 hn        1 O59      0.254000
     27 H3         -2.0060    1.0230   -0.4430 hc        1 O59      0.082000
     28 H3A        -2.1740   -0.5290   -0.1480 hc        1 O59      0.082000
     29 H4          0.0160   -0.9970   -1.0360 hc        1 O59      0.081000
     30 H4A         0.1810    0.5830   -1.4000 hc        1 O59      0.081000
     31 H5          0.1810    1.2090    0.9240 hc        1 O59      0.081000
     32 H5A        -0.1300   -0.3580    1.3410 hc        1 O59      0.081000
     33 H6          1.9990   -1.0700    0.5990 hc        1 O59      0.082000
     34 H6A         2.3000    0.4290    0.0080 hc        1 O59      0.082000
     35 H7          1.8880   -0.0380    2.8190 hc        1 O59      0.094000
     36 H7A         2.3810    1.3410    2.1770 hc        1 O59      0.094000
     37 H8          4.3600    0.2950    1.5080 h1        1 O59      0.081000
     38 H8A         3.8790   -1.0710    2.1400 h1        1 O59      0.081000
@<TRIPOS>BOND
     1    1    5 1   
     2    1   10 1   
     3    1   19 1   
     4    1   20 1   
     5    2    4 1   
     6    2   21 1   
     7    2   22 1   
     8    3    4 1   
     9    4    7 1   
    10    5    9 1   
    11    5   23 1   
    12    5   24 1   
    13    6    8 1   
    14    6   25 1   
    15    6   26 1   
    16    8   14 1   
    17    8   16 1   
    18    9   11 1   
    19    9   27 1   
    20    9   28 1   
    21   11   13 1   
    22   11   29 1   
    23   11   30 1   
    24   12   18 1   
    25   13   15 1   
    26   13   31 1   
    27   13   32 1   
    28   15   17 1   
    29   15   33 1   
    30   15   34 1   
    31   17   18 1   
    32   17   35 1   
    33   17   36 1   
    34   18   37 1   
    35   18   38 1   
@<TRIPOS>SUBSTRUCTURE
     1 O59         1 TEMP              0 ****  ****    0 ROOT
