@<TRIPOS>MOLECULE
O59
   40    39     1     0     0
SMALL
bcc


@<TRIPOS>ATOM
      1 C1         -0.3180    0.5090    0.7510 c3        1 O59      0.189400
      2 N1         -3.2860    0.3090   -1.6850 nz        1 O59     -0.805500
      3 O1         -1.7420   -1.5450   -0.8410 o         1 O59     -0.557800
      4 S1         -1.5580   -0.3680   -1.4990 s6        1 O59      1.639400
      5 C2          1.1710    0.5010    0.4680 c3        1 O59     -0.121400
      6 N2         10.9350    0.2880    6.0140 nz        1 O59     -0.805500
      7 O2         -1.0220   -0.1560   -2.7280 o         1 O59     -0.557800
      8 S2          9.2120   -0.3990    5.8130 s6        1 O59      1.639400
      9 C3          1.9430    0.4700    1.7730 c3        1 O59     -0.076400
     10 O3         -1.0440    0.7520   -0.4660 os        1 O59     -0.592500
     11 C4          3.4360    0.4710    1.5150 c3        1 O59     -0.079400
     12 O4          8.6890    0.7380    4.8040 os        1 O59     -0.592500
     13 C5          4.2110    0.4610    2.8170 c3        1 O59     -0.079400
     14 O5          9.4060   -1.5600    5.1310 o         1 O59     -0.557800
     15 C6          5.7040    0.4780    2.5590 c3        1 O59     -0.076400
     16 O6          8.6740   -0.2170    7.0470 o         1 O59     -0.557800
     17 C7          6.4760    0.4880    3.8650 c3        1 O59     -0.121400
     18 C8          7.9650    0.5150    3.5820 c3        1 O59      0.189400
     19 H1         -0.6130    1.3810    1.4010 h1        1 O59      0.091700
     20 H1A        -0.6730   -0.4560    1.2020 h1        1 O59      0.091700
     21 HN1        -3.4940    0.5340   -2.6620 hn        1 O59      0.477467
     22 HN1A       -3.9920   -0.3580   -1.3660 hn        1 O59      0.477467
     23 H2          1.4470    1.4190   -0.1170 hc        1 O59      0.066200
     24 H2A         1.4440   -0.3910   -0.1540 hc        1 O59      0.066200
     25 HN2        11.1400    0.4950    6.9950 hn        1 O59      0.477467
     26 HN2A       11.6460   -0.3660    5.6810 hn        1 O59      0.477467
     27 H3          1.6620   -0.4460    2.3570 hc        1 O59      0.055200
     28 H3A         1.6690    1.3630    2.3950 hc        1 O59      0.055200
     29 H4          3.7140   -0.4270    0.9030 hc        1 O59      0.051700
     30 H4A         3.7140    1.3800    0.9180 hc        1 O59      0.051700
     31 H5          3.9410   -0.4530    3.4090 hc        1 O59      0.051700
     32 H5A         3.9250    1.3550    3.4330 hc        1 O59      0.051700
     33 H6          5.9930   -0.4230    1.9560 hc        1 O59      0.055200
     34 H6A         5.9710    1.3860    1.9560 hc        1 O59      0.055200
     35 H7          6.1920    1.3910    4.4690 hc        1 O59      0.066200
     36 H7A         6.2110   -0.4190    4.4680 hc        1 O59      0.066200
     37 H8          8.2520    1.4030    2.9510 h1        1 O59      0.091700
     38 H8A         8.3280   -0.4370    3.1110 h1        1 O59      0.091700
     39 H13        -3.4140    1.1690   -1.1470 hn        1 O59      0.477467
     40 H23        11.0550    1.1610    5.4940 hn        1 O59      0.477467
@<TRIPOS>BOND
     1    1    5 1   
     2    1   10 1   
     3    1   19 1   
     4    1   20 1   
     5    2    4 1   
     6    2   21 1   
     7    2   22 1   
     8    2   39 1   
     9    3    4 2   
    10    4    7 2   
    11    4   10 1   
    12    5    9 1   
    13    5   23 1   
    14    5   24 1   
    15    6    8 1   
    16    6   25 1   
    17    6   26 1   
    18    6   40 1   
    19    8   12 1   
    20    8   14 2   
    21    8   16 2   
    22    9   11 1   
    23    9   27 1   
    24    9   28 1   
    25   11   13 1   
    26   11   29 1   
    27   11   30 1   
    28   12   18 1   
    29   13   15 1   
    30   13   31 1   
    31   13   32 1   
    32   15   17 1   
    33   15   33 1   
    34   15   34 1   
    35   17   18 1   
    36   17   35 1   
    37   17   36 1   
    38   18   37 1   
    39   18   38 1   
@<TRIPOS>SUBSTRUCTURE
     1 O59         1 TEMP              0 ****  ****    0 ROOT
