@<TRIPOS>MOLECULE
O59
   38    37     1     0     0
SMALL
bcc


@<TRIPOS>ATOM
      1 C1          4.3180   -0.7600   -0.6160 c3        1 O59      0.197400
      2 N1          7.4380   -0.5300    0.8870 n3        1 O59     -1.037700
      3 O1          5.4380    0.7560    1.4990 o         1 O59     -0.655300
      4 S1          6.3920    0.5990    0.4970 s6        1 O59      1.715400
      5 C2          3.1430    0.2030   -0.6270 c3        1 O59     -0.120400
      6 N2         -7.4390    0.4920    0.9000 n3        1 O59     -1.037700
      7 O2          7.0140    1.6910   -0.0910 o         1 O59     -0.655300
      8 S2         -6.3930   -0.6210    0.4680 s6        1 O59      1.715400
      9 C3          1.8360   -0.5580   -0.6320 c3        1 O59     -0.074400
     10 O3          5.5340   -0.0690   -0.7830 os        1 O59     -0.579500
     11 C4          0.6550    0.3900   -0.6200 c3        1 O59     -0.078400
     12 O4         -5.5330    0.0970   -0.7850 os        1 O59     -0.579500
     13 C5         -0.6550   -0.3680   -0.6350 c3        1 O59     -0.078400
     14 O5         -5.4390   -0.8170    1.4630 o         1 O59     -0.655300
     15 C6         -1.8350    0.5790   -0.6120 c3        1 O59     -0.074400
     16 O6         -7.0140   -1.6890   -0.1630 o         1 O59     -0.655300
     17 C7         -3.1430   -0.1810   -0.6370 c3        1 O59     -0.120400
     18 C8         -4.3180    0.7810   -0.5900 c3        1 O59      0.197400
     19 H1          4.3410   -1.3440    0.3450 h1        1 O59      0.042200
     20 H1A         4.2630   -1.4710   -1.4860 h1        1 O59      0.042200
     21 HN1         8.3140   -0.6470    0.4390 hn        1 O59      0.455300
     22 HN1A        7.2810   -1.2130    1.5860 hn        1 O59      0.455300
     23 H2          3.2000    0.8660    0.2770 hc        1 O59      0.063200
     24 H2A         3.2120    0.8600   -1.5330 hc        1 O59      0.063200
     25 HN2        -8.3140    0.6260    0.4560 hn        1 O59      0.455300
     26 HN2A       -7.2830    1.1470    1.6250 hn        1 O59      0.455300
     27 H3          1.7820   -1.2120   -1.5420 hc        1 O59      0.039700
     28 H3A         1.7860   -1.2300    0.2650 hc        1 O59      0.039700
     29 H4          0.7050    1.0390    0.2940 hc        1 O59      0.043200
     30 H4A         0.7090    1.0690   -1.5110 hc        1 O59      0.043200
     31 H5         -0.7080   -1.0120   -1.5520 hc        1 O59      0.043200
     32 H5A        -0.7060   -1.0520    0.2530 hc        1 O59      0.043200
     33 H6         -1.7870    1.2160    0.3100 hc        1 O59      0.039700
     34 H6A        -1.7810    1.2690   -1.4960 hc        1 O59      0.039700
     35 H7         -3.2110   -0.8020   -1.5680 hc        1 O59      0.063200
     36 H7A        -3.2000   -0.8790    0.2400 hc        1 O59      0.063200
     37 H8         -4.2620    1.5250   -1.4320 h1        1 O59      0.042200
     38 H8A        -4.3410    1.3270    0.3920 h1        1 O59      0.042200
@<TRIPOS>BOND
     1    1    5 1   
     2    1   10 1   
     3    1   19 1   
     4    1   20 1   
     5    2    4 1   
     6    2   21 1   
     7    2   22 1   
     8    3    4 2   
     9    4    7 2   
    10    4   10 1   
    11    5    9 1   
    12    5   23 1   
    13    5   24 1   
    14    6    8 1   
    15    6   25 1   
    16    6   26 1   
    17    8   12 1   
    18    8   14 2   
    19    8   16 2   
    20    9   11 1   
    21    9   27 1   
    22    9   28 1   
    23   11   13 1   
    24   11   29 1   
    25   11   30 1   
    26   12   18 1   
    27   13   15 1   
    28   13   31 1   
    29   13   32 1   
    30   15   17 1   
    31   15   33 1   
    32   15   34 1   
    33   17   18 1   
    34   17   35 1   
    35   17   36 1   
    36   18   37 1   
    37   18   38 1   
@<TRIPOS>SUBSTRUCTURE
     1 O59         1 TEMP              0 ****  ****    0 ROOT
