@<TRIPOS>MOLECULE
O59
   40    39     1     0     0
SMALL
bcc


@<TRIPOS>ATOM
      1 C1         -0.3030    0.5100    0.7090 c3        1 O59      0.189400
      2 N1         -3.2490    0.2980   -1.7530 n4        1 O59     -0.805500
      3 O1         -1.7200   -1.5530   -0.8770 o         1 O59     -0.557800
      4 S1         -1.5250   -0.3830   -1.5440 s6        1 O59      1.639400
      5 C2          1.1880    0.4940    0.4410 c3        1 O59     -0.121400
      6 N2         10.8980    0.3010    6.0820 n4        1 O59     -0.805500
      7 O2         -0.9770   -0.1840   -2.7710 o         1 O59     -0.557800
      8 S2          9.1740   -0.3800    5.8740 s6        1 O59      1.639400
      9 C3          1.9470    0.4730    1.7530 c3        1 O59     -0.076400
     10 O3         -1.0170    0.7450   -0.5170 os        1 O59     -0.592500
     11 C4          3.4430    0.4650    1.5100 c3        1 O59     -0.079400
     12 O4          8.6650    0.7470    4.8450 os        1 O59     -0.592500
     13 C5          4.2050    0.4660    2.8190 c3        1 O59     -0.079400
     14 O5          9.3690   -1.5510    5.2070 o         1 O59     -0.557800
     15 C6          5.7010    0.4730    2.5750 c3        1 O59     -0.076400
     16 O6          8.6250   -0.1810    7.1000 o         1 O59     -0.557800
     17 C7          6.4600    0.4950    3.8880 c3        1 O59     -0.121400
     18 C8          7.9520    0.5110    3.6200 c3        1 O59      0.189400
     19 H1         -0.6010    1.3890    1.3470 h1        1 O59      0.091700
     20 H1A        -0.6660   -0.4490    1.1660 h1        1 O59      0.091700
     21 HN1        -3.4460    0.5150   -2.7340 hn        1 O59      0.477467
     22 HN1A       -3.9610   -0.3630   -1.4340 hn        1 O59      0.477467
     23 H2          1.4730    1.4050   -0.1510 hc        1 O59      0.066200
     24 H2A         1.4640   -0.4060   -0.1700 hc        1 O59      0.066200
     25 HN2        11.0950    0.5190    7.0620 hn        1 O59      0.477467
     26 HN2A       11.6090   -0.3600    5.7630 hn        1 O59      0.477467
     27 H3          1.6570   -0.4360    2.3440 hc        1 O59      0.055200
     28 H3A         1.6710    1.3740    2.3630 hc        1 O59      0.055200
     29 H4          3.7230   -0.4410    0.9100 hc        1 O59      0.051700
     30 H4A         3.7300    1.3660    0.9060 hc        1 O59      0.051700
     31 H5          3.9250   -0.4400    3.4190 hc        1 O59      0.051700
     32 H5A         3.9180    1.3670    3.4220 hc        1 O59      0.051700
     33 H6          5.9920   -0.4360    1.9850 hc        1 O59      0.055200
     34 H6A         5.9780    1.3730    1.9650 hc        1 O59      0.055200
     35 H7          6.1750    1.4060    4.4790 hc        1 O59      0.066200
     36 H7A         6.1850   -0.4040    4.4990 hc        1 O59      0.066200
     37 H8          8.2490    1.3900    2.9810 h1        1 O59      0.091700
     38 H8A         8.3150   -0.4490    3.1630 h1        1 O59      0.091700
     39 H13        -3.3780    1.1640   -1.2240 hn        1 O59      0.477467
     40 H23        11.0270    1.1670    5.5520 hn        1 O59      0.477467
@<TRIPOS>BOND
     1    1    5 1   
     2    1   10 1   
     3    1   19 1   
     4    1   20 1   
     5    2    4 1   
     6    2   21 1   
     7    2   22 1   
     8    2   39 1   
     9    3    4 2   
    10    4    7 2   
    11    4   10 1   
    12    5    9 1   
    13    5   23 1   
    14    5   24 1   
    15    6    8 1   
    16    6   25 1   
    17    6   26 1   
    18    6   40 1   
    19    8   12 1   
    20    8   14 2   
    21    8   16 2   
    22    9   11 1   
    23    9   27 1   
    24    9   28 1   
    25   11   13 1   
    26   11   29 1   
    27   11   30 1   
    28   12   18 1   
    29   13   15 1   
    30   13   31 1   
    31   13   32 1   
    32   15   17 1   
    33   15   33 1   
    34   15   34 1   
    35   17   18 1   
    36   17   35 1   
    37   17   36 1   
    38   18   37 1   
    39   18   38 1   
@<TRIPOS>SUBSTRUCTURE
     1 O59         1 TEMP              0 ****  ****    0 ROOT
