@<TRIPOS>MOLECULE
O59
   40    39     1     0     0
SMALL
bcc


@<TRIPOS>ATOM
      1 C1         -0.3200    0.5180    0.7570 c3        1 O59      0.189400
      2 N1         -3.2980    0.2850   -1.6640 n4        1 O59     -0.805500
      3 O1         -1.7700   -1.5620   -0.7760 o         1 O59     -0.557800
      4 S1         -1.5760   -0.4050   -1.4650 s6        1 O59      1.639400
      5 C2          1.1680    0.4880    0.4710 c3        1 O59     -0.121400
      6 N2         10.9460    0.3080    5.9930 n4        1 O59     -0.805500
      7 O2         -1.0410   -0.2300   -2.7020 o         1 O59     -0.557800
      8 S2          9.2170   -0.3680    5.8110 s6        1 O59      1.639400
      9 C3          1.9430    0.4810    1.7740 c3        1 O59     -0.076400
     10 O3         -1.0470    0.7370   -0.4630 os        1 O59     -0.592500
     11 C4          3.4360    0.4610    1.5120 c3        1 O59     -0.079400
     12 O4          8.7000    0.7520    4.7800 os        1 O59     -0.592500
     13 C5          4.2140    0.4740    2.8120 c3        1 O59     -0.079400
     14 O5          9.3990   -1.5450    5.1520 o         1 O59     -0.557800
     15 C6          5.7070    0.4710    2.5500 c3        1 O59     -0.076400
     16 O6          8.6850   -0.1570    7.0430 o         1 O59     -0.557800
     17 C7          6.4820    0.5030    3.8530 c3        1 O59     -0.121400
     18 C8          7.9700    0.5100    3.5660 c3        1 O59      0.189400
     19 H1         -0.6820   -0.4320    1.2340 h1        1 O59      0.091700
     20 H1A        -0.6040    1.4090    1.3850 h1        1 O59      0.091700
     21 HN1        -4.0100   -0.3660   -1.3260 hn        1 O59      0.477467
     22 HN1A       -3.4140    1.1600   -1.1480 hn        1 O59      0.477467
     23 H2          1.4510    1.3890   -0.1370 hc        1 O59      0.066200
     24 H2A         1.4300   -0.4210   -0.1300 hc        1 O59      0.066200
     25 HN2        11.1570    0.5320    6.9690 hn        1 O59      0.477467
     26 HN2A       11.0720    1.1680    5.4550 hn        1 O59      0.477467
     27 H3          1.6550   -0.4180    2.3810 hc        1 O59      0.055200
     28 H3A         1.6790    1.3910    2.3750 hc        1 O59      0.055200
     29 H4          3.7040   -0.4540    0.9210 hc        1 O59      0.051700
     30 H4A         3.7210    1.3530    0.8940 hc        1 O59      0.051700
     31 H5          3.9390    1.3840    3.4080 hc        1 O59      0.051700
     32 H5A         3.9370   -0.4230    3.4260 hc        1 O59      0.051700
     33 H6          5.9800    1.3630    1.9260 hc        1 O59      0.055200
     34 H6A         5.9850   -0.4460    1.9660 hc        1 O59      0.055200
     35 H7          6.2080    1.4220    4.4380 hc        1 O59      0.066200
     36 H7A         6.2110   -0.3880    4.4770 hc        1 O59      0.066200
     37 H8          8.3230   -0.4550    3.1130 h1        1 O59      0.091700
     38 H8A         8.2640    1.3820    2.9160 h1        1 O59      0.091700
     39 H13        -3.5050    0.4870   -2.6460 hn        1 O59      0.477467
     40 H23        11.6510   -0.3590    5.6700 hn        1 O59      0.477467
@<TRIPOS>BOND
     1    1    5 1   
     2    1   10 1   
     3    1   19 1   
     4    1   20 1   
     5    2    4 1   
     6    2   21 1   
     7    2   22 1   
     8    2   39 1   
     9    3    4 2   
    10    4    7 2   
    11    4   10 1   
    12    5    9 1   
    13    5   23 1   
    14    5   24 1   
    15    6    8 1   
    16    6   25 1   
    17    6   26 1   
    18    6   40 1   
    19    8   12 1   
    20    8   14 2   
    21    8   16 2   
    22    9   11 1   
    23    9   27 1   
    24    9   28 1   
    25   11   13 1   
    26   11   29 1   
    27   11   30 1   
    28   12   18 1   
    29   13   15 1   
    30   13   31 1   
    31   13   32 1   
    32   15   17 1   
    33   15   33 1   
    34   15   34 1   
    35   17   18 1   
    36   17   35 1   
    37   17   36 1   
    38   18   37 1   
    39   18   38 1   
@<TRIPOS>SUBSTRUCTURE
     1 O59         1 TEMP              0 ****  ****    0 ROOT
