@<TRIPOS>MOLECULE
O5U
   69    72     1     0     0
SMALL
bcc


@<TRIPOS>ATOM
      1 C1          2.7850    7.3490   -0.8190 ca        1 O5U     -0.145000
      2 C2          1.3970    7.2720   -0.8670 ca        1 O5U     -0.145000
      3 C3          3.5470    6.2500   -0.4020 ca        1 O5U     -0.130000
      4 C4          0.7330    6.0930   -0.5010 ca        1 O5U     -0.120000
      5 C5         -1.4680    1.8590    0.3730 ca        1 O5U     -0.151000
      6 C6         -2.3070    0.7940    0.6740 ca        1 O5U     -0.154000
      7 C7         -0.1630    0.4790   -1.1480 ca        1 O5U     -0.103600
      8 C8          2.8950    5.0830   -0.0370 ca        1 O5U     -0.068300
      9 C9          1.4830    5.0040   -0.0850 ca        1 O5U     -0.070300
     10 C10        -0.3990    1.7140   -0.5200 ca        1 O5U     -0.085300
     11 C11        -2.0740   -0.4460    0.0680 ca        1 O5U      0.051100
     12 C12        -1.0020   -0.6040   -0.8320 ca        1 O5U      0.074100
     13 C15        -4.7820   -5.9510   -0.0960 c         1 O5U      0.908600
     14 C16         3.4790    3.7970    0.4350 c3        1 O5U     -0.066100
     15 C17        -1.4230   -2.9230   -0.8270 c3        1 O5U      0.093400
     16 C18         0.9960    3.6500    0.3480 c3        1 O5U     -0.025400
     17 C19         2.2610    3.0220    1.0330 c3        1 O5U      0.118700
     18 C20        -2.8750   -2.5990   -0.4940 c3        1 O5U      0.104100
     19 C21         0.4470    2.8950   -0.8550 c3        1 O5U     -0.029100
     20 C22         2.8600   -0.6590    1.8550 c3        1 O5U     -0.139400
     21 C24        -3.5900   -3.7510    0.2000 c3        1 O5U     -0.061400
     22 C25         3.7260   -1.0880    0.6930 c3        1 O5U     -0.106400
     23 C26         3.9530   -2.5860    0.7100 c3        1 O5U     -0.065400
     24 C27         4.6230   -3.0350   -0.5700 c3        1 O5U     -0.121400
     25 C28         4.9610   -4.5240   -0.5180 c3        1 O5U      0.143800
     26 N29         2.3640    1.5980    0.9540 n         1 O5U     -0.550900
     27 N30         5.5290   -5.0910   -1.7180 n3        1 O5U     -0.907800
     28 O31         0.6790    0.2870   -3.3860 o         1 O5U     -0.831300
     29 O32        -5.9360   -6.3210   -0.4600 o         1 O5U     -0.855800
     30 O33         2.1570    0.3340   -1.7230 o         1 O5U     -0.831300
     31 O34         3.1620    1.3800    3.0990 o         1 O5U     -0.684100
     32 O35        -4.1060   -6.5470    0.7920 o         1 O5U     -0.855800
     33 O36        -0.7660   -1.8190   -1.4570 os        1 O5U     -0.298900
     34 O37        -2.9230   -1.4810    0.4190 os        1 O5U     -0.332900
     35 H1          3.2930    8.2780   -1.1130 ha        1 O5U      0.111000
     36 H2          0.8110    8.1400   -1.2000 ha        1 O5U      0.114000
     37 H3          4.6430    6.3140   -0.3700 ha        1 O5U      0.122000
     38 H4         -0.3630    6.0320   -0.5510 ha        1 O5U      0.132000
     39 H5         -1.6600    2.8350    0.8430 ha        1 O5U      0.106000
     40 H6         -3.1450    0.9040    1.3750 ha        1 O5U      0.127000
     41 H161        3.9320    3.2390   -0.4250 hc        1 O5U      0.064700
     42 H162        4.2650    3.9470    1.2130 hc        1 O5U      0.064700
     43 H18         0.1940    3.7550    1.1250 hc        1 O5U      0.058700
     44 H211        1.3030    2.5860   -1.5180 hc        1 O5U      0.066700
     45 H212       -0.1880    3.6110   -1.4500 hc        1 O5U      0.066700
     46 H221        3.2530   -1.0850    2.8150 hc        1 O5U      0.063200
     47 H222        1.8130   -1.0390    1.7100 hc        1 O5U      0.063200
     48 H29         2.1480    1.1490    0.0740 hn        1 O5U      0.385500
     49 H231       -3.3640   -5.0920   -1.4850 hc        1 O5U      0.023200
     50 H232       -4.9540   -4.2270   -1.4180 hc        1 O5U      0.023200
     51 H19         2.2070    3.3040    2.1290 h1        1 O5U      0.065700
     52 H171       -0.8600   -3.2000    0.1020 h1        1 O5U      0.063700
     53 H172       -1.3590   -3.7460   -1.5850 h1        1 O5U      0.063700
     54 H20        -3.4180   -2.2920   -1.4300 h1        1 O5U      0.055700
     55 H241       -2.8840   -4.2930    0.8820 hc        1 O5U      0.058700
     56 H242       -4.4110   -3.3320    0.8390 hc        1 O5U      0.058700
     57 H251        3.2330   -0.7960   -0.2800 hc        1 O5U      0.078700
     58 H252        4.7150   -0.5610    0.7410 hc        1 O5U      0.078700
     59 H261        4.5850   -2.8690    1.5920 hc        1 O5U      0.031700
     60 H262        2.9690   -3.1140    0.8210 hc        1 O5U      0.031700
     61 H271        3.9400   -2.8200   -1.4350 hc        1 O5U      0.050700
     62 H272        5.5600   -2.4390   -0.7330 hc        1 O5U      0.050700
     63 H281        5.6970   -4.6980    0.3180 h1        1 O5U      0.044700
     64 H282        4.0250   -5.1000   -0.2690 h1        1 O5U      0.044700
     65 H301        4.8470   -5.0980   -2.4540 hn        1 O5U      0.338300
     66 H302        6.3070   -4.5390   -2.0270 hn        1 O5U      0.338300
     67 C23        -4.1690   -4.7260   -0.7970 c3        1 O5U     -0.193400
     68 C14         2.8140    0.8510    2.0140 c         1 O5U      0.661100
     69 C13         0.9620    0.3390   -2.1630 c         1 O5U      0.926200
@<TRIPOS>BOND
     1    1    2 ar  
     2    1    3 ar  
     3    1   35 1   
     4    2    4 ar  
     5    2   36 1   
     6    3    8 ar  
     7    3   37 1   
     8    4    9 ar  
     9    4   38 1   
    10    5    6 ar  
    11    5   10 ar  
    12    5   39 1   
    13    6   11 ar  
    14    6   40 1   
    15    7   10 ar  
    16    7   12 ar  
    17    7   69 1   
    18    8    9 ar  
    19    8   14 1   
    20    9   16 1   
    21   10   19 1   
    22   11   12 ar  
    23   11   34 1   
    24   12   33 1   
    25   13   29 1   
    26   13   32 1   
    27   13   67 1   
    28   14   17 1   
    29   14   41 1   
    30   14   42 1   
    31   15   18 1   
    32   15   33 1   
    33   15   52 1   
    34   15   53 1   
    35   16   17 1   
    36   16   19 1   
    37   16   43 1   
    38   17   26 1   
    39   17   51 1   
    40   18   21 1   
    41   18   34 1   
    42   18   54 1   
    43   19   44 1   
    44   19   45 1   
    45   20   22 1   
    46   20   46 1   
    47   20   47 1   
    48   20   68 1   
    49   21   55 1   
    50   21   56 1   
    51   21   67 1   
    52   22   23 1   
    53   22   57 1   
    54   22   58 1   
    55   23   24 1   
    56   23   59 1   
    57   23   60 1   
    58   24   25 1   
    59   24   61 1   
    60   24   62 1   
    61   25   27 1   
    62   25   63 1   
    63   25   64 1   
    64   26   48 1   
    65   26   68 1   
    66   27   65 1   
    67   27   66 1   
    68   28   69 1   
    69   30   69 1   
    70   31   68 2   
    71   49   67 1   
    72   50   67 1   
@<TRIPOS>SUBSTRUCTURE
     1 O5U         1 TEMP              0 ****  ****    0 ROOT
