@<TRIPOS>MOLECULE
O5U
   71    74     1     0     0
SMALL
bcc


@<TRIPOS>ATOM
      1 C1         -1.6880   -0.5960   -0.7380 ca        1 O5U     -0.128000
      2 C2         -0.4460    0.0310   -0.8180 ca        1 O5U     -0.129000
      3 C3         -2.1530   -1.1030    0.4810 ca        1 O5U     -0.116000
      4 C4          0.3590    0.1670    0.3190 ca        1 O5U     -0.116000
      5 C5          3.0220    2.1290    2.0430 ca        1 O5U     -0.149000
      6 C6          4.3490    2.5600    2.0030 ca        1 O5U     -0.092000
      7 C7          3.4830    0.7120    3.9480 ca        1 O5U     -0.146600
      8 C8         -1.3560   -0.9700    1.6080 ca        1 O5U     -0.091300
      9 C9         -0.0990   -0.3340    1.5290 ca        1 O5U     -0.086300
     10 C10         2.5620    1.2630    3.0430 ca        1 O5U     -0.035300
     11 C11         5.2460    2.0820    2.9590 ca        1 O5U      0.054100
     12 C12         4.8350    1.0870    3.8750 ca        1 O5U      0.110100
     13 C16        -1.6460   -1.4330    2.9900 c3        1 O5U     -0.047100
     14 C17         7.0070    1.0830    4.8180 c3        1 O5U      0.081400
     15 C18         0.6000   -0.3210    2.8520 c3        1 O5U     -0.039400
     16 C19        -0.4150   -1.0050    3.8460 c3        1 O5U      0.100700
     17 C20         6.9180    2.5640    4.4670 c3        1 O5U      0.091100
     18 C21         1.0940    1.0650    3.2310 c3        1 O5U     -0.030100
     19 C24         8.2090    3.3220    4.6810 c3        1 O5U     -0.051400
     20 C25         0.2550    0.4590    8.5200 c3        1 O5U     -0.075400
     21 C26         1.3190    1.5160    8.2960 c3        1 O5U     -0.085400
     22 C27         2.5040    1.2870    9.2110 c3        1 O5U     -0.101400
     23 C28         3.5510    2.3890    9.0950 c3        1 O5U      0.116800
     24 N29        -0.7940   -0.2370    5.0020 n         1 O5U     -0.564900
     25 N30         4.4820    2.2330    7.9610 n4        1 O5U     -0.879600
     26 O31         2.6110   -1.3790    4.7660 oh        1 O5U     -0.584100
     27 O32         6.3400    4.1080    7.0990 o         1 O5U     -0.863300
     28 O33         3.1840    0.1290    6.2810 o         1 O5U     -0.612000
     29 O35         7.1850    2.1760    7.7100 o         1 O5U     -0.863300
     30 O36         5.6950    0.4950    4.7730 os        1 O5U     -0.320900
     31 O37         6.5080    2.6490    3.0740 os        1 O5U     -0.315900
     32 H1         -2.3090   -0.6970   -1.6400 ha        1 O5U      0.133000
     33 H2         -0.0910    0.4220   -1.7830 ha        1 O5U      0.133000
     34 H3         -3.1320   -1.5990    0.5400 ha        1 O5U      0.134000
     35 H4          1.3410    0.6590    0.2540 ha        1 O5U      0.138000
     36 H5          2.3110    2.5210    1.3000 ha        1 O5U      0.142000
     37 H6          4.6860    3.2920    1.2560 ha        1 O5U      0.158000
     38 H161       -2.6050   -0.9920    3.3640 hc        1 O5U      0.062200
     39 H162       -1.7510   -2.5470    3.0260 hc        1 O5U      0.062200
     40 H18         1.4920   -1.0120    2.7960 hc        1 O5U      0.097700
     41 H211        0.8880    1.2880    4.3130 hc        1 O5U      0.054200
     42 H212        0.5360    1.8330    2.6290 hc        1 O5U      0.054200
     43 H221       -0.9590    1.4520    7.0190 hc        1 O5U      0.065200
     44 H222       -1.7330    0.0040    7.7900 hc        1 O5U      0.065200
     45 H29        -1.3430    0.5750    4.8490 hn        1 O5U      0.309500
     46 H231        9.3100    2.7840    6.4750 hc        1 O5U      0.057700
     47 H232        8.8730    4.5410    6.3450 hc        1 O5U      0.057700
     48 H19         0.1000   -1.9400    4.2260 h1        1 O5U      0.094700
     49 H171        7.3460    0.9260    5.8800 h1        1 O5U      0.097700
     50 H172        7.6580    0.5320    4.0910 h1        1 O5U      0.097700
     51 H20         6.0980    3.0520    5.0770 h1        1 O5U      0.089700
     52 H241        8.1100    4.3250    4.1880 hc        1 O5U      0.054700
     53 H242        9.0560    2.7840    4.1830 hc        1 O5U      0.054700
     54 H251        0.7410   -0.5510    8.6180 hc        1 O5U      0.063700
     55 H252       -0.2780    0.6710    9.4840 hc        1 O5U      0.063700
     56 H261        0.8830    2.5340    8.4780 hc        1 O5U      0.047200
     57 H262        1.6610    1.4810    7.2260 hc        1 O5U      0.047200
     58 H271        2.1550    1.2620   10.2770 hc        1 O5U      0.071700
     59 H272        2.9590    0.2850    8.9790 hc        1 O5U      0.071700
     60 H281        4.1700    2.4210   10.0380 hx        1 O5U      0.082200
     61 H282        3.0370    3.3860    8.9830 hx        1 O5U      0.082200
     62 H301        4.0000    1.8550    7.1410 hn        1 O5U      0.479133
     63 H302        4.9400    3.1570    7.7190 hn        1 O5U      0.479133
     64 C23         8.5040    3.4990    6.1660 c3        1 O5U     -0.165400
     65 C14        -0.3250   -0.5080    6.2720 c         1 O5U      0.664100
     66 H292        2.3290   -1.8410    5.5810 ho        1 O5U      0.473000
     67 H303        5.2720    1.6040    8.1920 hn        1 O5U      0.479133
     68 C13         3.0950   -0.1550    5.0750 c         1 O5U      0.692700
     69 C15         7.2930    3.2590    7.0510 c         1 O5U      0.901600
     70 C22        -0.7630    0.4150    7.3980 c3        1 O5U     -0.145400
     71 O34         0.4020   -1.5030    6.4880 o         1 O5U     -0.632100
@<TRIPOS>BOND
     1    1    2 ar  
     2    1    3 ar  
     3    1   32 1   
     4    2    4 ar  
     5    2   33 1   
     6    3    8 ar  
     7    3   34 1   
     8    4    9 ar  
     9    4   35 1   
    10    5    6 ar  
    11    5   10 ar  
    12    5   36 1   
    13    6   11 ar  
    14    6   37 1   
    15    7   10 ar  
    16    7   12 ar  
    17    7   68 1   
    18    8    9 ar  
    19    8   13 1   
    20    9   15 1   
    21   10   18 1   
    22   11   12 ar  
    23   11   31 1   
    24   12   30 1   
    25   13   16 1   
    26   13   38 1   
    27   13   39 1   
    28   14   17 1   
    29   14   30 1   
    30   14   49 1   
    31   14   50 1   
    32   15   16 1   
    33   15   18 1   
    34   15   40 1   
    35   16   24 1   
    36   16   48 1   
    37   17   19 1   
    38   17   31 1   
    39   17   51 1   
    40   18   41 1   
    41   18   42 1   
    42   19   52 1   
    43   19   53 1   
    44   19   64 1   
    45   20   21 1   
    46   20   54 1   
    47   20   55 1   
    48   20   70 1   
    49   21   22 1   
    50   21   56 1   
    51   21   57 1   
    52   22   23 1   
    53   22   58 1   
    54   22   59 1   
    55   23   25 1   
    56   23   60 1   
    57   23   61 1   
    58   24   45 1   
    59   24   65 1   
    60   25   62 1   
    61   25   63 1   
    62   25   67 1   
    63   26   66 1   
    64   26   68 1   
    65   27   69 1   
    66   28   68 2   
    67   29   69 1   
    68   43   70 1   
    69   44   70 1   
    70   46   64 1   
    71   47   64 1   
    72   64   69 1   
    73   65   70 1   
    74   65   71 2   
@<TRIPOS>SUBSTRUCTURE
     1 O5U         1 TEMP              0 ****  ****    0 ROOT
