@<TRIPOS>MOLECULE
O5U
   69    64     1     0     0
SMALL
bcc


@<TRIPOS>ATOM
      1 C1         -3.1340   -1.9410   -5.1890 c1        1 O5U     -0.136833
      2 C2         -1.7220   -1.9150   -5.2040 c1        1 O5U     -0.136833
      3 C3         -3.8220   -1.8850   -3.9730 c1        1 O5U     -0.136833
      4 C4         -1.0100   -1.8330   -4.0030 c1        1 O5U     -0.136833
      5 C5          1.8230   -1.5860   -0.8370 c1        1 O5U     -0.136833
      6 C6          3.2040   -1.6610   -1.1340 c1        1 O5U     -0.136833
      7 C7          1.5600    0.2850   -2.4380 c1        1 O5U     -0.068000
      8 C8         -3.1180   -1.8030   -2.7790 c1        1 O5U     -0.102000
      9 C9         -1.6910   -1.7760   -2.7950 c1        1 O5U     -0.078000
     10 C10         0.9940   -0.6050   -1.4940 c1        1 O5U     -0.092000
     11 C11         3.7610   -0.7950   -2.0530 c1        1 O5U      0.016000
     12 C12         2.9060    0.2160   -2.7310 c1        1 O5U      0.026000
     13 C13         1.1580    1.6580   -2.9200 c2        1 O5U      0.373000
     14 C14        -2.7230   -0.7950    1.7890 c1        1 O5U      0.299000
     15 C15         7.3190    2.6670   -0.0360 c1        1 O5U      0.325000
     16 C16        -3.5800   -1.8310   -1.3040 c3        1 O5U     -0.129000
     17 C17         4.8500    0.9880   -3.9100 c3        1 O5U     -0.052000
     18 C18        -1.1980   -1.7320   -1.3290 c3        1 O5U     -0.074000
     19 C19        -2.3770   -1.8060   -0.4490 c3        1 O5U      0.022000
     20 C20         5.6760    0.4560   -2.8000 c3        1 O5U     -0.021000
     21 C21        -0.4550   -0.4430   -1.0800 c3        1 O5U     -0.114000
     22 C22        -2.7110    0.4080    2.7010 c2        1 O5U     -0.185000
     23 C23         7.1690    1.5360   -1.0290 c2        1 O5U     -0.221000
     24 C24         5.8060    1.6140   -1.6810 c3        1 O5U     -0.145000
     25 C25        -3.5780    0.1320    3.9100 c3        1 O5U     -0.150000
     26 C26        -3.1580    1.0370    5.0480 c3        1 O5U     -0.156000
     27 C27        -4.1140    0.8630    6.2090 c3        1 O5U     -0.197000
     28 C28        -3.5090    1.4740    7.4570 c3        1 O5U     -0.092000
     29 N29        -2.4160   -0.6440    0.4170 n3        1 O5U     -0.356000
     30 N30        -4.4560    1.4140    8.5240 n3        1 O5U     -0.338000
     31 O31         0.6590    1.8010   -4.0650 o         1 O5U     -0.568000
     32 O32         7.9780    3.6930   -0.3460 o         1 O5U     -0.596500
     33 O33         1.3110    2.6580   -2.1700 o         1 O5U     -0.568000
     34 O34        -2.9550   -1.8970    2.2410 o         1 O5U     -0.404000
     35 O35         6.7400    2.6040    1.0810 o         1 O5U     -0.596500
     36 O36         3.5840    1.1900   -3.6560 os        1 O5U     -0.180000
     37 O37         5.2260   -0.6530   -2.1940 os        1 O5U     -0.211000
     38 H1         -3.6300   -1.9990   -6.0280 ha        1 O5U      0.132333
     39 H2         -1.2420   -1.9770   -6.0520 ha        1 O5U      0.132333
     40 H3         -4.7980   -1.9030   -3.9630 ha        1 O5U      0.132333
     41 H4         -0.0340   -1.8580   -4.0110 ha        1 O5U      0.132333
     42 H5          1.4300   -2.1990   -0.1870 ha        1 O5U      0.132333
     43 H6          3.7630   -2.3250   -0.6890 ha        1 O5U      0.132333
     44 H161       -4.0900   -2.6480   -1.1330 hc        1 O5U      0.086000
     45 H162       -4.1360   -1.0480   -1.1160 hc        1 O5U      0.086000
     46 H18        -0.6090   -2.4910   -1.1560 hc        1 O5U      0.107000
     47 H211       -0.8650    0.2760   -1.6020 hc        1 O5U      0.104000
     48 H212       -0.4990   -0.2200   -0.1280 hc        1 O5U      0.104000
     49 H221       -3.0600    1.1860    2.2200 ha        1 O5U      0.107000
     50 H222       -1.7940    0.5880    2.9910 ha        1 O5U      0.107000
     51 H29        -2.2640    0.1870    0.0730 hn        1 O5U      0.240000
     52 H231        7.8620    1.6100   -1.7140 ha        1 O5U      0.066500
     53 H232        7.2590    0.6800   -0.5650 ha        1 O5U      0.066500
     54 H19        -2.3380   -2.6200    0.0900 h1        1 O5U      0.111000
     55 H171        5.2410    1.8410   -4.1950 h1        1 O5U      0.094000
     56 H172        4.9110    0.3600   -4.6600 h1        1 O5U      0.094000
     57 H20         6.5700    0.2680   -3.1510 h1        1 O5U      0.183000
     58 H241        5.1120    1.4910   -1.0020 hc        1 O5U      0.075500
     59 H242        5.6960    2.4900   -2.1030 hc        1 O5U      0.075500
     60 H251       -4.5140    0.3040    3.6850 hc        1 O5U      0.094000
     61 H252       -3.4730   -0.8020    4.1800 hc        1 O5U      0.094000
     62 H261       -2.2530    0.8020    5.3340 hc        1 O5U      0.081000
     63 H262       -3.1750    1.9670    4.7480 hc        1 O5U      0.081000
     64 H271       -4.9600    1.3100    6.0050 hc        1 O5U      0.078000
     65 H272       -4.2770   -0.0900    6.3580 hc        1 O5U      0.078000
     66 H281       -3.2720    2.4080    7.2820 h1        1 O5U      0.090500
     67 H282       -2.7040    0.9740    7.7080 h1        1 O5U      0.090500
     68 H301       -5.2400    1.8070    8.2580 hn        1 O5U      0.134000
     69 H302       -4.6130    0.5390    8.7450 hn        1 O5U      0.134000
@<TRIPOS>BOND
     1    1    3 1   
     2    1   38 1   
     3    2    4 1   
     4    2   39 1   
     5    3   40 1   
     6    4   41 1   
     7    5    6 1   
     8    5   42 1   
     9    6   43 1   
    10    7   10 1   
    11    7   13 1   
    12    8    9 1   
    13    8   16 1   
    14    9   18 1   
    15   10   21 1   
    16   11   12 1   
    17   11   37 1   
    18   12   36 1   
    19   13   31 1   
    20   13   33 1   
    21   14   29 1   
    22   14   34 1   
    23   15   32 1   
    24   15   35 1   
    25   16   19 1   
    26   16   44 1   
    27   16   45 1   
    28   17   20 1   
    29   17   36 1   
    30   17   55 1   
    31   17   56 1   
    32   18   19 1   
    33   18   21 1   
    34   18   46 1   
    35   19   29 1   
    36   19   54 1   
    37   20   24 1   
    38   20   37 1   
    39   20   57 1   
    40   21   47 1   
    41   21   48 1   
    42   22   25 1   
    43   22   49 1   
    44   22   50 1   
    45   23   24 1   
    46   23   52 1   
    47   23   53 1   
    48   24   58 1   
    49   24   59 1   
    50   25   26 1   
    51   25   60 1   
    52   25   61 1   
    53   26   27 1   
    54   26   62 1   
    55   26   63 1   
    56   27   28 1   
    57   27   64 1   
    58   27   65 1   
    59   28   30 1   
    60   28   66 1   
    61   28   67 1   
    62   29   51 1   
    63   30   68 1   
    64   30   69 1   
@<TRIPOS>SUBSTRUCTURE
     1 O5U         1 TEMP              0 ****  ****    0 ROOT
