@<TRIPOS>MOLECULE
O60
   46    45     1     0     0
SMALL
bcc


@<TRIPOS>ATOM
      1 C1         -0.3360    0.4850    0.7110 c3        1 O60      0.189400
      2 N1         -3.1670    0.1760   -1.8750 nz        1 O60     -0.804500
      3 O1         -1.6210   -1.6270   -0.9320 o         1 O60     -0.558800
      4 S1         -1.4300   -0.4500   -1.5880 s6        1 O60      1.638400
      5 C2          1.1630    0.4490    0.4940 c3        1 O60     -0.123400
      6 N2         12.8560    0.1800    7.6460 nz        1 O60     -0.804500
      7 O2         -0.8380   -0.2360   -2.7920 o         1 O60     -0.558800
      8 S2         11.1070   -0.4210    7.3800 s6        1 O60      1.638400
      9 C3          1.8760    0.4400    1.8320 c3        1 O60     -0.076400
     10 O3         -1.0100    0.6950   -0.5420 os        1 O60     -0.592500
     11 C4          3.3780    0.4090    1.6410 c3        1 O60     -0.078400
     12 O4         10.7100    0.6940    6.2940 os        1 O60     -0.592500
     13 C5          4.0960    0.4190    2.9750 c3        1 O60     -0.079400
     14 O5         11.2740   -1.6240    6.7660 o         1 O60     -0.558800
     15 C6          5.5990    0.4000    2.7870 c3        1 O60     -0.079400
     16 O6         10.5200   -0.1520    8.5750 o         1 O60     -0.558800
     17 C7          6.3160    0.4220    4.1200 c3        1 O60     -0.078400
     18 C8          7.8190    0.4160    3.9290 c3        1 O60     -0.076400
     19 C9          8.5330    0.4570    5.2660 c3        1 O60     -0.123400
     20 C10        10.0320    0.4550    5.0480 c3        1 O60      0.189400
     21 H1         -0.6470    1.3830    1.3160 h1        1 O60      0.092200
     22 H1A        -0.7240   -0.4590    1.1790 h1        1 O60      0.092200
     23 HN1        -3.3260    0.3880   -2.8630 hn        1 O60      0.476133
     24 HN1A       -3.3460    1.0360   -1.3520 hn        1 O60      0.476133
     25 H2          1.4790    1.3470   -0.1000 hc        1 O60      0.065700
     26 H2A         1.4490   -0.4630   -0.0920 hc        1 O60      0.065700
     27 HN2        13.5440   -0.5280    7.3830 hn        1 O60      0.476133
     28 HN2A       13.0530    1.0170    7.0930 hn        1 O60      0.476133
     29 H3          1.5530   -0.4550    2.4280 hc        1 O60      0.054200
     30 H3A         1.5910    1.3540    2.4180 hc        1 O60      0.054200
     31 H4          3.6990    1.2970    1.0350 hc        1 O60      0.049200
     32 H4A         3.6670   -0.5090    1.0650 hc        1 O60      0.049200
     33 H5          3.7810   -0.4730    3.5790 hc        1 O60      0.047200
     34 H5A         3.8010    1.3330    3.5550 hc        1 O60      0.047200
     35 H6          5.8950   -0.5180    2.2150 hc        1 O60      0.047200
     36 H6A         5.9120    1.2880    2.1760 hc        1 O60      0.047200
     37 H7          6.0140    1.3370    4.6950 hc        1 O60      0.049200
     38 H7A         6.0090   -0.4690    4.7280 hc        1 O60      0.049200
     39 H8          8.1230    1.3030    3.3120 hc        1 O60      0.054200
     40 H8A         8.1230   -0.5050    3.3650 hc        1 O60      0.054200
     41 H9          8.2280   -0.4280    5.8840 hc        1 O60      0.065700
     42 H9A         8.2350    1.3820    5.8290 hc        1 O60      0.065700
     43 H10        10.4000   -0.5130    4.6150 h1        1 O60      0.092200
     44 H10A       10.3620    1.3240    4.4130 h1        1 O60      0.092200
     45 H13        -3.8690   -0.5080   -1.5870 hn        1 O60      0.476133
     46 H23        13.0200    0.4220    8.6260 hn        1 O60      0.476133
@<TRIPOS>BOND
     1    1    5 1   
     2    1   10 1   
     3    1   21 1   
     4    1   22 1   
     5    2    4 1   
     6    2   23 1   
     7    2   24 1   
     8    2   45 1   
     9    3    4 2   
    10    4    7 2   
    11    4   10 1   
    12    5    9 1   
    13    5   25 1   
    14    5   26 1   
    15    6    8 1   
    16    6   27 1   
    17    6   28 1   
    18    6   46 1   
    19    8   12 1   
    20    8   14 2   
    21    8   16 2   
    22    9   11 1   
    23    9   29 1   
    24    9   30 1   
    25   11   13 1   
    26   11   31 1   
    27   11   32 1   
    28   12   20 1   
    29   13   15 1   
    30   13   33 1   
    31   13   34 1   
    32   15   17 1   
    33   15   35 1   
    34   15   36 1   
    35   17   18 1   
    36   17   37 1   
    37   17   38 1   
    38   18   19 1   
    39   18   39 1   
    40   18   40 1   
    41   19   20 1   
    42   19   41 1   
    43   19   42 1   
    44   20   43 1   
    45   20   44 1   
@<TRIPOS>SUBSTRUCTURE
     1 O60         1 TEMP              0 ****  ****    0 ROOT
