@<TRIPOS>MOLECULE
O60
   46    45     1     0     0
SMALL
bcc


@<TRIPOS>ATOM
      1 C1         -0.3530    0.4690    0.7500 c3        1 O60      0.189400
      2 N1         -3.1980    0.1780   -1.8220 n4        1 O60     -0.804500
      3 O1         -1.6270   -1.6260   -0.9230 o         1 O60     -0.558800
      4 S1         -1.4530   -0.4350   -1.5580 s6        1 O60      1.638400
      5 C2          1.1450    0.4540    0.5230 c3        1 O60     -0.123400
      6 N2         12.8890    0.1770    7.5890 n4        1 O60     -0.804500
      7 O2         -0.8720   -0.1920   -2.7620 o         1 O60     -0.558800
      8 S2         11.1460   -0.4400    7.3210 s6        1 O60      1.638400
      9 C3          1.8670    0.4260    1.8550 c3        1 O60     -0.076400
     10 O3         -1.0370    0.6940   -0.4940 os        1 O60     -0.592500
     11 C4          3.3690    0.4170    1.6540 c3        1 O60     -0.078400
     12 O4         10.7270    0.6950    6.2650 os        1 O60     -0.592500
     13 C5          4.0950    0.4070    2.9830 c3        1 O60     -0.079400
     14 O5         11.3250   -1.6260    6.6780 o         1 O60     -0.558800
     15 C6          5.5960    0.4120    2.7840 c3        1 O60     -0.079400
     16 O6         10.5650   -0.2080    8.5270 o         1 O60     -0.558800
     17 C7          6.3230    0.4140    4.1140 c3        1 O60     -0.078400
     18 C8          7.8240    0.4320    3.9130 c3        1 O60     -0.076400
     19 C9          8.5460    0.4520    5.2460 c3        1 O60     -0.123400
     20 C10        10.0440    0.4760    5.0190 c3        1 O60      0.189400
     21 H1         -0.6700    1.3510    1.3740 h1        1 O60      0.091950
     22 H1A        -0.7270   -0.4890    1.2020 h1        1 O60      0.091950
     23 HN1        -3.3670    0.4050   -2.8050 hn        1 O60      0.476133
     24 HN1A       -3.8910   -0.5190   -1.5420 hn        1 O60      0.476133
     25 H2          1.4370   -0.4430   -0.0840 hc        1 O60      0.065700
     26 H2A         1.4470    1.3680   -0.0560 hc        1 O60      0.065700
     27 HN2        13.0710    1.0300    7.0550 hn        1 O60      0.476133
     28 HN2A       13.5850   -0.5150    7.3050 hn        1 O60      0.476133
     29 H3          1.5590   -0.4850    2.4340 hc        1 O60      0.054200
     30 H3A         1.5750    1.3240    2.4620 hc        1 O60      0.054200
     31 H4          3.6750    1.3220    1.0650 hc        1 O60      0.049200
     32 H4A         3.6640   -0.4850    1.0560 hc        1 O60      0.049200
     33 H5          3.7960   -0.5020    3.5690 hc        1 O60      0.047200
     34 H5A         3.7920    1.3050    3.5840 hc        1 O60      0.047200
     35 H6          5.8940    1.3170    2.1920 hc        1 O60      0.047200
     36 H6A         5.9010   -0.4900    2.1900 hc        1 O60      0.047200
     37 H7          6.0320   -0.4960    4.7030 hc        1 O60      0.049200
     38 H7A         6.0120    1.3110    4.7110 hc        1 O60      0.049200
     39 H8          8.1110    1.3370    3.3140 hc        1 O60      0.054200
     40 H8A         8.1370   -0.4720    3.3260 hc        1 O60      0.054200
     41 H9          8.2580   -0.4510    5.8450 hc        1 O60      0.065700
     42 H9A         8.2390    1.3600    5.8320 hc        1 O60      0.065700
     43 H10        10.4220   -0.4760    4.5590 h1        1 O60      0.091950
     44 H10A       10.3570    1.3650    4.4020 h1        1 O60      0.091950
     45 H13        -3.3830    1.0260   -1.2820 hn        1 O60      0.476133
     46 H23        13.0570    0.3990    8.5740 hn        1 O60      0.476133
@<TRIPOS>BOND
     1    1    5 1   
     2    1   10 1   
     3    1   21 1   
     4    1   22 1   
     5    2    4 1   
     6    2   23 1   
     7    2   24 1   
     8    2   45 1   
     9    3    4 2   
    10    4    7 2   
    11    4   10 1   
    12    5    9 1   
    13    5   25 1   
    14    5   26 1   
    15    6    8 1   
    16    6   27 1   
    17    6   28 1   
    18    6   46 1   
    19    8   12 1   
    20    8   14 2   
    21    8   16 2   
    22    9   11 1   
    23    9   29 1   
    24    9   30 1   
    25   11   13 1   
    26   11   31 1   
    27   11   32 1   
    28   12   20 1   
    29   13   15 1   
    30   13   33 1   
    31   13   34 1   
    32   15   17 1   
    33   15   35 1   
    34   15   36 1   
    35   17   18 1   
    36   17   37 1   
    37   17   38 1   
    38   18   19 1   
    39   18   39 1   
    40   18   40 1   
    41   19   20 1   
    42   19   41 1   
    43   19   42 1   
    44   20   43 1   
    45   20   44 1   
@<TRIPOS>SUBSTRUCTURE
     1 O60         1 TEMP              0 ****  ****    0 ROOT
