@<TRIPOS>MOLECULE
O60
   44    43     1     0     0
SMALL
bcc


@<TRIPOS>ATOM
      1 C1          5.6170   -0.3830   -0.2350 c3        1 O60      0.185400
      2 N1          9.0750   -0.5880   -0.5180 n3        1 O60     -1.037700
      3 O1          7.7940   -0.6190    1.5770 o         1 O60     -0.654300
      4 S1          8.1660    0.2030    0.5160 s6        1 O60      1.718400
      5 C2          4.3640    0.4770   -0.2450 c3        1 O60     -0.089400
      6 N2         -9.0750    0.5990   -0.5050 n3        1 O60     -1.037700
      7 O2          8.6340    1.4920    0.7260 o         1 O60     -0.654300
      8 S2         -8.1660   -0.2150    0.5110 s6        1 O60      1.718400
      9 C3          3.1270   -0.3940   -0.2350 c3        1 O60     -0.079400
     10 O3          6.7350    0.4710   -0.3200 os        1 O60     -0.584500
     11 C4          1.8690    0.4490   -0.2350 c3        1 O60     -0.078400
     12 O4         -6.7350   -0.4640   -0.3300 os        1 O60     -0.584500
     13 C5          0.6290   -0.4190   -0.2380 c3        1 O60     -0.079400
     14 O5         -7.7940    0.5830    1.5910 o         1 O60     -0.654300
     15 C6         -0.6290    0.4240   -0.2290 c3        1 O60     -0.079400
     16 O6         -8.6350   -1.5080    0.6930 o         1 O60     -0.654300
     17 C7         -1.8690   -0.4440   -0.2450 c3        1 O60     -0.078400
     18 C8         -3.1270    0.3990   -0.2260 c3        1 O60     -0.079400
     19 C9         -4.3640   -0.4720   -0.2560 c3        1 O60     -0.089400
     20 C10        -5.6170    0.3880   -0.2260 c3        1 O60      0.185400
     21 H1          5.6660   -1.0000    0.7040 h1        1 O60      0.040200
     22 H1A         5.6380   -1.0620   -1.1320 h1        1 O60      0.040200
     23 HN1         9.6260   -0.1480   -1.2140 hn        1 O60      0.455300
     24 HN1A        9.1370   -1.5750   -0.5590 hn        1 O60      0.455300
     25 H2          4.3710    1.1530    0.6490 hc        1 O60      0.057700
     26 H2A         4.3730    1.1320   -1.1550 hc        1 O60      0.057700
     27 HN2        -9.6260    0.1750   -1.2100 hn        1 O60      0.455300
     28 HN2A       -9.1370    1.5870   -0.5240 hn        1 O60      0.455300
     29 H3          3.1300   -1.0650   -1.1350 hc        1 O60      0.040700
     30 H3A         3.1370   -1.0550    0.6720 hc        1 O60      0.040700
     31 H4          1.8630    1.1130    0.6700 hc        1 O60      0.042700
     32 H4A         1.8640    1.1170   -1.1360 hc        1 O60      0.042700
     33 H5          0.6330   -1.0780   -1.1460 hc        1 O60      0.040700
     34 H5A         0.6370   -1.0910    0.6600 hc        1 O60      0.040700
     35 H6         -0.6370    1.0760    0.6840 hc        1 O60      0.040700
     36 H6A        -0.6330    1.1030   -1.1210 hc        1 O60      0.040700
     37 H7         -1.8640   -1.0920   -1.1600 hc        1 O60      0.042700
     38 H7A        -1.8630   -1.1280    0.6450 hc        1 O60      0.042700
     39 H8         -3.1370    1.0390    0.6950 hc        1 O60      0.040700
     40 H8A        -3.1300    1.0900   -1.1110 hc        1 O60      0.040700
     41 H9         -4.3730   -1.1060   -1.1800 hc        1 O60      0.057700
     42 H9A        -4.3710   -1.1680    0.6230 hc        1 O60      0.057700
     43 H10        -5.6380    1.0870   -1.1080 h1        1 O60      0.040200
     44 H10A       -5.6660    0.9840    0.7260 h1        1 O60      0.040200
@<TRIPOS>BOND
     1    1    5 1   
     2    1   10 1   
     3    1   21 1   
     4    1   22 1   
     5    2    4 1   
     6    2   23 1   
     7    2   24 1   
     8    3    4 2   
     9    4    7 2   
    10    4   10 1   
    11    5    9 1   
    12    5   25 1   
    13    5   26 1   
    14    6    8 1   
    15    6   27 1   
    16    6   28 1   
    17    8   12 1   
    18    8   14 2   
    19    8   16 2   
    20    9   11 1   
    21    9   29 1   
    22    9   30 1   
    23   11   13 1   
    24   11   31 1   
    25   11   32 1   
    26   12   20 1   
    27   13   15 1   
    28   13   33 1   
    29   13   34 1   
    30   15   17 1   
    31   15   35 1   
    32   15   36 1   
    33   17   18 1   
    34   17   37 1   
    35   17   38 1   
    36   18   19 1   
    37   18   39 1   
    38   18   40 1   
    39   19   20 1   
    40   19   41 1   
    41   19   42 1   
    42   20   43 1   
    43   20   44 1   
@<TRIPOS>SUBSTRUCTURE
     1 O60         1 TEMP              0 ****  ****    0 ROOT
