@<TRIPOS>MOLECULE
O60
   44    41     1     0     0
SMALL
bcc


@<TRIPOS>ATOM
      1 C1         -4.8180    0.1570   -2.9250 c3        1 O60      0.031000
      2 N1         -7.3030    0.2640   -6.0250 n3        1 O60     -0.948000
      3 O1         -7.5690    0.9100   -3.4970 o         1 O60     -0.553400
      4 S1         -6.8640   -0.0270   -4.4390 s4        1 O60      2.043800
      5 C2         -3.2910    0.1150   -2.9370 c3        1 O60     -0.160000
      6 N2          7.3370    0.1170    5.9120 n3        1 O60     -0.948000
      7 O2         -7.3810   -1.3630   -3.9640 o         1 O60     -0.553400
      8 S2          6.7270   -0.5850    4.5710 s4        1 O60      2.043800
      9 C3         -2.7620    0.2360   -1.4890 c3        1 O60     -0.159000
     10 O3         -5.3130    0.0690   -4.2790 o         1 O60     -0.728000
     11 C4         -1.2640    0.0460   -1.4820 c3        1 O60     -0.156000
     12 O4          5.4000    0.0760    4.1830 o         1 O60     -0.728000
     13 C5         -0.7140    0.3110   -0.0570 c3        1 O60     -0.158000
     14 O5          7.7320   -0.5400    3.4150 o         1 O60     -0.553400
     15 C6          0.7760   -0.0030   -0.0240 c3        1 O60     -0.158000
     16 O6          6.5620   -2.0830    4.7600 o         1 O60     -0.553400
     17 C7          1.3400    0.2800    1.4150 c3        1 O60     -0.156000
     18 C8          2.8130   -0.1770    1.4910 c3        1 O60     -0.159000
     19 C9          3.3850    0.1690    2.8690 c3        1 O60     -0.160000
     20 C10         4.7780   -0.4230    3.0020 c3        1 O60      0.031000
     21 H1         -5.1620   -0.5990   -2.4000 h1        1 O60      0.081000
     22 H1A        -5.1160    0.9930   -2.5250 h1        1 O60      0.081000
     23 HN1        -7.7480    1.0310   -6.2400 hn        1 O60      0.254000
     24 HN1A       -7.1860   -0.3920   -6.6630 hn        1 O60      0.254000
     25 H2         -2.9490    0.8570   -3.4740 hc        1 O60      0.094000
     26 H2A        -2.9920   -0.7300   -3.3230 hc        1 O60      0.094000
     27 HN2         7.0910   -0.1830    6.7310 hn        1 O60      0.254000
     28 HN2A        7.8760    0.8590    5.8380 hn        1 O60      0.254000
     29 H3         -3.1830   -0.4580   -0.9270 hc        1 O60      0.081000
     30 H3A        -2.9810    1.1250   -1.1320 hc        1 O60      0.081000
     31 H4         -0.8470    0.6820   -2.1210 hc        1 O60      0.081000
     32 H4A        -1.0480   -0.8780   -1.7500 hc        1 O60      0.081000
     33 H5         -0.8550    1.2500    0.1790 hc        1 O60      0.080000
     34 H5A        -1.1840   -0.2630    0.5870 hc        1 O60      0.080000
     35 H6          0.9180   -0.9560   -0.2530 hc        1 O60      0.080000
     36 H6A         1.2390    0.5560   -0.6690 hc        1 O60      0.080000
     37 H7          0.8110   -0.2120    2.0750 hc        1 O60      0.081000
     38 H7A         1.2850    1.2580    1.6080 hc        1 O60      0.081000
     39 H8          2.8630   -1.1520    1.3490 hc        1 O60      0.081000
     40 H8A         3.3300    0.2770    0.8020 hc        1 O60      0.081000
     41 H9          3.4330    1.1460    2.9670 hc        1 O60      0.094000
     42 H9A         2.8080   -0.1990    3.5610 hc        1 O60      0.094000
     43 H10         5.3100   -0.1770    2.2270 h1        1 O60      0.081000
     44 H10A        4.7140   -1.3850    3.0550 h1        1 O60      0.081000
@<TRIPOS>BOND
     1    1    5 1   
     2    1   10 1   
     3    1   21 1   
     4    1   22 1   
     5    2    4 1   
     6    2   23 1   
     7    2   24 1   
     8    3    4 1   
     9    4    7 1   
    10    5    9 1   
    11    5   25 1   
    12    5   26 1   
    13    6    8 1   
    14    6   27 1   
    15    6   28 1   
    16    8   14 1   
    17    8   16 1   
    18    9   11 1   
    19    9   29 1   
    20    9   30 1   
    21   11   13 1   
    22   11   31 1   
    23   11   32 1   
    24   12   20 1   
    25   13   15 1   
    26   13   33 1   
    27   13   34 1   
    28   15   17 1   
    29   15   35 1   
    30   15   36 1   
    31   17   18 1   
    32   17   37 1   
    33   17   38 1   
    34   18   19 1   
    35   18   39 1   
    36   18   40 1   
    37   19   20 1   
    38   19   41 1   
    39   19   42 1   
    40   20   43 1   
    41   20   44 1   
@<TRIPOS>SUBSTRUCTURE
     1 O60         1 TEMP              0 ****  ****    0 ROOT
