@<TRIPOS>MOLECULE
O60
   46    45     1     0     0
SMALL
bcc


@<TRIPOS>ATOM
      1 C1         -0.3460    0.4680    0.7340 c3        1 O60      0.189400
      2 N1         -3.1820    0.1800   -1.8490 n4        1 O60     -0.804500
      3 O1         -1.6130   -1.6250   -0.9480 o         1 O60     -0.558800
      4 S1         -1.4370   -0.4330   -1.5810 s6        1 O60      1.638400
      5 C2          1.1520    0.4530    0.5110 c3        1 O60     -0.123400
      6 N2         12.8740    0.1800    7.6160 n4        1 O60     -0.804500
      7 O2         -0.8520   -0.1870   -2.7820 o         1 O60     -0.558800
      8 S2         11.1300   -0.4340    7.3460 s6        1 O60      1.638400
      9 C3          1.8700    0.4250    1.8460 c3        1 O60     -0.076400
     10 O3         -1.0260    0.6950   -0.5130 os        1 O60     -0.592500
     11 C4          3.3730    0.4150    1.6490 c3        1 O60     -0.078400
     12 O4         10.7170    0.6960    6.2820 os        1 O60     -0.592500
     13 C5          4.0950    0.4070    2.9810 c3        1 O60     -0.079400
     14 O5         11.3080   -1.6240    6.7100 o         1 O60     -0.558800
     15 C6          5.5970    0.4090    2.7870 c3        1 O60     -0.079400
     16 O6         10.5440   -0.1940    8.5480 o         1 O60     -0.558800
     17 C7          6.3190    0.4140    4.1180 c3        1 O60     -0.078400
     18 C8          7.8210    0.4280    3.9220 c3        1 O60     -0.076400
     19 C9          8.5390    0.4530    5.2570 c3        1 O60     -0.123400
     20 C10        10.0370    0.4710    5.0350 c3        1 O60      0.189400
     21 H1         -0.6650    1.3500    1.3570 h1        1 O60      0.092200
     22 H1A        -0.7220   -0.4900    1.1830 h1        1 O60      0.092200
     23 HN1        -3.3470    0.4090   -2.8320 hn        1 O60      0.476133
     24 HN1A       -3.3690    1.0270   -1.3080 hn        1 O60      0.476133
     25 H2          1.4570    1.3660   -0.0670 hc        1 O60      0.065700
     26 H2A         1.4470   -0.4440   -0.0950 hc        1 O60      0.065700
     27 HN2        13.5690   -0.5150    7.3380 hn        1 O60      0.476133
     28 HN2A       13.0590    1.0300    7.0780 hn        1 O60      0.476133
     29 H3          1.5600   -0.4840    2.4250 hc        1 O60      0.054200
     30 H3A         1.5770    1.3250    2.4500 hc        1 O60      0.054200
     31 H4          3.6810    1.3180    1.0590 hc        1 O60      0.049200
     32 H4A         3.6690   -0.4890    1.0550 hc        1 O60      0.049200
     33 H5          3.7920   -0.5000    3.5680 hc        1 O60      0.047200
     34 H5A         3.7920    1.3070    3.5790 hc        1 O60      0.047200
     35 H6          5.9010   -0.4950    2.1960 hc        1 O60      0.047200
     36 H6A         5.8980    1.3110    2.1920 hc        1 O60      0.047200
     37 H7          6.0080    1.3150    4.7110 hc        1 O60      0.049200
     38 H7A         6.0240   -0.4920    4.7100 hc        1 O60      0.049200
     39 H8          8.1120    1.3300    3.3200 hc        1 O60      0.054200
     40 H8A         8.1330   -0.4790    3.3410 hc        1 O60      0.054200
     41 H9          8.2460   -0.4470    5.8600 hc        1 O60      0.065700
     42 H9A         8.2330    1.3640    5.8380 hc        1 O60      0.065700
     43 H10        10.4140   -0.4850    4.5820 h1        1 O60      0.092200
     44 H10A       10.3550    1.3560    4.4140 h1        1 O60      0.092200
     45 H13        -3.8760   -0.5180   -1.5730 hn        1 O60      0.476133
     46 H23        13.0380    0.4070    8.6000 hn        1 O60      0.476133
@<TRIPOS>BOND
     1    1    5 1   
     2    1   10 1   
     3    1   21 1   
     4    1   22 1   
     5    2    4 1   
     6    2   23 1   
     7    2   24 1   
     8    2   45 1   
     9    3    4 2   
    10    4    7 2   
    11    4   10 1   
    12    5    9 1   
    13    5   25 1   
    14    5   26 1   
    15    6    8 1   
    16    6   27 1   
    17    6   28 1   
    18    6   46 1   
    19    8   12 1   
    20    8   14 2   
    21    8   16 2   
    22    9   11 1   
    23    9   29 1   
    24    9   30 1   
    25   11   13 1   
    26   11   31 1   
    27   11   32 1   
    28   12   20 1   
    29   13   15 1   
    30   13   33 1   
    31   13   34 1   
    32   15   17 1   
    33   15   35 1   
    34   15   36 1   
    35   17   18 1   
    36   17   37 1   
    37   17   38 1   
    38   18   19 1   
    39   18   39 1   
    40   18   40 1   
    41   19   20 1   
    42   19   41 1   
    43   19   42 1   
    44   20   43 1   
    45   20   44 1   
@<TRIPOS>SUBSTRUCTURE
     1 O60         1 TEMP              0 ****  ****    0 ROOT
