@<TRIPOS>MOLECULE
O61
   63    57     1     0     0
SMALL
bcc


@<TRIPOS>ATOM
      1 C20         1.9400   -1.0870   -1.2060 c1        1 O61      0.355000
      2 C21         3.3790   -0.8920   -0.7200 c2        1 O61     -0.145000
      3 O22         1.5630   -0.5400   -2.2230 o         1 O61     -0.384000
      4 C23         3.9260   -1.5180    0.4390 c2        1 O61     -0.068000
      5 C24         5.3200   -1.5470    0.6330 c1        1 O61     -0.177000
      6 C25         4.2320   -0.3030   -1.6720 c1        1 O61     -0.023000
      7 C26         5.6010   -0.3300   -1.4850 c1        1 O61     -0.306000
      8 C27         6.1610   -0.9700   -0.3000 c1        1 O61      0.109000
      9 N28         7.7740   -1.1190   -0.2030 n         1 O61     -0.327000
     10 C29         8.5690   -0.7990   -1.3950 c2        1 O61      0.318000
     11 C30         8.1980    0.3930   -2.1870 c3        1 O61     -0.339000
     12 S31         6.6800    0.3720   -2.5850 ss        1 O61      0.292000
     13 O32         9.6430   -1.3320   -1.5690 o         1 O61     -0.327000
     14 N19         1.0470   -1.9460   -0.4790 n2        1 O61     -0.365000
     15 C17        -0.3570   -1.7000   -0.5060 c3        1 O61      0.015000
     16 C16        -0.7580   -0.9280    0.7350 c1        1 O61      0.285000
     17 O39        -0.2820   -1.2250    1.8160 o         1 O61     -0.379000
     18 C18        -1.1010   -3.0200   -0.5430 c3        1 O61     -0.130000
     19 C33        -1.5220   -3.3300   -1.9900 c2        1 O61     -0.084000
     20 C34        -0.9760   -4.4220   -2.6490 c2        1 O61     -0.133000
     21 C38        -2.5530   -2.6080   -2.5810 c1        1 O61     -0.122000
     22 C35        -1.4590   -4.7940   -3.9000 c1        1 O61     -0.126000
     23 C37        -3.0350   -2.9800   -3.8320 c1        1 O61     -0.125000
     24 C36        -2.4880   -4.0720   -4.4900 c1        1 O61     -0.125000
     25 C1         -4.7560    4.4190    3.8170 c1        1 O61     -0.096000
     26 C2         -5.4870    3.4810    4.5340 c1        1 O61     -0.123000
     27 C3         -5.3350    2.1270    4.2640 c1        1 O61     -0.047000
     28 C4         -4.4510    1.7100    3.2770 c1        1 O61     -0.120000
     29 C5         -3.7210    2.6440    2.5620 c1        1 O61     -0.042000
     30 C6         -3.8740    4.0040    2.8330 c2        1 O61      0.037000
     31 CL7        -6.2110    0.9490    5.2010 cl        1 O61      0.006000
     32 N8         -3.1960    4.9780    2.0220 n3        1 O61     -0.149000
     33 C9         -3.7390    5.6750    1.0090 c1        1 O61     -0.096000
     34 N10        -2.8360    6.5860    0.5990 n2        1 O61     -0.110000
     35 N11        -1.7350    6.4520    1.3580 n2        1 O61     -0.049000
     36 N12        -1.9560    5.4580    2.2390 n2        1 O61     -0.007000
     37 C13        -2.8090    2.1920    1.4250 c2        1 O61     -0.158000
     38 C14        -2.1200    0.8580    1.8140 c3        1 O61     -0.023000
     39 N15        -1.6250    0.2060    0.6230 n2        1 O61     -0.370000
     40 H23         3.3310   -1.8800    1.1210 ha        1 O61      0.143000
     41 H24         5.6920   -1.9760    1.4260 ha        1 O61      0.144000
     42 H25         3.8550    0.1800   -2.4290 ha        1 O61      0.170000
     43 HN28        8.1460   -1.5890    0.4780 hn        1 O61      0.251000
     44 H30         8.4550    1.2690   -1.8370 h1        1 O61      0.153000
     45 H30A        8.7350    0.3290   -3.0010 h1        1 O61      0.153000
     46 HN19        1.3850   -2.6060    0.0560 hn        1 O61      0.236000
     47 H17        -0.5810   -1.1770   -1.3010 h1        1 O61      0.126000
     48 H18        -1.8970   -2.9610    0.0240 hc        1 O61      0.117000
     49 H18A       -0.5190   -3.7310   -0.2150 hc        1 O61      0.117000
     50 H34        -0.2520   -4.9310   -2.2350 ha        1 O61      0.129000
     51 H38        -2.9380   -1.8370   -2.1170 ha        1 O61      0.133000
     52 H35        -1.0740   -5.5640   -4.3640 ha        1 O61      0.133000
     53 H37        -3.7610   -2.4710   -4.2480 ha        1 O61      0.134500
     54 H36        -2.8270   -4.3340   -5.3700 ha        1 O61      0.134500
     55 H1         -4.8630    5.3730    4.0080 ha        1 O61      0.160000
     56 H2         -6.1090    3.7740    5.2290 ha        1 O61      0.159000
     57 H4         -4.3450    0.7630    3.0880 ha        1 O61      0.165000
     58 H9         -4.6320    5.5440    0.6360 DU        1 O61      0.226000
     59 H13        -3.3400    2.0600    0.6130 ha        1 O61      0.099500
     60 H13A       -2.1290    2.8750    1.2620 ha        1 O61      0.099500
     61 H14        -2.7700    0.2710    2.2630 h1        1 O61      0.109000
     62 H14A       -1.3710    1.0420    2.4220 h1        1 O61      0.109000
     63 HN15       -1.8390    0.5310   -0.1910 hn        1 O61      0.254000
@<TRIPOS>BOND
     1    1    2 1   
     2    1    3 1   
     3    2    4 1   
     4    2    6 1   
     5    4    5 1   
     6    4   40 1   
     7    5   41 1   
     8    6   42 1   
     9    7    8 1   
    10    7   12 1   
    11    8    9 1   
    12    9   10 1   
    13    9   43 1   
    14   10   11 1   
    15   10   13 1   
    16   11   12 1   
    17   11   44 1   
    18   11   45 1   
    19   14   15 1   
    20   14   46 1   
    21   15   16 1   
    22   15   18 1   
    23   15   47 1   
    24   16   17 1   
    25   18   19 1   
    26   18   48 1   
    27   18   49 1   
    28   19   20 1   
    29   19   21 1   
    30   20   22 1   
    31   20   50 1   
    32   21   51 1   
    33   22   52 1   
    34   23   24 1   
    35   23   53 1   
    36   24   54 1   
    37   25   30 1   
    38   25   55 1   
    39   26   27 1   
    40   26   56 1   
    41   27   31 1   
    42   28   29 1   
    43   28   57 1   
    44   29   30 1   
    45   30   32 1   
    46   32   33 1   
    47   32   36 1   
    48   33   34 1   
    49   34   35 1   
    50   35   36 1   
    51   37   38 1   
    52   37   59 1   
    53   37   60 1   
    54   38   39 1   
    55   38   61 1   
    56   38   62 1   
    57   39   63 1   
@<TRIPOS>SUBSTRUCTURE
     1 O61         1 TEMP              0 ****  ****    0 ROOT
