@<TRIPOS>MOLECULE
O61
   63    67     1     0     0
SMALL
bcc


@<TRIPOS>ATOM
      1 C20        -1.6230   -0.3280    0.1990 c         1 O61      0.681700
      2 C21        -2.8610    0.4590   -0.0510 ca        1 O61     -0.167600
      3 O22        -0.9600   -0.1910    1.2500 o         1 O61     -0.624100
      4 C23        -3.2190    0.9070   -1.3270 ca        1 O61     -0.069000
      5 C24        -4.3760    1.6500   -1.5110 ca        1 O61     -0.177000
      6 C25        -3.6630    0.7810    1.0450 ca        1 O61     -0.024000
      7 C26        -4.8430    1.5100    0.8800 ca        1 O61     -0.079100
      8 C27        -5.2180    1.9520   -0.4130 ca        1 O61      0.101600
      9 N28        -6.3990    2.6640   -0.6250 n         1 O61     -0.473100
     10 C29        -7.1990    3.2170    0.3720 c         1 O61      0.710500
     11 C30        -6.7300    3.1850    1.7990 c3        1 O61     -0.129300
     12 S31        -5.8000    1.7680    2.2510 ss        1 O61     -0.115000
     13 O32        -8.2700    3.7550    0.0400 o         1 O61     -0.601500
     14 N19        -1.2130   -1.2120   -0.7820 n         1 O61     -0.554900
     15 C17        -0.1270   -2.1340   -0.5640 c3        1 O61      0.042700
     16 C16         1.2450   -1.5050   -0.9300 c         1 O61      0.643100
     17 O39         1.9450   -1.9760   -1.8480 o         1 O61     -0.614100
     18 C18        -0.2770   -3.4380   -1.3680 c3        1 O61     -0.044100
     19 C33        -1.5590   -4.1290   -1.0720 ca        1 O61     -0.093300
     20 C34        -2.6250   -4.0580   -1.9770 ca        1 O61     -0.127500
     21 C38        -1.7080   -4.8690    0.1070 ca        1 O61     -0.127500
     22 C35        -3.8230   -4.7160   -1.7040 ca        1 O61     -0.125000
     23 C37        -2.9070   -5.5240    0.3790 ca        1 O61     -0.125000
     24 C36        -3.9670   -5.4490   -0.5260 ca        1 O61     -0.125000
     25 C1          7.1130    2.0490    0.7350 ca        1 O61     -0.098000
     26 C2          7.8060    1.5050   -0.3380 ca        1 O61     -0.120000
     27 C3          7.2360    0.4600   -1.0730 ca        1 O61      0.028400
     28 C4          5.9830   -0.0430   -0.7250 ca        1 O61     -0.121000
     29 C5          5.2680    0.4880    0.3580 ca        1 O61     -0.057300
     30 C6          5.8370    1.5570    1.0870 ca        1 O61     -0.000200
     31 N8          5.1620    2.1540    2.1900 na        1 O61     -0.018500
     32 C9          3.8330    2.6300    2.2310 cc        1 O61      0.391400
     33 N10         3.6680    3.1590    3.4690 nd        1 O61     -0.373000
     34 N11         4.8330    3.0040    4.1110 nd        1 O61     -0.046000
     35 N12         5.7230    2.4290    3.3980 nc        1 O61     -0.176800
     36 C13         3.9570   -0.1390    0.6830 c3        1 O61     -0.078100
     37 C14         2.9100    0.2230   -0.3830 c3        1 O61      0.093000
     38 N15         1.6370   -0.4080   -0.1970 n         1 O61     -0.564900
     39 H23        -2.5780    0.6960   -2.1980 ha        1 O61      0.143000
     40 H24        -4.6380    2.0010   -2.5210 ha        1 O61      0.144000
     41 H25        -3.3550    0.4590    2.0560 ha        1 O61      0.171000
     42 HN28       -6.6990    2.7860   -1.5690 hn        1 O61      0.338500
     43 H30        -6.1490    4.1260    1.9850 h1        1 O61      0.114200
     44 H30A       -7.6260    3.2020    2.4750 h1        1 O61      0.114200
     45 HN19       -1.8190   -1.4070   -1.5460 hn        1 O61      0.323500
     46 H17        -0.0890   -2.3960    0.5400 h1        1 O61      0.086700
     47 H18        -0.1870   -3.2140   -2.4650 hc        1 O61      0.078200
     48 H18A        0.5920   -4.0970   -1.0990 hc        1 O61      0.078200
     49 H34        -2.5120   -3.4910   -2.9130 ha        1 O61      0.131000
     50 H38        -0.8720   -4.9320    0.8210 ha        1 O61      0.131000
     51 H35        -4.6550   -4.6590   -2.4210 ha        1 O61      0.135000
     52 H37        -3.0170   -6.1040    1.3070 ha        1 O61      0.135000
     53 H36        -4.9120   -5.9680   -0.3110 ha        1 O61      0.135000
     54 H1          7.5750    2.8670    1.3130 ha        1 O61      0.163000
     55 H2          8.8010    1.8970   -0.6040 ha        1 O61      0.159000
     56 H4          5.5410   -0.8750   -1.2980 ha        1 O61      0.165000
     57 H9          3.1160    2.5670    1.4070 h5        1 O61      0.089100
     58 H13         4.0940   -1.2560    0.7050 hc        1 O61      0.067700
     59 H13A        3.5870    0.1570    1.6990 hc        1 O61      0.067700
     60 H14         2.7520    1.3400   -0.3700 h1        1 O61      0.060200
     61 H14A        3.3150   -0.0630   -1.3980 h1        1 O61      0.060200
     62 HN15        1.0880   -0.1270    0.5860 hn        1 O61      0.340500
     63 CL7         8.0760   -0.2030   -2.3890 cl        1 O61     -0.072400
@<TRIPOS>BOND
     1    1    2 1   
     2    1    3 2   
     3    1   14 1   
     4    2    4 ar  
     5    2    6 ar  
     6    4    5 ar  
     7    4   39 1   
     8    5    8 ar  
     9    5   40 1   
    10    6    7 ar  
    11    6   41 1   
    12    7    8 ar  
    13    7   12 1   
    14    8    9 1   
    15    9   10 1   
    16    9   42 1   
    17   10   11 1   
    18   10   13 2   
    19   11   12 1   
    20   11   43 1   
    21   11   44 1   
    22   14   15 1   
    23   14   45 1   
    24   15   16 1   
    25   15   18 1   
    26   15   46 1   
    27   16   17 2   
    28   16   38 1   
    29   18   19 1   
    30   18   47 1   
    31   18   48 1   
    32   19   20 ar  
    33   19   21 ar  
    34   20   22 ar  
    35   20   49 1   
    36   21   23 ar  
    37   21   50 1   
    38   22   24 ar  
    39   22   51 1   
    40   23   24 ar  
    41   23   52 1   
    42   24   53 1   
    43   25   26 ar  
    44   25   30 ar  
    45   25   54 1   
    46   26   27 ar  
    47   26   55 1   
    48   27   28 ar  
    49   27   63 1   
    50   28   29 ar  
    51   28   56 1   
    52   29   30 ar  
    53   29   36 1   
    54   30   31 1   
    55   31   32 1   
    56   31   35 1   
    57   32   33 2   
    58   32   57 1   
    59   33   34 1   
    60   34   35 2   
    61   36   37 1   
    62   36   58 1   
    63   36   59 1   
    64   37   38 1   
    65   37   60 1   
    66   37   61 1   
    67   38   62 1   
@<TRIPOS>SUBSTRUCTURE
     1 O61         1 TEMP              0 ****  ****    0 ROOT
