@<TRIPOS>MOLECULE
O62
   59    64     1     0     0
SMALL
bcc


@<TRIPOS>ATOM
      1 C2          0.1230    0.5420    0.0300 cc        1 O62      0.305000
      2 C3          1.4580    0.1810    0.0680 cd        1 O62     -0.308900
      3 C4          1.7070   -0.1420    1.4810 cd        1 O62      0.382100
      4 C6         -0.8180    0.9820   -1.0210 c3        1 O62     -0.108000
      5 C10         3.6020   -0.0270    3.1310 c2        1 O62      0.042200
      6 C11         4.9440   -0.6720    3.3230 cx        1 O62     -0.099100
      7 C12         5.0810   -2.1090    3.7190 cu        1 O62     -0.080200
      8 C13         4.7800   -1.9120    2.4480 cu        1 O62     -0.180400
      9 C14         3.7360   -1.7470    1.4330 c3        1 O62      0.196100
     10 C22         6.3110    3.0130   -8.3440 ca        1 O62     -0.049000
     11 C24         5.8150    2.2170   -6.0940 cp        1 O62     -0.062000
     12 C25         7.2100    2.0660   -5.8600 ca        1 O62     -0.167000
     13 C26         8.1240    2.3800   -6.8330 ca        1 O62     -0.074000
     14 C27         4.8630    1.8730   -5.0420 cp        1 O62     -0.024000
     15 C37         2.4680    0.1020   -1.0020 c3        1 O62      0.206700
     16 O1         -0.3830    0.4390    1.3510 os        1 O62     -0.118100
     17 N5          0.5600    0.0400    2.1740 nc        1 O62     -0.339300
     18 C7         -1.9430   -0.0230   -1.1870 c3        1 O62     -0.090600
     19 C8         -1.3720    2.3590   -0.7040 c3        1 O62     -0.090600
     20 C9          2.9610   -0.5640    2.0510 cf        1 O62     -0.204000
     21 C17         8.1570    3.6730  -10.3420 ca        1 O62     -0.131000
     22 C18         6.7730    3.8060  -10.5840 ca        1 O62     -0.126000
     23 C19         5.8630    3.4850   -9.6060 ca        1 O62     -0.162000
     24 C20         8.6330    3.2080   -9.1320 ca        1 O62     -0.093600
     25 C21         7.7050    2.8650   -8.1050 ca        1 O62     -0.014000
     26 C23         5.3840    2.6850   -7.3190 ca        1 O62     -0.121000
     27 C28         3.7190    2.6600   -4.8270 ca        1 O62     -0.098500
     28 C29         2.8110    2.3440   -3.8240 ca        1 O62     -0.175000
     29 C30         3.0410    1.2130   -3.0230 ca        1 O62      0.095100
     30 C31         4.1710    0.4140   -3.2230 ca        1 O62     -0.175000
     31 C32         5.0740    0.7510   -4.2290 ca        1 O62     -0.098500
     32 O33         2.0540    0.9480   -2.0830 os        1 O62     -0.340900
     33 O35        10.6170    2.1640   -8.2460 o         1 O62     -0.824300
     34 O36        10.8550    3.9530   -9.5550 o         1 O62     -0.824300
     35 H6         -0.2300    1.0390   -1.9860 hc        1 O62      0.097700
     36 H11         5.8030    0.0140    3.3490 hc        1 O62      0.112700
     37 H12         5.3480   -2.7580    4.5280 ha        1 O62      0.202000
     38 H13         4.1250   -1.4860    0.4160 h1        1 O62      0.105700
     39 H25         7.5470    1.6990   -4.8800 ha        1 O62      0.118000
     40 H26         9.2120    2.2500   -6.6680 ha        1 O62      0.196000
     41 H37         3.4700    0.4360   -0.6170 h1        1 O62      0.052700
     42 H37A        2.5440   -0.9550   -1.3840 h1        1 O62      0.052700
     43 H7         -2.5170   -0.1260   -0.2350 hc        1 O62      0.043200
     44 H7A        -2.6360    0.3190   -1.9910 hc        1 O62      0.043200
     45 H7B        -1.5340   -1.0230   -1.4680 hc        1 O62      0.043200
     46 H8         -0.5440    3.1040   -0.6310 hc        1 O62      0.043200
     47 H8A        -2.0720    2.6770   -1.5130 hc        1 O62      0.043200
     48 H8B        -1.9250    2.3420    0.2660 hc        1 O62      0.043200
     49 H17         8.8830    3.9580  -11.1210 ha        1 O62      0.150000
     50 H18         6.4330    4.1740  -11.5630 ha        1 O62      0.108000
     51 H19         4.7830    3.5860   -9.7810 ha        1 O62      0.107000
     52 H23         4.3100    2.8010   -7.5270 ha        1 O62      0.114000
     53 H28         3.5480    3.5470   -5.4570 ha        1 O62      0.143000
     54 H29         1.9180    2.9590   -3.6510 ha        1 O62      0.132000
     55 H31         4.3530   -0.4760   -2.6050 ha        1 O62      0.132000
     56 H32         5.9640    0.1230   -4.3930 ha        1 O62      0.143000
     57 CL15        3.0980    1.2520    4.0770 cl        1 O62     -0.037400
     58 C34        10.1460    3.0980   -8.9550 c         1 O62      0.908200
     59 CL16        2.7440   -3.1790    1.2380 cl        1 O62     -0.143400
@<TRIPOS>BOND
     1    1    2 2   
     2    1    4 1   
     3    1   16 1   
     4    2    3 1   
     5    2   15 1   
     6    3   17 2   
     7    3   20 1   
     8    4   18 1   
     9    4   19 1   
    10    4   35 1   
    11    5    6 1   
    12    5   20 2   
    13    5   57 1   
    14    6    7 1   
    15    6    8 1   
    16    6   36 1   
    17    7    8 2   
    18    7   37 1   
    19    8    9 1   
    20    9   20 1   
    21    9   38 1   
    22    9   59 1   
    23   10   23 ar  
    24   10   25 ar  
    25   10   26 ar  
    26   11   12 ar  
    27   11   14 1   
    28   11   26 ar  
    29   12   13 ar  
    30   12   39 1   
    31   13   25 ar  
    32   13   40 1   
    33   14   27 ar  
    34   14   31 ar  
    35   15   32 1   
    36   15   41 1   
    37   15   42 1   
    38   16   17 1   
    39   18   43 1   
    40   18   44 1   
    41   18   45 1   
    42   19   46 1   
    43   19   47 1   
    44   19   48 1   
    45   21   22 ar  
    46   21   24 ar  
    47   21   49 1   
    48   22   23 ar  
    49   22   50 1   
    50   23   51 1   
    51   24   25 ar  
    52   24   58 1   
    53   26   52 1   
    54   27   28 ar  
    55   27   53 1   
    56   28   29 ar  
    57   28   54 1   
    58   29   30 ar  
    59   29   32 1   
    60   30   31 ar  
    61   30   55 1   
    62   31   56 1   
    63   33   58 1   
    64   34   58 1   
@<TRIPOS>SUBSTRUCTURE
     1 O62         1 TEMP              0 ****  ****    0 ROOT
