@<TRIPOS>MOLECULE
O62
   59    49     1     0     0
SMALL
bcc


@<TRIPOS>ATOM
      1 C2         -3.9620   -0.6760    3.2350 c1        1 O62      0.013000
      2 C3         -2.5680   -0.7370    3.2300 c1        1 O62     -0.164000
      3 C4         -2.1330   -0.7950    4.5660 c2        1 O62     -0.073000
      4 C6         -4.8780   -0.7270    1.9910 c2        1 O62     -0.052000
      5 C10        -0.4260    0.3320    5.5660 c1        1 O62     -0.032000
      6 C11         0.7150    0.3650    6.3440 c1        1 O62     -0.129000
      7 C12         1.4480   -0.7910    6.5480 c1        1 O62     -0.129500
      8 C13         1.0410   -1.9770    5.9760 c1        1 O62     -0.129500
      9 C14        -0.1200   -2.0140    5.1850 c1        1 O62     -0.033000
     10 C22         3.0680    0.0100   -5.0030 c1        1 O62     -0.060500
     11 C24         2.0080    0.8490   -2.9970 c1        1 O62     -0.043500
     12 C25         2.5270    2.1080   -3.2470 c1        1 O62     -0.133500
     13 C26         3.3200    2.3240   -4.3760 c1        1 O62     -0.075000
     14 C27         1.2220    0.7600   -1.8320 c1        1 O62     -0.043500
     15 C34         5.0800    2.8220   -6.9750 c1        1 O62      0.357000
     16 C37        -1.6500   -0.8230    1.9450 c2        1 O62      0.050000
     17 O1         -4.3810   -0.6960    4.5360 os        1 O62     -0.062000
     18 N5         -3.2310   -0.7700    5.3670 n2        1 O62      0.000000
     19 C7         -5.6410   -2.1240    1.9570 c3        1 O62     -0.208500
     20 C8         -5.8970    0.4170    2.0620 c3        1 O62     -0.208500
     21 C9         -0.8430   -0.8750    4.9830 c1        1 O62     -0.009000
     22 CL15       -1.3090    1.8130    5.2460 cl        1 O62      0.018000
     23 CL16       -0.6020   -3.6920    5.0080 cl        1 O62      0.006000
     24 C17         4.6870    0.4370   -7.2660 c1        1 O62     -0.127500
     25 C18         4.1560   -0.8480   -7.0090 c1        1 O62     -0.129500
     26 C19         3.3510   -1.0610   -5.8830 c1        1 O62     -0.129500
     27 C20         4.4120    1.4860   -6.4050 c1        1 O62     -0.060500
     28 C21         3.5890    1.2700   -5.2540 c2        1 O62     -0.014000
     29 C23         2.2750   -0.2050   -3.8720 c1        1 O62     -0.127500
     30 C28        -0.1230    1.0450   -1.9070 c1        1 O62     -0.129500
     31 C29        -0.9290    0.9200   -0.7710 c1        1 O62     -0.129500
     32 C30        -0.3710    0.5070    0.4340 c1        1 O62      0.052000
     33 C31         0.9880    0.2190    0.5080 c1        1 O62     -0.197000
     34 C32         1.7840    0.3440   -0.6200 c1        1 O62     -0.133500
     35 O33        -1.1710    0.4740    1.6140 os        1 O62     -0.225000
     36 O35         6.2310    3.2070   -6.5330 o         1 O62     -0.559000
     37 O36         4.4550    3.5340   -7.8370 o         1 O62     -0.559000
     38 H6         -4.3180   -0.6280    1.1530 ha        1 O62      0.137000
     39 H11         1.0000    1.1930    6.7440 ha        1 O62      0.155000
     40 H12         2.3030   -0.7640    7.1310 ha        1 O62      0.132167
     41 H13         1.5290   -2.7770    6.1420 ha        1 O62      0.132167
     42 H25         2.2730    2.8700   -2.6680 ha        1 O62      0.129000
     43 H26         3.6850    3.2130   -4.5520 ha        1 O62      0.196000
     44 H37        -2.1880   -1.1910    1.1740 h4        1 O62      0.094000
     45 H37A       -0.8810   -1.4250    2.1260 h4        1 O62      0.094000
     46 H7         -6.0630   -2.2950    2.8430 hc        1 O62      0.082167
     47 H7A        -5.0100   -2.8290    1.7610 hc        1 O62      0.082167
     48 H7B        -6.3380   -2.1040    1.2590 hc        1 O62      0.082167
     49 H8         -6.4580    0.4050    1.2600 hc        1 O62      0.082167
     50 H8A        -5.4260    1.2670    2.1150 hc        1 O62      0.082167
     51 H8B        -6.4460    0.3080    2.8380 hc        1 O62      0.082167
     52 H17         5.2450    0.5830   -8.0470 ha        1 O62      0.131500
     53 H18         4.3940   -1.5930   -7.5820 ha        1 O62      0.132167
     54 H19         2.9770   -1.9720   -5.7000 ha        1 O62      0.132167
     55 H23         1.8980   -1.1090   -3.6930 ha        1 O62      0.131500
     56 H28        -0.5230    1.3380   -2.7730 ha        1 O62      0.132167
     57 H29        -1.9050    1.0160   -0.8510 ha        1 O62      0.132167
     58 H31         1.3920   -0.0820    1.3760 ha        1 O62      0.128000
     59 H32         2.7370    0.1440   -0.5690 ha        1 O62      0.129000
@<TRIPOS>BOND
     1    1    2 1   
     2    1   17 1   
     3    2    3 1   
     4    3   18 1   
     5    3   21 1   
     6    4   19 1   
     7    4   20 1   
     8    4   38 1   
     9    5    6 1   
    10    5   22 1   
    11    6   39 1   
    12    7    8 1   
    13    7   40 1   
    14    8   41 1   
    15    9   21 1   
    16    9   23 1   
    17   10   28 1   
    18   10   29 1   
    19   11   12 1   
    20   12   42 1   
    21   13   28 1   
    22   13   43 1   
    23   14   34 1   
    24   15   36 1   
    25   15   37 1   
    26   16   35 1   
    27   16   44 1   
    28   16   45 1   
    29   17   18 1   
    30   19   46 1   
    31   19   47 1   
    32   19   48 1   
    33   20   49 1   
    34   20   50 1   
    35   20   51 1   
    36   24   27 1   
    37   24   52 1   
    38   25   26 1   
    39   25   53 1   
    40   26   54 1   
    41   27   28 1   
    42   29   55 1   
    43   30   31 1   
    44   30   56 1   
    45   31   57 1   
    46   32   33 1   
    47   32   35 1   
    48   33   58 1   
    49   34   59 1   
@<TRIPOS>SUBSTRUCTURE
     1 O62         1 TEMP              0 ****  ****    0 ROOT
