@<TRIPOS>MOLECULE
O62
   59    64     1     0     0
SMALL
bcc


@<TRIPOS>ATOM
      1 C2          0.1270    0.5540    0.0390 cc        1 O62      0.305000
      2 C3          1.4580    0.1800    0.0680 cd        1 O62     -0.308900
      3 C4          1.7120   -0.1510    1.4780 cd        1 O62      0.382100
      4 C6         -0.8160    1.0070   -1.0040 c3        1 O62     -0.108000
      5 C10         3.6200   -0.0590    3.1150 c2        1 O62      0.042200
      6 C11         4.9560   -0.7180    3.2960 cx        1 O62     -0.099100
      7 C12         5.0810   -2.1570    3.6890 cu        1 O62     -0.080200
      8 C13         4.7740   -1.9550    2.4210 cu        1 O62     -0.180400
      9 C14         3.7240   -1.7780    1.4140 c3        1 O62      0.196100
     10 C22         6.3110    3.0340   -8.3360 ca        1 O62     -0.049000
     11 C24         5.8130    2.2180   -6.0940 cp        1 O62     -0.062000
     12 C25         7.2060    2.0420   -5.8680 ca        1 O62     -0.167000
     13 C26         8.1200    2.3550   -6.8420 ca        1 O62     -0.074000
     14 C27         4.8600    1.8750   -5.0410 cp        1 O62     -0.023000
     15 C37         2.4600    0.0950   -1.0090 c3        1 O62      0.206700
     16 O1         -0.3730    0.4500    1.3630 os        1 O62     -0.118100
     17 N5          0.5710    0.0390    2.1790 nc        1 O62     -0.339300
     18 C7         -1.9510    0.0120   -1.1690 c3        1 O62     -0.090600
     19 C8         -1.3560    2.3870   -0.6790 c3        1 O62     -0.090600
     20 C9          2.9650   -0.5880    2.0380 cf        1 O62     -0.204000
     21 C17         8.1570    3.6920  -10.3350 ca        1 O62     -0.131000
     22 C18         6.7740    3.8490  -10.5680 ca        1 O62     -0.126000
     23 C19         5.8640    3.5290   -9.5900 ca        1 O62     -0.162000
     24 C20         8.6320    3.2040   -9.1320 ca        1 O62     -0.093600
     25 C21         7.7030    2.8630   -8.1060 ca        1 O62     -0.014000
     26 C23         5.3830    2.7070   -7.3100 ca        1 O62     -0.121000
     27 C28         3.7290    2.6760   -4.8120 ca        1 O62     -0.098500
     28 C29         2.8200    2.3600   -3.8090 ca        1 O62     -0.174000
     29 C30         3.0380    1.2170   -3.0230 ca        1 O62      0.094100
     30 C31         4.1550    0.4030   -3.2370 ca        1 O62     -0.174000
     31 C32         5.0590    0.7400   -4.2430 ca        1 O62     -0.098500
     32 O33         2.0510    0.9530   -2.0810 os        1 O62     -0.340900
     33 O35        10.6040    2.1190   -8.2700 o         1 O62     -0.824300
     34 O36        10.8630    3.9210   -9.5560 o         1 O62     -0.824300
     35 H6         -0.2330    1.0630   -1.9720 hc        1 O62      0.097700
     36 H11         5.8230   -0.0410    3.3170 hc        1 O62      0.112700
     37 H12         5.3470   -2.8100    4.4950 ha        1 O62      0.202000
     38 H13         4.1070   -1.5200    0.3940 h1        1 O62      0.105700
     39 H25         7.5420    1.6580   -4.8950 ha        1 O62      0.118000
     40 H26         9.2070    2.2060   -6.6840 ha        1 O62      0.196000
     41 H37         3.4700    0.4130   -0.6280 h1        1 O62      0.052700
     42 H37A        2.5210   -0.9600   -1.3990 h1        1 O62      0.052700
     43 H7         -2.5210   -0.0890   -0.2140 hc        1 O62      0.043200
     44 H7A        -2.6460    0.3650   -1.9680 hc        1 O62      0.043200
     45 H7B        -1.5540   -0.9900   -1.4560 hc        1 O62      0.043200
     46 H8         -0.5210    3.1240   -0.6080 hc        1 O62      0.043200
     47 H8A        -2.0570    2.7150   -1.4830 hc        1 O62      0.043200
     48 H8B        -1.9040    2.3720    0.2940 hc        1 O62      0.043200
     49 H17         8.8830    3.9750  -11.1140 ha        1 O62      0.150000
     50 H18         6.4350    4.2340  -11.5400 ha        1 O62      0.108000
     51 H19         4.7850    3.6490   -9.7580 ha        1 O62      0.107000
     52 H23         4.3100    2.8420   -7.5120 ha        1 O62      0.114000
     53 H28         3.5680    3.5720   -5.4310 ha        1 O62      0.143000
     54 H29         1.9380    2.9870   -3.6240 ha        1 O62      0.132000
     55 H31         4.3260   -0.4960   -2.6310 ha        1 O62      0.132000
     56 H32         5.9380    0.1010   -4.4200 ha        1 O62      0.143000
     57 Cl15        3.1370    1.2250    4.0660 cl        1 O62     -0.037400
     58 C34        10.1430    3.0690   -8.9640 c         1 O62      0.908200
     59 Cl16        2.7150   -3.1990    1.2240 cl        1 O62     -0.143400
@<TRIPOS>BOND
     1    1    2 2   
     2    1    4 1   
     3    1   16 1   
     4    2    3 1   
     5    2   15 1   
     6    3   17 2   
     7    3   20 1   
     8    4   18 1   
     9    4   19 1   
    10    4   35 1   
    11    5    6 1   
    12    5   20 2   
    13    5   57 1   
    14    6    7 1   
    15    6    8 1   
    16    6   36 1   
    17    7    8 2   
    18    7   37 1   
    19    8    9 1   
    20    9   20 1   
    21    9   38 1   
    22    9   59 1   
    23   10   23 ar  
    24   10   25 ar  
    25   10   26 ar  
    26   11   12 ar  
    27   11   14 1   
    28   11   26 ar  
    29   12   13 ar  
    30   12   39 1   
    31   13   25 ar  
    32   13   40 1   
    33   14   27 ar  
    34   14   31 ar  
    35   15   32 1   
    36   15   41 1   
    37   15   42 1   
    38   16   17 1   
    39   18   43 1   
    40   18   44 1   
    41   18   45 1   
    42   19   46 1   
    43   19   47 1   
    44   19   48 1   
    45   21   22 ar  
    46   21   24 ar  
    47   21   49 1   
    48   22   23 ar  
    49   22   50 1   
    50   23   51 1   
    51   24   25 ar  
    52   24   58 1   
    53   26   52 1   
    54   27   28 ar  
    55   27   53 1   
    56   28   29 ar  
    57   28   54 1   
    58   29   30 ar  
    59   29   32 1   
    60   30   31 ar  
    61   30   55 1   
    62   31   56 1   
    63   33   58 1   
    64   34   58 1   
@<TRIPOS>SUBSTRUCTURE
     1 O62         1 TEMP              0 ****  ****    0 ROOT
