@<TRIPOS>MOLECULE
O62
   59    63     1     0     0
SMALL
bcc


@<TRIPOS>ATOM
      1 C2         -4.4790    2.1010   -0.2150 cc        1 O62      0.302000
      2 C3         -3.9040    0.8470   -0.3180 cd        1 O62     -0.301900
      3 C4         -5.0280   -0.0810   -0.1260 cd        1 O62      0.363800
      4 C6         -3.9820    3.4900   -0.2930 c3        1 O62     -0.107000
      5 C10        -4.6100   -2.2480    1.0210 ca        1 O62      0.045900
      6 C11        -4.5000   -3.6430    0.9980 ca        1 O62     -0.131000
      7 C12        -4.7270   -4.3350   -0.1900 ca        1 O62     -0.104000
      8 C13        -5.0650   -3.6470   -1.3530 ca        1 O62     -0.131000
      9 C14        -5.1740   -2.2530   -1.3290 ca        1 O62      0.045900
     10 C22         6.0120    0.4340    1.3070 ca        1 O62     -0.049000
     11 C24         3.9070    0.4570    0.0780 cp        1 O62     -0.060000
     12 C25         4.5970   -0.0090   -1.0760 ca        1 O62     -0.167000
     13 C26         5.9470   -0.2480   -1.0380 ca        1 O62     -0.075000
     14 C27         2.4670    0.6940    0.0140 cp        1 O62     -0.027000
     15 C37        -2.5160    0.4360   -0.5860 c3        1 O62      0.207700
     16 O1         -5.8650    1.9170    0.0230 os        1 O62     -0.119100
     17 N5         -6.1560    0.6350    0.0680 nc        1 O62     -0.335300
     18 C7         -4.5870    4.2110   -1.4830 c3        1 O62     -0.090600
     19 C8         -4.2750    4.2400    0.9940 c3        1 O62     -0.090600
     20 C9         -4.9390   -1.5360   -0.1440 ca        1 O62     -0.116500
     21 C17         8.7620   -0.0790    1.4190 ca        1 O62     -0.132000
     22 C18         8.0850    0.4100    2.5570 ca        1 O62     -0.127000
     23 C19         6.7350    0.6610    2.5080 ca        1 O62     -0.162000
     24 C20         8.0970   -0.3040    0.2300 ca        1 O62     -0.092600
     25 C21         6.6970   -0.0430    0.1560 ca        1 O62     -0.014000
     26 C23         4.6140    0.6770    1.2420 ca        1 O62     -0.122000
     27 C28         1.8930    1.7940    0.6730 ca        1 O62     -0.097000
     28 C29         0.5230    2.0210    0.6250 ca        1 O62     -0.177500
     29 C30        -0.2940    1.1370   -0.1000 ca        1 O62      0.099100
     30 C31         0.2580    0.0380   -0.7650 ca        1 O62     -0.177500
     31 C32         1.6340   -0.1750   -0.7020 ca        1 O62     -0.097000
     32 O33        -1.6410    1.4710   -0.1170 os        1 O62     -0.340900
     33 O35         8.6030   -0.4800   -2.1210 o         1 O62     -0.824300
     34 O36         9.8630   -1.6190   -0.6770 o         1 O62     -0.824300
     35 H6         -2.8600    3.4280   -0.4300 hc        1 O62      0.097700
     36 H11        -4.2350   -4.1900    1.9150 ha        1 O62      0.153000
     37 H12        -4.6380   -5.4310   -0.2090 ha        1 O62      0.144000
     38 H13        -5.2470   -4.1980   -2.2890 ha        1 O62      0.153000
     39 H25         4.0320   -0.1610   -2.0070 ha        1 O62      0.118000
     40 H26         6.5000   -0.5880   -1.9360 ha        1 O62      0.196000
     41 H37        -2.2860   -0.5290   -0.0560 h1        1 O62      0.055200
     42 H37A       -2.3580    0.3040   -1.6930 h1        1 O62      0.055200
     43 H7         -5.6990    4.2530   -1.3900 hc        1 O62      0.043033
     44 H7A        -4.1900    5.2530   -1.5320 hc        1 O62      0.043033
     45 H7B        -4.3270    3.6840   -2.4320 hc        1 O62      0.043033
     46 H8         -3.7870    3.7330    1.8590 hc        1 O62      0.043033
     47 H8A        -3.8810    5.2820    0.9190 hc        1 O62      0.043033
     48 H8B        -5.3760    4.2820    1.1780 hc        1 O62      0.043033
     49 H17         9.8390   -0.3060    1.4740 ha        1 O62      0.150000
     50 H18         8.6500    0.5820    3.4850 ha        1 O62      0.108000
     51 H19         6.1960    1.0360    3.3890 ha        1 O62      0.107000
     52 H23         4.1020    1.0340    2.1480 ha        1 O62      0.114000
     53 H28         2.5410    2.4870    1.2310 ha        1 O62      0.141500
     54 H29         0.0710    2.8800    1.1380 ha        1 O62      0.133500
     55 H31        -0.3720   -0.6580   -1.3360 ha        1 O62      0.133500
     56 H32         2.0730   -1.0430   -1.2200 ha        1 O62      0.141500
     57 CL15       -4.3380   -1.4310    2.4830 cl        1 O62     -0.067400
     58 C34         8.9050   -0.8420   -0.9490 c         1 O62      0.908200
     59 CL16       -5.5920   -1.4390   -2.7600 cl        1 O62     -0.067400
@<TRIPOS>BOND
     1    1    2 2   
     2    1    4 1   
     3    1   16 1   
     4    2    3 1   
     5    2   15 1   
     6    3   17 2   
     7    3   20 1   
     8    4   18 1   
     9    4   19 1   
    10    4   35 1   
    11    5    6 ar  
    12    5   20 ar  
    13    5   57 1   
    14    6    7 ar  
    15    6   36 1   
    16    7    8 ar  
    17    7   37 1   
    18    8    9 ar  
    19    8   38 1   
    20    9   20 ar  
    21    9   59 1   
    22   10   23 ar  
    23   10   25 ar  
    24   10   26 ar  
    25   11   12 ar  
    26   11   14 1   
    27   11   26 ar  
    28   12   13 ar  
    29   12   39 1   
    30   13   25 ar  
    31   13   40 1   
    32   14   27 ar  
    33   14   31 ar  
    34   15   32 1   
    35   15   41 1   
    36   15   42 1   
    37   16   17 1   
    38   18   43 1   
    39   18   44 1   
    40   18   45 1   
    41   19   46 1   
    42   19   47 1   
    43   19   48 1   
    44   21   22 ar  
    45   21   24 ar  
    46   21   49 1   
    47   22   23 ar  
    48   22   50 1   
    49   23   51 1   
    50   24   25 ar  
    51   24   58 1   
    52   26   52 1   
    53   27   28 ar  
    54   27   53 1   
    55   28   29 ar  
    56   28   54 1   
    57   29   30 ar  
    58   29   32 1   
    59   30   31 ar  
    60   30   55 1   
    61   31   56 1   
    62   33   58 1   
    63   34   58 1   
@<TRIPOS>SUBSTRUCTURE
     1 O62         1 TEMP              0 ****  ****    0 ROOT
