@<TRIPOS>MOLECULE
O64
   30    30     1     0     0
SMALL
bcc


@<TRIPOS>ATOM
      1 C1         -1.9800   -0.7450   -0.4530 ca        1 O64     -0.170300
      2 C2         -2.3460   -1.9860    0.0780 ca        1 O64     -0.062000
      3 C3         -1.4850   -2.6710    0.9310 ca        1 O64     -0.141000
      4 C4         -0.2470   -2.1220    1.2560 ca        1 O64     -0.050000
      5 C5          0.1370   -0.8890    0.7200 ca        1 O64     -0.141600
      6 C6         -0.7320   -0.1870   -0.1310 ca        1 O64      0.078400
      7 CL7        -0.2660    1.3250   -0.7360 cl        1 O64     -0.033400
      8 C8          1.4730   -0.3540    1.1330 c         1 O64      0.674700
      9 N9          2.3900   -0.1130    0.1290 n         1 O64     -0.541900
     10 O10         1.7630   -0.2230    2.3380 o         1 O64     -0.591100
     11 C11         3.6710    0.4930    0.4040 c3        1 O64     -0.022300
     12 C12         3.8250    1.8970   -0.1750 c         1 O64      0.546900
     13 O13         3.0980    2.3700   -1.0450 o         1 O64     -0.517100
     14 C14         4.8560   -0.3390   -0.1260 c3        1 O64     -0.080400
     15 C15         5.0160   -1.6350    0.6210 c3        1 O64     -0.092100
     16 C16        -2.9710   -0.0360   -1.3770 c3        1 O64      0.693200
     17 F17        -4.1370   -0.7350   -1.5920 f         1 O64     -0.230300
     18 F18        -3.4050    1.1850   -0.9270 f         1 O64     -0.230300
     19 F19        -2.5020    0.2010   -2.6450 f         1 O64     -0.230300
     20 H2         -3.3270   -2.4210   -0.1790 ha        1 O64      0.162000
     21 H3         -1.7860   -3.6430    1.3510 ha        1 O64      0.152000
     22 H4          0.4350   -2.6450    1.9460 ha        1 O64      0.162000
     23 HN9         2.0780   -0.0700   -0.8140 hn        1 O64      0.325500
     24 H11         3.7800    0.5820    1.5310 h1        1 O64      0.109700
     25 H12         4.6800    2.4640    0.2550 h4        1 O64      0.007200
     26 H14         4.7210   -0.5410   -1.2200 hc        1 O64      0.049200
     27 H14A        5.7860    0.2790   -0.0080 hc        1 O64      0.049200
     28 H15         5.1230   -1.4510    1.7180 hc        1 O64      0.041033
     29 H15A        4.1340   -2.3000    0.4630 hc        1 O64      0.041033
     30 H15B        5.9290   -2.1710    0.2620 hc        1 O64      0.041033
@<TRIPOS>BOND
     1    1    2 ar  
     2    1    6 ar  
     3    1   16 1   
     4    2    3 ar  
     5    2   20 1   
     6    3    4 ar  
     7    3   21 1   
     8    4    5 ar  
     9    4   22 1   
    10    5    6 ar  
    11    5    8 1   
    12    6    7 1   
    13    8    9 1   
    14    8   10 2   
    15    9   11 1   
    16    9   23 1   
    17   11   12 1   
    18   11   14 1   
    19   11   24 1   
    20   12   13 2   
    21   12   25 1   
    22   14   15 1   
    23   14   26 1   
    24   14   27 1   
    25   15   28 1   
    26   15   29 1   
    27   15   30 1   
    28   16   17 1   
    29   16   18 1   
    30   16   19 1   
@<TRIPOS>SUBSTRUCTURE
     1 O64         1 TEMP              0 ****  ****    0 ROOT
