@<TRIPOS>MOLECULE
O64
   31    31     1     0     0
SMALL
bcc


@<TRIPOS>ATOM
      1 C1          0.2880    0.3420    0.2680 ca        1 O64     -0.155300
      2 C2          1.2190   -0.5860   -0.2140 ca        1 O64     -0.015000
      3 C3          1.5910   -1.6850    0.5590 ca        1 O64     -0.121000
      4 C4          1.0400   -1.8620    1.8250 ca        1 O64     -0.028000
      5 C5          0.1210   -0.9260    2.3280 ca        1 O64     -0.215600
      6 C6         -0.2750    0.1720    1.5410 ca        1 O64      0.083400
      7 CL7        -1.4530    1.2480    2.1200 cl        1 O64     -0.016400
      8 C8         -0.4330   -1.2170    3.6620 c         1 O64      0.577700
      9 N9         -0.4200   -0.0520    4.6300 n4        1 O64     -0.681800
     10 O10        -0.8420   -2.2920    4.0710 o         1 O64     -0.400100
     11 C11        -1.0140   -0.3250    5.9810 c3        1 O64     -0.020500
     12 C12        -2.4050    0.3010    6.1390 c         1 O64      0.567900
     13 O13        -2.8780    1.0440    5.2860 o         1 O64     -0.485100
     14 C14        -0.1210    0.1830    7.1200 c3        1 O64     -0.101400
     15 C15         1.1910   -0.5500    7.2030 c3        1 O64     -0.117100
     16 C16        -0.0860    1.5280   -0.6370 c3        1 O64      0.695200
     17 F17         0.5940    1.5440   -1.8280 f         1 O64     -0.212633
     18 F18        -1.4080    1.5640   -0.9950 f         1 O64     -0.212633
     19 F19         0.1780    2.7520   -0.0790 f         1 O64     -0.212633
     20 H2          1.6570   -0.4470   -1.2220 ha        1 O64      0.193000
     21 H3          2.3140   -2.4190    0.1640 ha        1 O64      0.184000
     22 H4          1.3160   -2.7410    2.4320 ha        1 O64      0.173000
     23 HN9        -0.9550    0.7250    4.1800 hn        1 O64      0.474800
     24 H11        -1.1350   -1.4500    6.0920 hx        1 O64      0.147700
     25 H12        -2.9160    0.0190    7.0830 h4        1 O64      0.074200
     26 H14         0.0530    1.2880    7.0160 hc        1 O64      0.087200
     27 H14A       -0.6930    0.0270    8.0770 hc        1 O64      0.087200
     28 H15         1.0350   -1.6560    7.2250 hc        1 O64      0.058700
     29 H15A        1.7210   -0.2570    8.1460 hc        1 O64      0.058700
     30 H15B        1.8660   -0.2990    6.3490 hc        1 O64      0.058700
     31 H92         0.5540    0.2500    4.7450 hn        1 O64      0.474800
@<TRIPOS>BOND
     1    1    2 ar  
     2    1    6 ar  
     3    1   16 1   
     4    2    3 ar  
     5    2   20 1   
     6    3    4 ar  
     7    3   21 1   
     8    4    5 ar  
     9    4   22 1   
    10    5    6 ar  
    11    5    8 1   
    12    6    7 1   
    13    8    9 1   
    14    8   10 2   
    15    9   11 1   
    16    9   23 1   
    17    9   31 1   
    18   11   12 1   
    19   11   14 1   
    20   11   24 1   
    21   12   13 2   
    22   12   25 1   
    23   14   15 1   
    24   14   26 1   
    25   14   27 1   
    26   15   28 1   
    27   15   29 1   
    28   15   30 1   
    29   16   17 1   
    30   16   18 1   
    31   16   19 1   
@<TRIPOS>SUBSTRUCTURE
     1 O64         1 TEMP              0 ****  ****    0 ROOT
