@<TRIPOS>MOLECULE
O64
   31    31     1     0     0
SMALL
bcc


@<TRIPOS>ATOM
      1 C1          0.2740    0.3130    0.2630 ca        1 O64     -0.155300
      2 C2          1.1430   -0.6700   -0.2280 ca        1 O64     -0.015000
      3 C3          1.4600   -1.7860    0.5450 ca        1 O64     -0.121000
      4 C4          0.9170   -1.9260    1.8180 ca        1 O64     -0.028000
      5 C5          0.0610   -0.9360    2.3300 ca        1 O64     -0.215600
      6 C6         -0.2800    0.1810    1.5430 ca        1 O64      0.083400
      7 Cl7        -1.3850    1.3260    2.1340 cl        1 O64     -0.016400
      8 C8         -0.4910   -1.1900    3.6720 c         1 O64      0.577700
      9 N9         -0.3970   -0.0240    4.6350 ny        1 O64     -0.681800
     10 O10        -0.9580   -2.2370    4.0910 o         1 O64     -0.400100
     11 C11        -0.9870   -0.2570    5.9950 c3        1 O64     -0.020500
     12 C12        -2.3360    0.4510    6.1690 c         1 O64      0.567900
     13 O13        -2.7760    1.2180    5.3190 o         1 O64     -0.485100
     14 C14        -0.0500    0.2010    7.1190 c3        1 O64     -0.101400
     15 C15         1.2170   -0.6080    7.1880 c3        1 O64     -0.117100
     16 C16        -0.0420    1.5150   -0.6430 c3        1 O64      0.695200
     17 F17         0.6220    1.4870   -1.8430 f         1 O64     -0.212633
     18 F18        -1.3630    1.6280   -0.9830 f         1 O64     -0.212633
     19 F19         0.3010    2.7240   -0.0930 f         1 O64     -0.212633
     20 H2          1.5750   -0.5610   -1.2420 ha        1 O64      0.193000
     21 H3          2.1340   -2.5630    0.1430 ha        1 O64      0.184000
     22 H4          1.1490   -2.8180    2.4260 ha        1 O64      0.173000
     23 HN9         0.5950    0.2210    4.7360 hn        1 O64      0.474800
     24 H11        -1.1730   -1.3720    6.1120 hx        1 O64      0.147700
     25 H12        -2.8500    0.2030    7.1210 h4        1 O64      0.074200
     26 H14         0.1880    1.2930    7.0090 hc        1 O64      0.087200
     27 H14A       -0.6170    0.0820    8.0850 hc        1 O64      0.087200
     28 H15         0.9960   -1.7030    7.2170 hc        1 O64      0.058700
     29 H15A        1.8940   -0.4010    6.3240 hc        1 O64      0.058700
     30 H15B        1.7760   -0.3440    8.1220 hc        1 O64      0.058700
     31 H92        -0.8910    0.7820    4.1880 hn        1 O64      0.474800
@<TRIPOS>BOND
     1    1    2 ar  
     2    1    6 ar  
     3    1   16 1   
     4    2    3 ar  
     5    2   20 1   
     6    3    4 ar  
     7    3   21 1   
     8    4    5 ar  
     9    4   22 1   
    10    5    6 ar  
    11    5    8 1   
    12    6    7 1   
    13    8    9 1   
    14    8   10 2   
    15    9   11 1   
    16    9   23 1   
    17    9   31 1   
    18   11   12 1   
    19   11   14 1   
    20   11   24 1   
    21   12   13 2   
    22   12   25 1   
    23   14   15 1   
    24   14   26 1   
    25   14   27 1   
    26   15   28 1   
    27   15   29 1   
    28   15   30 1   
    29   16   17 1   
    30   16   18 1   
    31   16   19 1   
@<TRIPOS>SUBSTRUCTURE
     1 O64         1 TEMP              0 ****  ****    0 ROOT
