@<TRIPOS>MOLECULE
O64
   30    27     1     0     0
SMALL
bcc


@<TRIPOS>ATOM
      1 C1          0.1820   -0.0720   -3.7570 c1        1 O64     -0.135100
      2 C2          1.5730   -0.0830   -3.7550 c1        1 O64     -0.042500
      3 C3          2.2670   -0.0920   -2.5490 c1        1 O64     -0.042500
      4 C4          1.5670   -0.0900   -1.3390 c1        1 O64      0.007500
      5 C5          0.1800   -0.0790   -1.3400 cg        1 O64     -0.092200
      6 C6         -0.5170   -0.0700   -2.5510 c1        1 O64      0.092900
      7 CL7        -2.2590   -0.1160   -2.5540 cl        1 O64     -0.062900
      8 C8         -0.6040   -0.0490    0.0170 c         1 O64      0.627300
      9 N9          0.1260   -0.0340    1.2760 n         1 O64     -0.564900
     10 O10        -1.8160    0.0780    0.0170 o         1 O64     -0.580100
     11 C11        -0.5890    0.1300    2.5250 c3        1 O64     -0.017300
     12 C12        -1.0150    1.5550    2.6740 c         1 O64      0.554900
     13 O13        -2.1850    1.8230    2.8200 o         1 O64     -0.510100
     14 C14         0.3140   -0.2510    3.6810 c3        1 O64     -0.085400
     15 C15        -0.5320   -0.7890    4.8320 c3        1 O64     -0.103100
     16 C16        -0.5810   -0.0450   -5.0820 c3        1 O64      0.659000
     17 F17         0.2690   -0.3020   -6.0970 f         1 O64     -0.230300
     18 F18        -1.5450   -0.9750   -5.0600 f         1 O64     -0.230300
     19 F19        -1.1300    1.1640   -5.2550 f         1 O64     -0.230300
     20 H2          2.0650   -0.0840   -4.6030 ha        1 O64      0.101500
     21 H3          3.2510   -0.1000   -2.5480 ha        1 O64      0.101500
     22 H4          2.0570   -0.0960   -0.4870 ha        1 O64      0.106500
     23 HN9         1.0310   -0.1100    1.2770 hn        1 O64      0.317500
     24 H11        -1.3800   -0.4480    2.5260 h1        1 O64      0.118700
     25 H12        -0.3430    2.2590    2.7310 h4        1 O64     -0.000800
     26 H14         0.8050    0.5300    3.9790 hc        1 O64      0.048200
     27 H14A        0.9430   -0.9390    3.3900 hc        1 O64      0.048200
     28 H15         0.0560   -1.0740    5.5650 hc        1 O64      0.047033
     29 H15A       -1.1330   -0.0880    5.1490 hc        1 O64      0.047033
     30 H15B       -1.0590   -1.5540    4.5200 hc        1 O64      0.047033
@<TRIPOS>BOND
     1    1    6 3   
     2    1   16 1   
     3    2    3 3   
     4    2   20 1   
     5    3   21 1   
     6    4    5 3   
     7    4   22 1   
     8    5    8 1   
     9    6    7 1   
    10    8    9 1   
    11    8   10 2   
    12    9   11 1   
    13    9   23 1   
    14   11   12 1   
    15   11   14 1   
    16   11   24 1   
    17   12   13 2   
    18   12   25 1   
    19   14   15 1   
    20   14   26 1   
    21   14   27 1   
    22   15   28 1   
    23   15   29 1   
    24   15   30 1   
    25   16   17 1   
    26   16   18 1   
    27   16   19 1   
@<TRIPOS>SUBSTRUCTURE
     1 O64         1 TEMP              0 ****  ****    0 ROOT
