@<TRIPOS>MOLECULE
O64
   31    31     1     0     0
SMALL
bcc


@<TRIPOS>ATOM
      1 C1          0.2440    0.3180    0.2610 ca        1 O64     -0.155300
      2 C2          1.1470   -0.6320   -0.2320 ca        1 O64     -0.015000
      3 C3          1.5090   -1.7340    0.5420 ca        1 O64     -0.121000
      4 C4          0.9770   -1.8930    1.8170 ca        1 O64     -0.028000
      5 C5          0.0850   -0.9350    2.3300 ca        1 O64     -0.215600
      6 C6         -0.3010    0.1670    1.5430 ca        1 O64      0.083400
      7 CL7        -1.4470    1.2700    2.1360 cl        1 O64     -0.016400
      8 C8         -0.4520   -1.2070    3.6750 c         1 O64      0.577700
      9 N9         -0.3990   -0.0380    4.6360 n4        1 O64     -0.681800
     10 O10        -0.8770   -2.2710    4.0970 o         1 O64     -0.400100
     11 C11        -0.9760   -0.2910    5.9990 c3        1 O64     -0.020500
     12 C12        -2.3500    0.3650    6.1760 c         1 O64      0.567900
     13 O13        -2.8220    1.1130    5.3260 o         1 O64     -0.485100
     14 C14        -0.0530    0.2060    7.1190 c3        1 O64     -0.101400
     15 C15         1.2450   -0.5540    7.1850 c3        1 O64     -0.117100
     16 C16        -0.1200    1.5060   -0.6450 c3        1 O64      0.695200
     17 F17         0.5390    1.5020   -1.8480 f         1 O64     -0.212633
     18 F18        -1.4470    1.5680   -0.9810 f         1 O64     -0.212633
     19 F19         0.1780    2.7280   -0.0980 f         1 O64     -0.212633
     20 H2          1.5710   -0.5080   -1.2470 ha        1 O64      0.193000
     21 H3          2.2110   -2.4850    0.1390 ha        1 O64      0.184000
     22 H4          1.2440   -2.7750    2.4250 ha        1 O64      0.173000
     23 HN9         0.5840    0.2450    4.7330 hn        1 O64      0.474800
     24 H11        -1.1170   -1.4120    6.1180 hx        1 O64      0.147700
     25 H12        -2.8510    0.0980    7.1300 h4        1 O64      0.074200
     26 H14         0.1420    1.3060    7.0060 hc        1 O64      0.087200
     27 H14A       -0.6120    0.0660    8.0860 hc        1 O64      0.087200
     28 H15         1.7960   -0.2670    8.1170 hc        1 O64      0.058700
     29 H15A        1.0670   -1.6570    7.2160 hc        1 O64      0.058700
     30 H15B        1.9100   -0.3220    6.3180 hc        1 O64      0.058700
     31 H92        -0.9250    0.7480    4.1900 hn        1 O64      0.474800
@<TRIPOS>BOND
     1    1    2 ar  
     2    1    6 ar  
     3    1   16 1   
     4    2    3 ar  
     5    2   20 1   
     6    3    4 ar  
     7    3   21 1   
     8    4    5 ar  
     9    4   22 1   
    10    5    6 ar  
    11    5    8 1   
    12    6    7 1   
    13    8    9 1   
    14    8   10 2   
    15    9   11 1   
    16    9   23 1   
    17    9   31 1   
    18   11   12 1   
    19   11   14 1   
    20   11   24 1   
    21   12   13 2   
    22   12   25 1   
    23   14   15 1   
    24   14   26 1   
    25   14   27 1   
    26   15   28 1   
    27   15   29 1   
    28   15   30 1   
    29   16   17 1   
    30   16   18 1   
    31   16   19 1   
@<TRIPOS>SUBSTRUCTURE
     1 O64         1 TEMP              0 ****  ****    0 ROOT
