@<TRIPOS>MOLECULE
O73
   54    48     1     0     0
SMALL
bcc


@<TRIPOS>ATOM
      1 C1          2.5170    4.0450    1.9790 c1        1 O73     -0.029000
      2 C2          1.4350    3.2220    1.6730 c1        1 O73     -0.211000
      3 C3          0.2550    3.7750    1.2180 c1        1 O73      0.131000
      4 C4          0.1460    5.1630    1.0630 c1        1 O73     -0.108000
      5 C5          1.2320    5.9890    1.3700 c1        1 O73     -0.108000
      6 C6          2.4070    5.4380    1.8240 c1        1 O73     -0.176000
      7 N7          3.4780    6.2610    2.1690 no        1 O73      0.574000
      8 O8          3.3760    7.4710    2.0650 o         1 O73     -0.367000
      9 O9          4.6170    5.7190    2.6490 o         1 O73     -0.367000
     10 O10        -0.8680    2.9250    0.9120 os        1 O73     -0.209000
     11 C11        -1.0000    2.6060   -0.4870 c3        1 O73      0.033000
     12 C12        -2.0100    1.4920   -0.6580 c2        1 O73     -0.133000
     13 C13        -3.3450    1.8770   -0.5260 c1        1 O73     -0.043000
     14 N14        -4.1200    0.7360   -0.5140 n2        1 O73     -0.063000
     15 C15        -3.2830   -0.3530   -0.6370 c1        1 O73     -0.088000
     16 C16        -1.9690    0.1170   -0.7270 c1        1 O73     -0.190000
     17 C17        -3.5810   -1.9000   -0.6840 c1        1 O73      0.344000
     18 C18        -2.4570   -2.8780   -0.8290 c2        1 O73     -0.342000
     19 C19        -1.0600   -2.3890   -0.9240 c1        1 O73      0.081000
     20 C20        -0.7810   -0.9000   -0.8760 c1        1 O73      0.326000
     21 C21        -3.7700    2.3840   -1.9160 c2        1 O73     -0.135000
     22 C22        -5.4270    0.7790    0.0330 c2        1 O73     -0.135000
     23 O23        -4.7150   -2.2940   -0.6060 o         1 O73     -0.314000
     24 O24         0.3750   -0.4900   -0.9540 o         1 O73     -0.308000
     25 N25         0.0020   -3.3060   -1.2240 n3        1 O73     -0.303000
     26 C26         0.6470   -4.0110   -0.1720 c3        1 O73     -0.029000
     27 C27         1.8260   -4.8210   -0.7350 c3        1 O73     -0.173000
     28 C28         2.9100   -4.9980    0.3740 c3        1 O73     -0.167000
     29 C29         4.2800   -5.1450   -0.2810 c3        1 O73     -0.075000
     30 N30         5.2910   -4.9330    0.6830 n3        1 O73     -0.349000
     31 H1          3.4000    3.6340    2.3200 ha        1 O73      0.170000
     32 H2          1.5090    2.2740    1.7790 ha        1 O73      0.170000
     33 H4         -0.6880    5.5520    0.7410 ha        1 O73      0.164500
     34 H5          1.1510    6.9960    1.2580 ha        1 O73      0.164500
     35 H11        -1.3060    3.4050   -0.9790 h1        1 O73      0.123500
     36 H11A       -0.1000    2.3050   -0.8530 h1        1 O73      0.123500
     37 H18        -2.6490   -3.8580   -0.8590 ha        1 O73      0.159000
     38 H21        -3.4600    1.7710   -2.5920 ha        1 O73      0.107000
     39 H21A       -4.7070    2.4450   -1.9560 ha        1 O73      0.107000
     40 H21B       -3.3930    3.2380   -2.0690 ha        1 O73      0.107000
     41 H22        -5.4960    1.5440    0.6570 ha        1 O73      0.107000
     42 H22A       -6.0680    0.8850   -0.6770 ha        1 O73      0.107000
     43 H22B       -5.6090   -0.0560    0.5170 ha        1 O73      0.107000
     44 HN25        0.3040   -3.3810   -2.0640 hn        1 O73      0.244000
     45 H26         0.0330   -4.5940    0.2350 h1        1 O73      0.089500
     46 H26A        0.9800   -3.3690    0.4930 h1        1 O73      0.089500
     47 H27         2.2220   -4.3420   -1.5120 hc        1 O73      0.096000
     48 H27A        1.5050   -5.7080   -1.0250 hc        1 O73      0.096000
     49 H28         2.7080   -5.8100    0.9080 hc        1 O73      0.090000
     50 H28A        2.9110   -4.2470    0.9360 hc        1 O73      0.090000
     51 H29         4.3740   -4.4680   -1.0150 h1        1 O73      0.064500
     52 H29A        4.3680   -6.0530   -0.6570 h1        1 O73      0.064500
     53 HN30        5.9130   -5.6080    0.6240 hn        1 O73      0.147500
     54 HN3A        5.6940   -4.1400    0.5260 hn        1 O73      0.147500
@<TRIPOS>BOND
     1    1    6 1   
     2    1   31 1   
     3    2    3 1   
     4    2   32 1   
     5    3   10 1   
     6    4    5 1   
     7    4   33 1   
     8    5   34 1   
     9    6    7 1   
    10    7    8 1   
    11    7    9 1   
    12   10   11 1   
    13   11   12 1   
    14   11   35 1   
    15   11   36 1   
    16   12   13 1   
    17   12   16 1   
    18   13   14 1   
    19   14   15 1   
    20   15   16 1   
    21   17   18 1   
    22   17   23 1   
    23   18   19 1   
    24   18   37 1   
    25   19   25 1   
    26   20   24 1   
    27   21   38 1   
    28   21   39 1   
    29   21   40 1   
    30   22   41 1   
    31   22   42 1   
    32   22   43 1   
    33   25   26 1   
    34   25   44 1   
    35   26   27 1   
    36   26   45 1   
    37   26   46 1   
    38   27   28 1   
    39   27   47 1   
    40   27   48 1   
    41   28   29 1   
    42   28   49 1   
    43   28   50 1   
    44   29   30 1   
    45   29   51 1   
    46   29   52 1   
    47   30   53 1   
    48   30   54 1   
@<TRIPOS>SUBSTRUCTURE
     1 O73         1 TEMP              0 ****  ****    0 ROOT
