@<TRIPOS>MOLECULE
O73
   54    56     1     0     0
SMALL
bcc


@<TRIPOS>ATOM
      1 C1          5.8060    0.5970   -1.1620 ca        1 O73     -0.031000
      2 C2          4.7020   -0.2390   -1.1690 ca        1 O73     -0.198000
      3 C3          3.7380   -0.1340   -0.1430 ca        1 O73      0.177100
      4 C4          3.8870    0.8110    0.8830 ca        1 O73     -0.198000
      5 C5          4.9950    1.6520    0.8890 ca        1 O73     -0.031000
      6 C6          5.9550    1.5440   -0.1300 ca        1 O73     -0.222200
      7 N7          7.1360    2.4380   -0.1220 no        1 O73      0.319200
      8 O8          7.9520    2.3360   -1.0010 o         1 O73     -0.215500
      9 O9          7.2540    3.2430    0.7630 o         1 O73     -0.215500
     10 O10         2.6990   -1.0240   -0.2420 os        1 O73     -0.322900
     11 C11         1.6420   -0.8740    0.7300 c3        1 O73      0.191700
     12 C12         0.5550   -1.7950    0.3530 cc        1 O73     -0.108300
     13 C13         0.6530   -3.1770    0.0770 cd        1 O73     -0.073600
     14 N14        -0.6300   -3.6700   -0.1980 na        1 O73      0.001900
     15 C15        -1.5360   -2.6240   -0.1040 cd        1 O73     -0.133900
     16 C16        -0.8300   -1.4440    0.2380 cc        1 O73     -0.205600
     17 C17        -2.9930   -2.6410   -0.3090 c         1 O73      0.623900
     18 C18        -3.6390   -1.3490   -0.1470 cc        1 O73     -0.368200
     19 C19        -2.9920   -0.1890    0.1880 cd        1 O73      0.150800
     20 C20        -1.4890   -0.1700    0.4170 c         1 O73      0.605900
     21 C21         1.8630   -4.0180    0.0650 c3        1 O73     -0.039800
     22 C22        -0.9140   -5.0290   -0.5420 c3        1 O73     -0.003400
     23 O23        -3.6170   -3.6740   -0.5990 o         1 O73     -0.557100
     24 O24        -0.9060    0.8770    0.7320 o         1 O73     -0.541100
     25 N25        -3.6360    1.0090    0.3630 nh        1 O73     -0.756000
     26 C26        -5.0360    1.1780    0.0890 c3        1 O73      0.212800
     27 C27        -5.5110    2.6210    0.2600 c3        1 O73     -0.094400
     28 C28        -6.9930    2.7060   -0.0350 c3        1 O73     -0.082400
     29 C29        -7.4770    4.1460    0.1350 c3        1 O73      0.160800
     30 N30        -8.8720    4.3180   -0.1920 n3        1 O73     -0.916800
     31 H1          6.5660    0.5240   -1.9600 ha        1 O73      0.171500
     32 H2          4.5630   -0.9850   -1.9660 ha        1 O73      0.159000
     33 H4          3.1400    0.9030    1.6850 ha        1 O73      0.159000
     34 H5          5.1190    2.3990    1.6920 ha        1 O73      0.171500
     35 H11         2.0570   -1.1380    1.7420 h1        1 O73      0.068200
     36 H11A        1.2760    0.1890    0.7260 h1        1 O73      0.068200
     37 H18        -4.7290   -1.3670   -0.3140 ha        1 O73      0.158000
     38 H21         1.8150   -4.7940    0.8700 hc        1 O73      0.059700
     39 H21A        1.9780   -4.5380   -0.9200 hc        1 O73      0.059700
     40 H21B        2.7610   -3.3720    0.2340 hc        1 O73      0.059700
     41 H22        -0.4560   -5.7100    0.2260 h1        1 O73      0.073033
     42 H22A       -2.0250   -5.1940   -0.5790 h1        1 O73      0.073033
     43 H22B       -0.4680   -5.2640   -1.5470 h1        1 O73      0.073033
     44 HN25       -3.0830    1.8160    0.5440 hn        1 O73      0.452800
     45 H26        -5.2580    0.8400   -0.9670 h1        1 O73      0.049200
     46 H26A       -5.6240    0.5100    0.7850 h1        1 O73      0.049200
     47 H27        -5.3120    2.9710    1.3070 hc        1 O73      0.051200
     48 H27A       -4.9480    3.2980   -0.4350 hc        1 O73      0.051200
     49 H28        -7.1940    2.3580   -1.0820 hc        1 O73      0.052200
     50 H28A       -7.5570    2.0280    0.6580 hc        1 O73      0.052200
     51 H29        -7.2340    4.4730    1.1910 h1        1 O73      0.025700
     52 H29A       -6.8860    4.8110   -0.5590 h1        1 O73      0.025700
     53 HN30       -9.4450    3.6780    0.3200 hn        1 O73      0.351300
     54 HN3A       -9.1630    5.2540    0.0050 hn        1 O73      0.351300
@<TRIPOS>BOND
     1    1    2 ar  
     2    1    6 ar  
     3    1   31 1   
     4    2    3 ar  
     5    2   32 1   
     6    3    4 ar  
     7    3   10 1   
     8    4    5 ar  
     9    4   33 1   
    10    5    6 ar  
    11    5   34 1   
    12    6    7 1   
    13    7    8 1   
    14    7    9 1   
    15   10   11 1   
    16   11   12 1   
    17   11   35 1   
    18   11   36 1   
    19   12   13 2   
    20   12   16 1   
    21   13   14 1   
    22   13   21 1   
    23   14   15 1   
    24   14   22 1   
    25   15   16 2   
    26   15   17 1   
    27   16   20 1   
    28   17   18 1   
    29   17   23 2   
    30   18   19 2   
    31   18   37 1   
    32   19   20 1   
    33   19   25 1   
    34   20   24 2   
    35   21   38 1   
    36   21   39 1   
    37   21   40 1   
    38   22   41 1   
    39   22   42 1   
    40   22   43 1   
    41   25   26 1   
    42   25   44 1   
    43   26   27 1   
    44   26   45 1   
    45   26   46 1   
    46   27   28 1   
    47   27   47 1   
    48   27   48 1   
    49   28   29 1   
    50   28   49 1   
    51   28   50 1   
    52   29   30 1   
    53   29   51 1   
    54   29   52 1   
    55   30   53 1   
    56   30   54 1   
@<TRIPOS>SUBSTRUCTURE
     1 O73         1 TEMP              0 ****  ****    0 ROOT
