@<TRIPOS>MOLECULE
O73
   54    56     1     0     0
SMALL
bcc


@<TRIPOS>ATOM
      1 C1         -0.0350    1.0090    0.2890 ca        1 O73     -0.031000
      2 C2          1.3470    1.0220    0.3790 ca        1 O73     -0.198000
      3 C3          1.9850    0.3510    1.4450 ca        1 O73      0.177100
      4 C4          1.2320   -0.3310    2.4130 ca        1 O73     -0.198000
      5 C5         -0.1560   -0.3440    2.3210 ca        1 O73     -0.031000
      6 C6         -0.7890    0.3260    1.2620 ca        1 O73     -0.222200
      7 N7         -2.2670    0.3130    1.1660 no        1 O73      0.319200
      8 O8         -2.7980    0.8910    0.2550 o         1 O73     -0.215500
      9 O9         -2.9020   -0.2730    2.0030 o         1 O73     -0.215500
     10 O10         3.3540    0.4460    1.4420 os        1 O73     -0.322900
     11 C11         4.0430   -0.3160    2.4570 c3        1 O73      0.191700
     12 C12         5.4870   -0.2220    2.1810 cc        1 O73     -0.108300
     13 C13         6.2510    0.9490    1.9780 cd        1 O73     -0.073600
     14 N14         7.5910    0.5810    1.7910 na        1 O73      0.002900
     15 C15         7.6860   -0.8010    1.8670 cd        1 O73     -0.134900
     16 C16         6.3940   -1.3290    2.1100 cc        1 O73     -0.204600
     17 C17         8.8770   -1.6560    1.7330 c         1 O73      0.623900
     18 C18         8.6060   -3.0820    1.8220 cc        1 O73     -0.366200
     19 C19         7.3690   -3.6300    2.0350 cd        1 O73      0.147800
     20 C20         6.1510   -2.7470    2.2530 c         1 O73      0.605900
     21 C21         5.7850    2.3470    1.9550 c3        1 O73     -0.039800
     22 C22         8.6530    1.5060    1.5380 c3        1 O73     -0.003400
     23 O23        10.0150   -1.1960    1.5540 o         1 O73     -0.557100
     24 O24         5.0520   -3.2390    2.5450 o         1 O73     -0.541100
     25 N25         7.1340   -4.9820    2.0430 nh        1 O73     -0.752000
     26 C26         8.2000   -5.9450    1.9900 c3        1 O73      0.210800
     27 C27         7.7140   -7.3870    2.1280 c3        1 O73     -0.093400
     28 C28         8.8940   -8.3310    2.0480 c3        1 O73     -0.082400
     29 C29         8.4150   -9.7770    2.1820 c3        1 O73      0.160800
     30 N30         9.4950  -10.7340    2.1800 n3        1 O73     -0.916800
     31 H1         -0.5440    1.5300   -0.5410 ha        1 O73      0.171500
     32 H2          1.9580    1.5460   -0.3700 ha        1 O73      0.159000
     33 H4          1.7200   -0.8590    3.2450 ha        1 O73      0.159000
     34 H5         -0.7550   -0.8790    3.0780 ha        1 O73      0.171500
     35 H11         3.7040   -1.3880    2.4180 h1        1 O73      0.068700
     36 H11A        3.7970    0.1320    3.4590 h1        1 O73      0.068700
     37 H18         9.4980   -3.7170    1.6900 ha        1 O73      0.158000
     38 H21         4.6690    2.3620    2.0440 hc        1 O73      0.059700
     39 H21A        6.0740    2.8490    0.9970 hc        1 O73      0.059700
     40 H21B        6.2270    2.9260    2.8050 hc        1 O73      0.059700
     41 H22         8.6380    2.3120    2.3210 h1        1 O73      0.073033
     42 H22A        8.5080    1.9790    0.5290 h1        1 O73      0.073033
     43 H22B        9.6430    0.9730    1.5630 h1        1 O73      0.073033
     44 HN25        6.2280   -5.2930    2.3130 hn        1 O73      0.450800
     45 H26         8.7380   -5.8290    1.0040 h1        1 O73      0.049700
     46 H26A        8.9500   -5.7300    2.8090 h1        1 O73      0.049700
     47 H27         7.1860   -7.5250    3.1090 hc        1 O73      0.051700
     48 H27A        6.9800   -7.6260    1.3140 hc        1 O73      0.051700
     49 H28         9.6270   -8.0960    2.8640 hc        1 O73      0.052200
     50 H28A        9.4240   -8.1920    1.0700 hc        1 O73      0.052200
     51 H29         7.8700   -9.8890    3.1630 h1        1 O73      0.025700
     52 H29A        7.6600   -9.9710    1.3620 h1        1 O73      0.025700
     53 HN30       10.0820  -10.6160    1.3790 hn        1 O73      0.351300
     54 HN3A        9.1330  -11.6670    2.1910 hn        1 O73      0.351300
@<TRIPOS>BOND
     1    1    2 ar  
     2    1    6 ar  
     3    1   31 1   
     4    2    3 ar  
     5    2   32 1   
     6    3    4 ar  
     7    3   10 1   
     8    4    5 ar  
     9    4   33 1   
    10    5    6 ar  
    11    5   34 1   
    12    6    7 1   
    13    7    8 1   
    14    7    9 1   
    15   10   11 1   
    16   11   12 1   
    17   11   35 1   
    18   11   36 1   
    19   12   13 2   
    20   12   16 1   
    21   13   14 1   
    22   13   21 1   
    23   14   15 1   
    24   14   22 1   
    25   15   16 2   
    26   15   17 1   
    27   16   20 1   
    28   17   18 1   
    29   17   23 2   
    30   18   19 2   
    31   18   37 1   
    32   19   20 1   
    33   19   25 1   
    34   20   24 2   
    35   21   38 1   
    36   21   39 1   
    37   21   40 1   
    38   22   41 1   
    39   22   42 1   
    40   22   43 1   
    41   25   26 1   
    42   25   44 1   
    43   26   27 1   
    44   26   45 1   
    45   26   46 1   
    46   27   28 1   
    47   27   47 1   
    48   27   48 1   
    49   28   29 1   
    50   28   49 1   
    51   28   50 1   
    52   29   30 1   
    53   29   51 1   
    54   29   52 1   
    55   30   53 1   
    56   30   54 1   
@<TRIPOS>SUBSTRUCTURE
     1 O73         1 TEMP              0 ****  ****    0 ROOT
