@<TRIPOS>MOLECULE
O73
   56    58     1     0     0
SMALL
bcc


@<TRIPOS>ATOM
      1 C1          0.1250   -0.0050    0.8450 ca        1 O73     -0.033000
      2 C2          1.4780    0.3040    0.8370 ca        1 O73     -0.188500
      3 C3          2.3130   -0.2190    1.8440 ca        1 O73      0.147100
      4 C4          1.7970   -1.0320    2.8610 ca        1 O73     -0.188500
      5 C5          0.4400   -1.3440    2.8660 ca        1 O73     -0.033000
      6 C6         -0.3900   -0.8420    1.8530 ca        1 O73     -0.203200
      7 N7         -1.8330   -1.2020    1.8440 no        1 O73      0.317200
      8 O8         -2.5400   -0.7360    0.9940 o         1 O73     -0.196000
      9 O9         -2.2400   -1.9590    2.6840 o         1 O73     -0.196000
     10 O10         3.6390    0.1590    1.7470 os        1 O73     -0.325900
     11 C11         4.5520   -0.5760    2.5780 c3        1 O73      0.182700
     12 C12         5.9180   -0.2600    2.1110 cc        1 O73     -0.068300
     13 C13         6.5190    1.0290    2.0710 cd        1 O73     -0.025600
     14 N14         7.8240    0.9020    1.5970 na        1 O73      0.047900
     15 C15         8.0680   -0.4350    1.3170 cd        1 O73     -0.187900
     16 C16         6.8910   -1.1840    1.6310 cc        1 O73     -0.201600
     17 C17         9.2780   -1.0400    0.7970 c         1 O73      0.588900
     18 C18         9.1480   -2.5030    0.5020 cc        1 O73     -0.081200
     19 C19         8.0330   -3.2050    0.7870 cd        1 O73     -0.136200
     20 C20         6.8070   -2.6030    1.4480 c         1 O73      0.641900
     21 C21         5.9050    2.3140    2.4560 c3        1 O73     -0.061800
     22 C22         8.7350    1.9960    1.4030 c3        1 O73     -0.019400
     23 O23        10.3500   -0.4710    0.5820 o         1 O73     -0.445100
     24 O24         5.8720   -3.3500    1.7660 o         1 O73     -0.550100
     25 N25         7.9130   -4.6280    0.4290 n4        1 O73     -0.633800
     26 C26         8.0050   -5.5170    1.6310 c3        1 O73      0.103800
     27 C27         7.7290   -6.9820    1.3000 c3        1 O73     -0.106400
     28 C28         7.7120   -7.7900    2.5870 c3        1 O73     -0.106400
     29 C29         7.4010   -9.2490    2.2610 c3        1 O73      0.100800
     30 N30         7.3340  -10.1180    3.4700 n4        1 O73     -0.837600
     31 H1         -0.5440    0.4000    0.0640 ha        1 O73      0.181000
     32 H2          1.9030    0.9560    0.0590 ha        1 O73      0.155500
     33 H4          2.4380   -1.4170    3.6660 ha        1 O73      0.155500
     34 H5          0.0190   -1.9800    3.6650 ha        1 O73      0.181000
     35 H11         4.4140   -0.2420    3.6430 h1        1 O73      0.069700
     36 H11A        4.3510   -1.6790    2.4900 h1        1 O73      0.069700
     37 H18        10.0460   -2.9390    0.0210 ha        1 O73      0.181000
     38 H21         4.8100    2.1560    2.6360 hc        1 O73      0.082700
     39 H21A        6.3760    2.7130    3.3910 hc        1 O73      0.082700
     40 H21B        6.0250    3.0770    1.6450 hc        1 O73      0.082700
     41 H22         8.6310    2.7160    2.2600 h1        1 O73      0.092700
     42 H22A        8.4830    2.5270    0.4430 h1        1 O73      0.092700
     43 H22B        9.7910    1.6160    1.3530 h1        1 O73      0.092700
     44 HN25        6.9810   -4.7520   -0.0020 hn        1 O73      0.464300
     45 H26         7.2430   -5.1390    2.3800 hx        1 O73      0.124700
     46 H26A        9.0360   -5.3990    2.0700 hx        1 O73      0.124700
     47 H27         8.5210   -7.3820    0.6120 hc        1 O73      0.080700
     48 H27A        6.7370   -7.0850    0.7810 hc        1 O73      0.080700
     49 H28         6.9340   -7.3710    3.2820 hc        1 O73      0.084200
     50 H28A        8.7090   -7.7080    3.0980 hc        1 O73      0.084200
     51 H29         6.4030   -9.3220    1.7340 hx        1 O73      0.122200
     52 H29A        8.1980   -9.6710    1.5800 hx        1 O73      0.122200
     53 HN30        7.1230  -11.0850    3.1900 hn        1 O73      0.473133
     54 HN3A        8.2300  -10.1090    3.9720 hn        1 O73      0.473133
     55 H252        8.6330   -4.8860   -0.2560 hn        1 O73      0.464300
     56 H303        6.5990   -9.7920    4.1090 hn        1 O73      0.473133
@<TRIPOS>BOND
     1    1    2 ar  
     2    1    6 ar  
     3    1   31 1   
     4    2    3 ar  
     5    2   32 1   
     6    3    4 ar  
     7    3   10 1   
     8    4    5 ar  
     9    4   33 1   
    10    5    6 ar  
    11    5   34 1   
    12    6    7 1   
    13    7    8 1   
    14    7    9 1   
    15   10   11 1   
    16   11   12 1   
    17   11   35 1   
    18   11   36 1   
    19   12   13 2   
    20   12   16 1   
    21   13   14 1   
    22   13   21 1   
    23   14   15 1   
    24   14   22 1   
    25   15   16 2   
    26   15   17 1   
    27   16   20 1   
    28   17   18 1   
    29   17   23 2   
    30   18   19 2   
    31   18   37 1   
    32   19   20 1   
    33   19   25 1   
    34   20   24 2   
    35   21   38 1   
    36   21   39 1   
    37   21   40 1   
    38   22   41 1   
    39   22   42 1   
    40   22   43 1   
    41   25   26 1   
    42   25   44 1   
    43   25   55 1   
    44   26   27 1   
    45   26   45 1   
    46   26   46 1   
    47   27   28 1   
    48   27   47 1   
    49   27   48 1   
    50   28   29 1   
    51   28   49 1   
    52   28   50 1   
    53   29   30 1   
    54   29   51 1   
    55   29   52 1   
    56   30   53 1   
    57   30   54 1   
    58   30   56 1   
@<TRIPOS>SUBSTRUCTURE
     1 O73         1 TEMP              0 ****  ****    0 ROOT
