@<TRIPOS>MOLECULE
O73
   56    58     1     0     0
SMALL
bcc


@<TRIPOS>ATOM
      1 C1          0.1360    0.0140    0.8480 ca        1 O73     -0.033000
      2 C2          1.4900    0.3210    0.8490 ca        1 O73     -0.188500
      3 C3          2.3190   -0.2130    1.8550 ca        1 O73      0.147100
      4 C4          1.7970   -1.0340    2.8620 ca        1 O73     -0.188500
      5 C5          0.4400   -1.3440    2.8580 ca        1 O73     -0.033000
      6 C6         -0.3850   -0.8310    1.8450 ca        1 O73     -0.203200
      7 N7         -1.8280   -1.1890    1.8270 no        1 O73      0.317200
      8 O8         -2.5310   -0.7140    0.9780 o         1 O73     -0.196000
      9 O9         -2.2410   -1.9530    2.6570 o         1 O73     -0.196000
     10 O10         3.6460    0.1640    1.7670 os        1 O73     -0.325900
     11 C11         4.5540   -0.5810    2.5950 c3        1 O73      0.182700
     12 C12         5.9230   -0.2630    2.1380 cc        1 O73     -0.068300
     13 C13         6.5270    1.0260    2.1140 cd        1 O73     -0.025600
     14 N14         7.8340    0.9000    1.6440 na        1 O73      0.047900
     15 C15         8.0750   -0.4340    1.3510 cd        1 O73     -0.187900
     16 C16         6.8960   -1.1840    1.6520 cc        1 O73     -0.201600
     17 C17         9.2870   -1.0360    0.8300 c         1 O73      0.588900
     18 C18         9.1550   -2.4960    0.5190 cc        1 O73     -0.081200
     19 C19         8.0370   -3.1980    0.7920 cd        1 O73     -0.136200
     20 C20         6.8100   -2.6010    1.4540 c         1 O73      0.641900
     21 C21         5.9140    2.3070    2.5100 c3        1 O73     -0.061800
     22 C22         8.7470    1.9940    1.4660 c3        1 O73     -0.019400
     23 O23        10.3610   -0.4680    0.6250 o         1 O73     -0.445100
     24 O24         5.8720   -3.3490    1.7600 o         1 O73     -0.550100
     25 N25         7.9150   -4.6170    0.4180 ny        1 O73     -0.633800
     26 C26         8.0000   -5.5190    1.6110 c3        1 O73      0.103800
     27 C27         7.7220   -6.9800    1.2640 c3        1 O73     -0.106400
     28 C28         7.6960   -7.8010    2.5420 c3        1 O73     -0.106400
     29 C29         7.3830   -9.2550    2.2000 c3        1 O73      0.100800
     30 N30         7.3070  -10.1370    3.4000 nz        1 O73     -0.837600
     31 H1         -0.5290    0.4270    0.0670 ha        1 O73      0.181000
     32 H2          1.9190    0.9800    0.0800 ha        1 O73      0.156000
     33 H4          2.4340   -1.4280    3.6660 ha        1 O73      0.156000
     34 H5          0.0140   -1.9870    3.6480 ha        1 O73      0.181000
     35 H11         4.4120   -0.2570    3.6630 h1        1 O73      0.069700
     36 H11A        4.3520   -1.6830    2.4960 h1        1 O73      0.069700
     37 H18        10.0540   -2.9290    0.0370 ha        1 O73      0.181000
     38 H21         6.0390    3.0790    1.7070 hc        1 O73      0.082700
     39 H21A        4.8170    2.1500    2.6830 hc        1 O73      0.082700
     40 H21B        6.3800    2.6950    3.4510 hc        1 O73      0.082700
     41 H22         8.5010    2.5360    0.5100 h1        1 O73      0.092700
     42 H22A        9.8030    1.6120    1.4150 h1        1 O73      0.092700
     43 H22B        8.6420    2.7060    2.3290 h1        1 O73      0.092700
     44 HN25        6.9860   -4.7340   -0.0180 hn        1 O73      0.464300
     45 H26         7.2360   -5.1470    2.3610 hx        1 O73      0.124700
     46 H26A        9.0290   -5.4080    2.0570 hx        1 O73      0.124700
     47 H27         6.7330   -7.0750    0.7390 hc        1 O73      0.080700
     48 H27A        8.5170   -7.3750    0.5760 hc        1 O73      0.080700
     49 H28         6.9150   -7.3870    3.2380 hc        1 O73      0.084200
     50 H28A        8.6900   -7.7260    3.0590 hc        1 O73      0.084200
     51 H29         6.3880   -9.3210    1.6660 hx        1 O73      0.122200
     52 H29A        8.1830   -9.6730    1.5190 hx        1 O73      0.122200
     53 HN30        8.2000  -10.1350    3.9060 hn        1 O73      0.473133
     54 HN3A        6.5690   -9.8150    4.0380 hn        1 O73      0.473133
     55 H252        8.6380   -4.8700   -0.2660 hn        1 O73      0.464300
     56 H303        7.0950  -11.1010    3.1090 hn        1 O73      0.473133
@<TRIPOS>BOND
     1    1    2 ar  
     2    1    6 ar  
     3    1   31 1   
     4    2    3 ar  
     5    2   32 1   
     6    3    4 ar  
     7    3   10 1   
     8    4    5 ar  
     9    4   33 1   
    10    5    6 ar  
    11    5   34 1   
    12    6    7 1   
    13    7    8 1   
    14    7    9 1   
    15   10   11 1   
    16   11   12 1   
    17   11   35 1   
    18   11   36 1   
    19   12   13 2   
    20   12   16 1   
    21   13   14 1   
    22   13   21 1   
    23   14   15 1   
    24   14   22 1   
    25   15   16 2   
    26   15   17 1   
    27   16   20 1   
    28   17   18 1   
    29   17   23 2   
    30   18   19 2   
    31   18   37 1   
    32   19   20 1   
    33   19   25 1   
    34   20   24 2   
    35   21   38 1   
    36   21   39 1   
    37   21   40 1   
    38   22   41 1   
    39   22   42 1   
    40   22   43 1   
    41   25   26 1   
    42   25   44 1   
    43   25   55 1   
    44   26   27 1   
    45   26   45 1   
    46   26   46 1   
    47   27   28 1   
    48   27   47 1   
    49   27   48 1   
    50   28   29 1   
    51   28   49 1   
    52   28   50 1   
    53   29   30 1   
    54   29   51 1   
    55   29   52 1   
    56   30   53 1   
    57   30   54 1   
    58   30   56 1   
@<TRIPOS>SUBSTRUCTURE
     1 O73         1 TEMP              0 ****  ****    0 ROOT
