@<TRIPOS>MOLECULE
O74
   39    42     1     0     0
SMALL
bcc


@<TRIPOS>ATOM
      1 CL          4.2340   -0.2860    1.2770 cl        1 O74     -0.100400
      2 CAB         3.5760    0.9360    0.2860 ca        1 O74     -0.019600
      3 CAC         4.2050    2.1820    0.2580 ca        1 O74     -0.107000
      4 CAD         3.6910    3.2030   -0.5380 ca        1 O74     -0.128000
      5 CAG         2.5550    2.9740   -1.3120 ca        1 O74     -0.115000
      6 CAF         1.9240    1.7340   -1.3010 ca        1 O74     -0.102000
      7 CAE         2.4210    0.6880   -0.4960 ca        1 O74      0.137600
      8 NAJ         1.8370   -0.5980   -0.5230 nh        1 O74     -0.722300
      9 C6          0.4820   -0.8350   -0.2900 cc        1 O74      0.742200
     10 N1         -0.3670    0.1860   -0.1530 nd        1 O74     -0.782000
     11 C5          0.0270   -2.2430   -0.2510 ca        1 O74     -0.240300
     12 CAI         0.8610   -3.3610   -0.4120 ca        1 O74     -0.063000
     13 CAH         0.3440   -4.6440   -0.3530 ca        1 O74     -0.167000
     14 CAK        -1.0280   -4.8430   -0.1330 ca        1 O74     -0.063000
     15 CAO        -1.8800   -3.7670    0.0190 ca        1 O74     -0.178000
     16 C4         -1.3670   -2.4420   -0.0440 ca        1 O74      0.094700
     17 N3         -2.2150   -1.3550    0.0920 na        1 O74     -0.367900
     18 C2         -1.7360   -0.0440    0.0230 cd        1 O74      0.604500
     19 CAS        -2.6150    1.0600    0.1390 cc        1 O74     -0.293200
     20 CAT        -2.0820    2.3950    0.0700 cc        1 O74     -0.029000
     21 CAW        -2.8690    3.4980    0.1700 cd        1 O74     -0.223000
     22 CAY        -4.2820    3.3630    0.3530 cd        1 O74     -0.052000
     23 CAX        -4.8480    2.1370    0.4290 cc        1 O74     -0.262200
     24 CAV        -4.0580    0.9080    0.3300 c         1 O74      0.582500
     25 OAU        -4.6430   -0.2000    0.4100 o         1 O74     -0.658100
     26 HAC         5.1030    2.3570    0.8710 ha        1 O74      0.151000
     27 HAD         4.1840    4.1860   -0.5530 ha        1 O74      0.142000
     28 HAG         2.1480    3.7800   -1.9420 ha        1 O74      0.143000
     29 HAF         1.0280    1.5780   -1.9240 ha        1 O74      0.161000
     30 HAI         1.9390   -3.2440   -0.6000 ha        1 O74      0.137000
     31 HAH         1.0060   -5.5130   -0.4800 ha        1 O74      0.144000
     32 HAK        -1.4270   -5.8690   -0.0840 ha        1 O74      0.145000
     33 HAO        -2.9570   -3.9300    0.1850 ha        1 O74      0.155000
     34 HAT        -0.9960    2.5260   -0.0680 ha        1 O74      0.139000
     35 HAW1       -2.4400    4.5080    0.1160 ha        1 O74      0.128000
     36 HAY        -4.8890    4.2780    0.4300 ha        1 O74      0.125000
     37 HAX        -5.9290    1.9980    0.5700 ha        1 O74      0.143000
     38 H3         -3.2000   -1.5140    0.2340 hn        1 O74      0.352700
     39 H14         2.4490   -1.3410   -0.2510 hn        1 O74      0.444800
@<TRIPOS>BOND
     1    1    2 1   
     2    2    3 ar  
     3    2    7 ar  
     4    3    4 ar  
     5    3   26 1   
     6    4    5 ar  
     7    4   27 1   
     8    5    6 ar  
     9    5   28 1   
    10    6    7 ar  
    11    6   29 1   
    12    7    8 1   
    13    8    9 1   
    14    8   39 1   
    15    9   10 2   
    16    9   11 1   
    17   10   18 1   
    18   11   12 ar  
    19   11   16 ar  
    20   12   13 ar  
    21   12   30 1   
    22   13   14 ar  
    23   13   31 1   
    24   14   15 ar  
    25   14   32 1   
    26   15   16 ar  
    27   15   33 1   
    28   16   17 1   
    29   17   18 1   
    30   17   38 1   
    31   18   19 2   
    32   19   20 1   
    33   19   24 1   
    34   20   21 2   
    35   20   34 1   
    36   21   22 1   
    37   21   35 1   
    38   22   23 2   
    39   22   36 1   
    40   23   24 1   
    41   23   37 1   
    42   24   25 2   
@<TRIPOS>SUBSTRUCTURE
     1 O74         1 TEMP              0 ****  ****    0 ROOT
