@<TRIPOS>MOLECULE
O74
   39    34     1     0     0
SMALL
bcc


@<TRIPOS>ATOM
      1 CL          1.1650   -0.0640    1.7770 cl        1 O74      0.013000
      2 CAB         0.3100   -1.3520    2.5850 c2        1 O74     -0.039000
      3 CAC         0.3150   -1.4250    3.9690 c2        1 O74     -0.117000
      4 CAD        -0.3230   -2.4750    4.6100 c1        1 O74     -0.121000
      5 CAG        -0.9660   -3.4530    3.8670 c1        1 O74     -0.131250
      6 CAF        -0.9720   -3.3800    2.4830 c1        1 O74     -0.131250
      7 CAE        -0.3330   -2.3300    1.8410 c1        1 O74      0.043000
      8 NAJ        -0.2650   -2.3020    0.4200 n3        1 O74     -0.243000
      9 C6         -0.3680   -1.0610   -0.2740 c2        1 O74      0.213000
     10 N1          0.5000   -0.0070    0.0470 n1        1 O74     -0.241000
     11 C5         -1.3030   -0.9340   -1.4510 c2        1 O74     -0.173000
     12 CAI        -2.1570   -1.9980   -1.7890 c2        1 O74     -0.062000
     13 CAH        -3.0010   -1.8890   -2.8860 c1        1 O74     -0.168000
     14 CAK        -3.0020   -0.7280   -3.6500 c1        1 O74     -0.131250
     15 CAO        -2.1590    0.3220   -3.3170 c1        1 O74     -0.131250
     16 C4         -1.3040    0.2130   -2.2060 c1        1 O74      0.118000
     17 N3         -0.3990    1.3090   -1.8700 n3        1 O74     -0.254000
     18 C2          0.4980    1.1880   -0.7430 c1        1 O74      0.252000
     19 CAS         1.4250    2.1500   -0.5120 c1        1 O74     -0.272000
     20 CAT         2.8900    1.8580   -0.7540 c1        1 O74     -0.131250
     21 CAW         3.9020    2.9840   -0.7200 c1        1 O74     -0.131250
     22 CAY         3.4590    4.3880   -0.3690 c1        1 O74     -0.131250
     23 CAX         1.9940    4.6810   -0.1260 c1        1 O74     -0.131250
     24 CAV         0.9820    3.5550   -0.1600 c1        1 O74      0.305000
     25 OAU        -0.1970    3.7910    0.0360 o         1 O74     -0.419000
     26 HAC         0.7680   -0.7370    4.4930 ha        1 O74      0.152000
     27 HAD        -0.3200   -2.5260    5.5840 ha        1 O74      0.142000
     28 HAG        -1.4150   -4.1910    4.3180 ha        1 O74      0.138875
     29 HAF        -1.4250   -4.0680    1.9600 ha        1 O74      0.138875
     30 HAI        -2.1570   -2.8150   -1.2510 ha        1 O74      0.136000
     31 HAH        -3.5940   -2.6280   -3.1200 ha        1 O74      0.143000
     32 HAK        -3.5950   -0.6520   -4.4210 ha        1 O74      0.138875
     33 HAO        -2.1600    1.1370   -3.8530 ha        1 O74      0.138875
     34 HAT         3.1750    0.9540   -0.9800 ha        1 O74      0.138875
     35 HAW1        4.8470    2.7950   -0.8760 ha        1 O74      0.138875
     36 HAY         4.1110    5.1140   -0.3460 ha        1 O74      0.138875
     37 HAX         1.7090    5.5880    0.1010 ha        1 O74      0.138875
     38 H3         -0.3990    2.0690   -2.3720 hn        1 O74      0.303000
     39 H14        -0.2360   -3.0810   -0.0470 hn        1 O74      0.230000
@<TRIPOS>BOND
     1    1    2 1   
     2    2    3 1   
     3    2    7 1   
     4    3    4 1   
     5    3   26 1   
     6    4   27 1   
     7    5    6 1   
     8    5   28 1   
     9    6   29 1   
    10    7    8 1   
    11    8    9 1   
    12    8   39 1   
    13    9   10 1   
    14    9   11 1   
    15   11   12 1   
    16   11   16 1   
    17   12   13 1   
    18   12   30 1   
    19   13   31 1   
    20   14   15 1   
    21   14   32 1   
    22   15   33 1   
    23   16   17 1   
    24   17   18 1   
    25   17   38 1   
    26   18   19 1   
    27   19   24 1   
    28   20   21 1   
    29   20   34 1   
    30   21   35 1   
    31   22   23 1   
    32   22   36 1   
    33   23   37 1   
    34   24   25 1   
@<TRIPOS>SUBSTRUCTURE
     1 O74         1 TEMP              0 ****  ****    0 ROOT
