@<TRIPOS>MOLECULE
O74
   40    43     1     0     0
SMALL
bcc


@<TRIPOS>ATOM
      1 CL          0.5830    1.4480   -0.4770 cl        1 O74     -0.038400
      2 CAB         2.0310    0.6090   -0.2120 ca        1 O74      0.034400
      3 CAC         2.6920    0.7340    1.0130 ca        1 O74     -0.099000
      4 CAD         3.8830    0.0450    1.2380 ca        1 O74     -0.064000
      5 CAG         4.4250   -0.7720    0.2450 ca        1 O74     -0.106000
      6 CAF         3.7830   -0.9100   -0.9830 ca        1 O74     -0.076000
      7 CAE         2.5750   -0.2270   -1.2120 ca        1 O74     -0.044400
      8 NAJ         1.8810   -0.3920   -2.4900 n4        1 O74     -0.629100
      9 C6          2.3960    0.4220   -3.6310 cc        1 O74      0.570200
     10 N1          3.4730    1.1430   -3.4570 nd        1 O74     -0.636000
     11 C5          1.6330    0.3330   -4.8740 ca        1 O74     -0.271300
     12 CAI         0.4770   -0.4440   -5.0760 ca        1 O74     -0.091000
     13 CAH        -0.1600   -0.4430   -6.3010 ca        1 O74     -0.135000
     14 CAK         0.3420    0.3380   -7.3600 ca        1 O74     -0.038000
     15 CAO         1.4730    1.1100   -7.1970 ca        1 O74     -0.166000
     16 C4          2.1490    1.1250   -5.9440 ca        1 O74      0.125700
     17 N3          3.2850    1.8910   -5.7610 na        1 O74     -0.366900
     18 C2          3.9730    1.9240   -4.5350 cd        1 O74      0.512500
     19 CAS         5.1230    2.6910   -4.3360 cc        1 O74     -0.181200
     20 CAT         5.7840    2.7010   -3.0480 cc        1 O74     -0.098000
     21 CAW         6.9020    3.4270   -2.8140 cd        1 O74     -0.138000
     22 CAY         7.4900    4.2320   -3.8520 cd        1 O74     -0.061000
     23 CAX         6.9310    4.2770   -5.0770 cc        1 O74     -0.230200
     24 CAV         5.7180    3.5210   -5.4090 c         1 O74      0.574500
     25 OAU         5.2360    3.5960   -6.5570 o         1 O74     -0.581100
     26 HAC         2.2670    1.3820    1.8000 ha        1 O74      0.183000
     27 HAD         4.4000    0.1510    2.2080 ha        1 O74      0.174000
     28 HAG         5.3690   -1.3130    0.4260 ha        1 O74      0.174000
     29 HAF         4.2310   -1.5480   -1.7630 ha        1 O74      0.162000
     30 HAI         0.0610   -1.0650   -4.2690 ha        1 O74      0.121000
     31 HAH        -1.0650   -1.0520   -6.4580 ha        1 O74      0.164000
     32 HAK        -0.1810    0.3280   -8.3320 ha        1 O74      0.168000
     33 HAO         1.8580    1.7170   -8.0340 ha        1 O74      0.173000
     34 HAT         5.3580    2.0990   -2.2300 ha        1 O74      0.138000
     35 HAW1        7.3880    3.4210   -1.8260 ha        1 O74      0.147000
     36 HAY         8.4010    4.8050   -3.6130 ha        1 O74      0.152000
     37 HAX         7.3490    4.8830   -5.8980 ha        1 O74      0.168000
     38 H3          3.6330    2.4460   -6.5270 hn        1 O74      0.362700
     39 H14         0.8860   -0.1330   -2.3690 hn        1 O74      0.472800
     40 HAJ2        1.9430   -1.3790   -2.7760 hn        1 O74      0.472800
@<TRIPOS>BOND
     1    1    2 1   
     2    2    3 ar  
     3    2    7 ar  
     4    3    4 ar  
     5    3   26 1   
     6    4    5 ar  
     7    4   27 1   
     8    5    6 ar  
     9    5   28 1   
    10    6    7 ar  
    11    6   29 1   
    12    7    8 1   
    13    8    9 1   
    14    8   39 1   
    15    8   40 1   
    16    9   10 2   
    17    9   11 1   
    18   10   18 1   
    19   11   12 ar  
    20   11   16 ar  
    21   12   13 ar  
    22   12   30 1   
    23   13   14 ar  
    24   13   31 1   
    25   14   15 ar  
    26   14   32 1   
    27   15   16 ar  
    28   15   33 1   
    29   16   17 1   
    30   17   18 1   
    31   17   38 1   
    32   18   19 2   
    33   19   20 1   
    34   19   24 1   
    35   20   21 2   
    36   20   34 1   
    37   21   22 1   
    38   21   35 1   
    39   22   23 2   
    40   22   36 1   
    41   23   24 1   
    42   23   37 1   
    43   24   25 2   
@<TRIPOS>SUBSTRUCTURE
     1 O74         1 TEMP              0 ****  ****    0 ROOT
