@<TRIPOS>MOLECULE
O74
   39    42     1     0     0
SMALL
bcc


@<TRIPOS>ATOM
      1 Cl          0.0580    0.3840   -0.2150 cl        1 O74     -0.100400
      2 CAB         1.7310    0.1000   -0.0450 ca        1 O74     -0.019600
      3 CAC         2.2810    0.1020    1.2380 ca        1 O74     -0.107000
      4 CAD         3.6440   -0.1240    1.4120 ca        1 O74     -0.128000
      5 CAG         4.4550   -0.3590    0.3030 ca        1 O74     -0.115000
      6 CAF         3.9190   -0.3740   -0.9810 ca        1 O74     -0.102000
      7 CAE         2.5420   -0.1400   -1.1820 ca        1 O74      0.137600
      8 NAJ         1.9660   -0.2190   -2.4700 nu        1 O74     -0.722300
      9 C6          2.4240    0.5130   -3.5660 cc        1 O74      0.742200
     10 N1          3.5370    1.2440   -3.4710 nd        1 O74     -0.782000
     11 C5          1.6620    0.4070   -4.8290 ca        1 O74     -0.240300
     12 CAI         0.5000   -0.3620   -5.0050 ca        1 O74     -0.063000
     13 CAH        -0.1500   -0.3930   -6.2270 ca        1 O74     -0.167000
     14 CAK         0.3490    0.3440   -7.3120 ca        1 O74     -0.063000
     15 CAO         1.4950    1.1020   -7.1800 ca        1 O74     -0.178000
     16 C4          2.1790    1.1430   -5.9340 ca        1 O74      0.094700
     17 N3          3.3380    1.8880   -5.7930 na        1 O74     -0.367900
     18 C2          4.0330    1.9350   -4.5820 cd        1 O74      0.604500
     19 CAS         5.2310    2.6800   -4.4580 cc        1 O74     -0.293200
     20 CAT         5.9140    2.7090   -3.1910 cc        1 O74     -0.029000
     21 CAW         7.0680    3.4000   -3.0020 cd        1 O74     -0.223000
     22 CAY         7.6510    4.1380   -4.0810 cd        1 O74     -0.052000
     23 CAX         7.0600    4.1550   -5.2970 cc        1 O74     -0.262200
     24 CAV         5.8150    3.4340   -5.5670 c         1 O74      0.582500
     25 OAU         5.3150    3.4910   -6.7180 o         1 O74     -0.658100
     26 HAC         1.6350    0.2880    2.1100 ha        1 O74      0.151000
     27 HAD         4.0760   -0.1140    2.4230 ha        1 O74      0.142000
     28 HAG         5.5330   -0.5380    0.4390 ha        1 O74      0.143000
     29 HAF         4.5810   -0.5650   -1.8400 ha        1 O74      0.161000
     30 HAI         0.0860   -0.9630   -4.1810 ha        1 O74      0.137000
     31 HAH        -1.0600   -0.9980   -6.3530 ha        1 O74      0.144000
     32 HAK        -0.1790    0.3130   -8.2780 ha        1 O74      0.145000
     33 HAO         1.8850    1.6730   -8.0370 ha        1 O74      0.155000
     34 HAT         5.4830    2.1510   -2.3430 ha        1 O74      0.139000
     35 HAW1        7.5720    3.4090   -2.0270 ha        1 O74      0.128000
     36 HAY         8.5870    4.6870   -3.8930 ha        1 O74      0.125000
     37 HAX         7.4810    4.7130   -6.1460 ha        1 O74      0.143000
     38 H3          3.6930    2.3990   -6.5860 hn        1 O74      0.352700
     39 H14         0.9880   -0.4250   -2.4780 hn        1 O74      0.444800
@<TRIPOS>BOND
     1    1    2 1   
     2    2    3 ar  
     3    2    7 ar  
     4    3    4 ar  
     5    3   26 1   
     6    4    5 ar  
     7    4   27 1   
     8    5    6 ar  
     9    5   28 1   
    10    6    7 ar  
    11    6   29 1   
    12    7    8 1   
    13    8    9 1   
    14    8   39 1   
    15    9   10 2   
    16    9   11 1   
    17   10   18 1   
    18   11   12 ar  
    19   11   16 ar  
    20   12   13 ar  
    21   12   30 1   
    22   13   14 ar  
    23   13   31 1   
    24   14   15 ar  
    25   14   32 1   
    26   15   16 ar  
    27   15   33 1   
    28   16   17 1   
    29   17   18 1   
    30   17   38 1   
    31   18   19 2   
    32   19   20 1   
    33   19   24 1   
    34   20   21 2   
    35   20   34 1   
    36   21   22 1   
    37   21   35 1   
    38   22   23 2   
    39   22   36 1   
    40   23   24 1   
    41   23   37 1   
    42   24   25 2   
@<TRIPOS>SUBSTRUCTURE
     1 O74         1 TEMP              0 ****  ****    0 ROOT
