@<TRIPOS>MOLECULE
O75
   64    66     1     0     0
SMALL
bcc


@<TRIPOS>ATOM
      1 C1         -2.8400   -0.2580    0.8870 cp        1 O75      0.495800
      2 N2         -3.1440   -1.5060    1.3330 nb        1 O75     -0.659000
      3 C3         -4.3790   -1.9810    0.9840 ca        1 O75      0.747000
      4 N4         -5.3290   -1.3330    0.2390 nb        1 O75     -0.661000
      5 C5         -5.0000   -0.0940   -0.1990 ca        1 O75      0.454600
      6 C6         -3.7480    0.4890    0.1050 ca        1 O75     -0.342600
      7 C7         -4.7170   -3.3050    1.4520 cg        1 O75      0.146800
      8 N8         -4.9900   -4.3690    1.8260 n1        1 O75     -0.316800
      9 C9         -5.9880    0.6830   -1.0210 c3        1 O75     -0.136700
     10 C10        -6.2530    0.0190   -2.3590 c3        1 O75     -0.077400
     11 C11        -7.1860    0.8550   -3.1970 c3        1 O75     -0.095100
     12 C12        -1.5280    0.3220    1.2270 cp        1 O75     -0.166500
     13 C13        -0.3790   -0.4780    1.2570 ca        1 O75     -0.021000
     14 C14         0.8610    0.0980    1.5510 ca        1 O75     -0.135600
     15 C15         0.9570    1.4590    1.8480 ca        1 O75     -0.037000
     16 C16        -0.1960    2.2470    1.8270 ca        1 O75     -0.177300
     17 C17        -1.4370    1.6890    1.5200 ca        1 O75     -0.050000
     18 C18        -0.0860    3.7330    2.1480 c3        1 O75      0.690200
     19 F19        -1.1060    4.5030    1.6450 f         1 O75     -0.234300
     20 F20        -0.0760    4.0210    3.4910 f         1 O75     -0.234300
     21 F21         1.0550    4.3290    1.6680 f         1 O75     -0.234300
     22 C22         2.0730   -0.7770    1.6100 c         1 O75      0.670700
     23 O23         2.1700   -1.6570    2.4890 o         1 O75     -0.587100
     24 N24         3.0940   -0.5700    0.6930 n         1 O75     -0.464800
     25 C25         4.2640   -1.4240    0.7260 c3        1 O75      0.134300
     26 C26         4.1760   -2.6470   -0.1430 ca        1 O75     -0.121300
     27 C27         4.8300   -2.6900   -1.3770 ca        1 O75     -0.115500
     28 C28         4.7690   -3.8420   -2.1610 ca        1 O75     -0.133500
     29 C29         4.0510   -4.9520   -1.7170 ca        1 O75     -0.122000
     30 C30         3.3930   -4.9100   -0.4870 ca        1 O75     -0.133500
     31 C31         3.4540   -3.7610    0.3000 ca        1 O75     -0.115500
     32 C32         2.9320    0.2710   -0.4700 c3        1 O75      0.084000
     33 C33         3.7290    1.5980   -0.3710 c3        1 O75      0.155800
     34 N34         3.3930    2.4990   -1.4620 n3        1 O75     -0.747600
     35 C35         3.4480    3.8930   -1.0860 c3        1 O75      0.158100
     36 C36         4.1120    2.2110   -2.6810 c3        1 O75      0.158100
     37 H6         -3.4880    1.4890   -0.2650 ha        1 O75      0.164000
     38 H9         -6.9520    0.7770   -0.4520 hc        1 O75      0.064200
     39 H9A        -5.5900    1.7200   -1.1850 hc        1 O75      0.064200
     40 H10        -5.2840   -0.1280   -2.9050 hc        1 O75      0.053200
     41 H10A       -6.7010   -0.9960   -2.1940 hc        1 O75      0.053200
     42 H11        -8.1650    0.9970   -2.6780 hc        1 O75      0.037367
     43 H11A       -6.7460    1.8630   -3.3970 hc        1 O75      0.037367
     44 H11B       -7.3760    0.3530   -4.1760 hc        1 O75      0.037367
     45 H13        -0.4430   -1.5620    1.0590 ha        1 O75      0.174000
     46 H15         1.9310    1.9140    2.0960 ha        1 O75      0.161000
     47 H17        -2.3370    2.3250    1.5160 ha        1 O75      0.157000
     48 H25         5.1480   -0.8000    0.4060 h1        1 O75      0.069700
     49 H25A        4.4300   -1.7530    1.7950 h1        1 O75      0.069700
     50 H27         5.3980   -1.8160   -1.7300 ha        1 O75      0.141500
     51 H28         5.2880   -3.8740   -3.1300 ha        1 O75      0.133500
     52 H29         4.0040   -5.8600   -2.3350 ha        1 O75      0.132000
     53 H30         2.8260   -5.7850   -0.1350 ha        1 O75      0.133500
     54 H31         2.9360   -3.7170    1.2730 ha        1 O75      0.141500
     55 H32         3.2890   -0.3020   -1.3750 h1        1 O75      0.062200
     56 H32A        1.8410    0.5080   -0.6220 h1        1 O75      0.062200
     57 H33         3.4800    2.0980    0.6080 h1        1 O75      0.036700
     58 H33A        4.8320    1.3580   -0.3520 h1        1 O75      0.036700
     59 H35         4.4760    4.2310   -0.7820 h1        1 O75      0.034033
     60 H35A        3.1120    4.5150   -1.9570 h1        1 O75      0.034033
     61 H35B        2.7450    4.0700   -0.2280 h1        1 O75      0.034033
     62 H36         3.9510    1.1350   -2.9550 h1        1 O75      0.034033
     63 H36A        3.7050    2.8560   -3.5030 h1        1 O75      0.034033
     64 H36B        5.2190    2.3950   -2.5980 h1        1 O75      0.034033
@<TRIPOS>BOND
     1    1    2 ar  
     2    1    6 ar  
     3    1   12 1   
     4    2    3 ar  
     5    3    4 ar  
     6    3    7 1   
     7    4    5 ar  
     8    5    6 ar  
     9    5    9 1   
    10    6   37 1   
    11    7    8 3   
    12    9   10 1   
    13    9   38 1   
    14    9   39 1   
    15   10   11 1   
    16   10   40 1   
    17   10   41 1   
    18   11   42 1   
    19   11   43 1   
    20   11   44 1   
    21   12   13 ar  
    22   12   17 ar  
    23   13   14 ar  
    24   13   45 1   
    25   14   15 ar  
    26   14   22 1   
    27   15   16 ar  
    28   15   46 1   
    29   16   17 ar  
    30   16   18 1   
    31   17   47 1   
    32   18   19 1   
    33   18   20 1   
    34   18   21 1   
    35   22   23 2   
    36   22   24 1   
    37   24   25 1   
    38   24   32 1   
    39   25   26 1   
    40   25   48 1   
    41   25   49 1   
    42   26   27 ar  
    43   26   31 ar  
    44   27   28 ar  
    45   27   50 1   
    46   28   29 ar  
    47   28   51 1   
    48   29   30 ar  
    49   29   52 1   
    50   30   31 ar  
    51   30   53 1   
    52   31   54 1   
    53   32   33 1   
    54   32   55 1   
    55   32   56 1   
    56   33   34 1   
    57   33   57 1   
    58   33   58 1   
    59   34   35 1   
    60   34   36 1   
    61   35   59 1   
    62   35   60 1   
    63   35   61 1   
    64   36   62 1   
    65   36   63 1   
    66   36   64 1   
@<TRIPOS>SUBSTRUCTURE
     1 O75         1 TEMP              0 ****  ****    0 ROOT
