@<TRIPOS>MOLECULE
O75
   64    66     1     0     0
SMALL
bcc


@<TRIPOS>ATOM
      1 C1         -0.0210    0.5010   -0.1480 cp        1 O75      0.495800
      2 N2          1.3050    0.7890   -0.0630 nb        1 O75     -0.659000
      3 C3          1.8830    0.5910    1.1610 ca        1 O75      0.747000
      4 N4          1.2670    0.1380    2.2980 nb        1 O75     -0.661000
      5 C5         -0.0530   -0.1490    2.1860 ca        1 O75      0.454600
      6 C6         -0.7450    0.0200    0.9650 ca        1 O75     -0.342600
      7 C7          3.2910    0.8940    1.2670 cg        1 O75      0.146800
      8 N8          4.4230    1.1370    1.3540 n1        1 O75     -0.316800
      9 C9         -0.8010   -0.6500    3.3880 c3        1 O75     -0.136700
     10 C10        -0.3000   -2.0090    3.8380 c3        1 O75     -0.077400
     11 C11        -1.1160   -2.5260    4.9950 c3        1 O75     -0.095100
     12 C12        -0.7120    0.6930   -1.4350 cp        1 O75     -0.166500
     13 C13        -0.0710    0.3920   -2.6440 ca        1 O75     -0.021000
     14 C14        -0.7570    0.5510   -3.8530 ca        1 O75     -0.135600
     15 C15        -2.0640    1.0400   -3.8660 ca        1 O75     -0.037000
     16 C16        -2.6920    1.3480   -2.6570 ca        1 O75     -0.177300
     17 C17        -2.0260    1.1790   -1.4430 ca        1 O75     -0.050000
     18 C18        -4.1210    1.8770   -2.6760 c3        1 O75      0.690200
     19 F19        -4.8160    1.6910   -1.5060 f         1 O75     -0.234300
     20 F20        -4.2210    3.2250   -2.9170 f         1 O75     -0.234300
     21 F21        -4.9200    1.3040   -3.6370 f         1 O75     -0.234300
     22 C22        -0.0450    0.2570   -5.1350 c         1 O75      0.670700
     23 O23         0.9270    0.9530   -5.4890 o         1 O75     -0.587100
     24 N24        -0.5060   -0.7820   -5.9320 n         1 O75     -0.464800
     25 C25         0.1870   -1.0910   -7.1680 c3        1 O75      0.134300
     26 C26         1.2800   -2.1140   -7.0380 ca        1 O75     -0.121300
     27 C27         1.0680   -3.4360   -7.4410 ca        1 O75     -0.115500
     28 C28         2.1000   -4.3690   -7.3460 ca        1 O75     -0.133500
     29 C29         3.3440   -3.9870   -6.8430 ca        1 O75     -0.122000
     30 C30         3.5560   -2.6700   -6.4350 ca        1 O75     -0.133500
     31 C31         2.5270   -1.7340   -6.5310 ca        1 O75     -0.115500
     32 C32        -1.4700   -1.7490   -5.4650 c3        1 O75      0.084000
     33 C33        -2.8630   -1.5820   -6.1280 c3        1 O75      0.155800
     34 N34        -3.8540   -2.4400   -5.4970 n3        1 O75     -0.747600
     35 C35        -5.1790   -1.8620   -5.4830 c3        1 O75      0.158100
     36 C36        -3.8310   -3.7970   -5.9930 c3        1 O75      0.158100
     37 H6         -1.8110   -0.2270    0.8830 ha        1 O75      0.164000
     38 H9         -1.8940   -0.7150    3.1360 hc        1 O75      0.064200
     39 H9A        -0.6910    0.0870    4.2290 hc        1 O75      0.064200
     40 H10         0.7780   -1.9310    4.1410 hc        1 O75      0.053200
     41 H10A       -0.3550   -2.7330    2.9830 hc        1 O75      0.053200
     42 H11        -1.0570   -1.8270    5.8640 hc        1 O75      0.037367
     43 H11A       -2.1890   -2.6380    4.7060 hc        1 O75      0.037367
     44 H11B       -0.7330   -3.5240    5.3180 hc        1 O75      0.037367
     45 H13         0.9740    0.0390   -2.6520 ha        1 O75      0.174000
     46 H15        -2.6020    1.1820   -4.8180 ha        1 O75      0.161000
     47 H17        -2.5350    1.4350   -0.4990 ha        1 O75      0.157000
     48 H25         0.6350   -0.1350   -7.5690 h1        1 O75      0.069700
     49 H25A       -0.5840   -1.4590   -7.9050 h1        1 O75      0.069700
     50 H27         0.0880   -3.7390   -7.8390 ha        1 O75      0.141500
     51 H28         1.9310   -5.4070   -7.6690 ha        1 O75      0.133500
     52 H29         4.1570   -4.7240   -6.7700 ha        1 O75      0.132000
     53 H30         4.5360   -2.3680   -6.0380 ha        1 O75      0.133500
     54 H31         2.6850   -0.6910   -6.2090 ha        1 O75      0.141500
     55 H32        -1.5830   -1.6670   -4.3470 h1        1 O75      0.062200
     56 H32A       -1.0780   -2.7820   -5.6970 h1        1 O75      0.062200
     57 H33        -2.7670   -1.7960   -7.2320 h1        1 O75      0.036700
     58 H33A       -3.1880   -0.5080   -6.0230 h1        1 O75      0.036700
     59 H35        -5.8660   -2.5500   -4.9240 h1        1 O75      0.034033
     60 H35A       -5.6020   -1.6950   -6.5110 h1        1 O75      0.034033
     61 H35B       -5.1440   -0.8770   -4.9450 h1        1 O75      0.034033
     62 H36        -4.1440   -3.8810   -7.0710 h1        1 O75      0.034033
     63 H36A       -4.5260   -4.4210   -5.3720 h1        1 O75      0.034033
     64 H36B       -2.7920   -4.2050   -5.8920 h1        1 O75      0.034033
@<TRIPOS>BOND
     1    1    2 ar  
     2    1    6 ar  
     3    1   12 1   
     4    2    3 ar  
     5    3    4 ar  
     6    3    7 1   
     7    4    5 ar  
     8    5    6 ar  
     9    5    9 1   
    10    6   37 1   
    11    7    8 3   
    12    9   10 1   
    13    9   38 1   
    14    9   39 1   
    15   10   11 1   
    16   10   40 1   
    17   10   41 1   
    18   11   42 1   
    19   11   43 1   
    20   11   44 1   
    21   12   13 ar  
    22   12   17 ar  
    23   13   14 ar  
    24   13   45 1   
    25   14   15 ar  
    26   14   22 1   
    27   15   16 ar  
    28   15   46 1   
    29   16   17 ar  
    30   16   18 1   
    31   17   47 1   
    32   18   19 1   
    33   18   20 1   
    34   18   21 1   
    35   22   23 2   
    36   22   24 1   
    37   24   25 1   
    38   24   32 1   
    39   25   26 1   
    40   25   48 1   
    41   25   49 1   
    42   26   27 ar  
    43   26   31 ar  
    44   27   28 ar  
    45   27   50 1   
    46   28   29 ar  
    47   28   51 1   
    48   29   30 ar  
    49   29   52 1   
    50   30   31 ar  
    51   30   53 1   
    52   31   54 1   
    53   32   33 1   
    54   32   55 1   
    55   32   56 1   
    56   33   34 1   
    57   33   57 1   
    58   33   58 1   
    59   34   35 1   
    60   34   36 1   
    61   35   59 1   
    62   35   60 1   
    63   35   61 1   
    64   36   62 1   
    65   36   63 1   
    66   36   64 1   
@<TRIPOS>SUBSTRUCTURE
     1 O75         1 TEMP              0 ****  ****    0 ROOT
