@<TRIPOS>MOLECULE
O75
   64    57     1     0     0
SMALL
bcc


@<TRIPOS>ATOM
      1 C1          1.2840    0.2330    3.0530 c1        1 O75      0.061000
      2 N2          0.8450   -0.4910    4.0960 n1        1 O75     -0.063500
      3 C3          1.4990   -0.4320    5.2900 c1        1 O75      0.020500
      4 N4          2.6040    0.3660    5.4290 n1        1 O75     -0.135000
      5 C5          3.0430    1.0880    4.3920 c1        1 O75      0.033000
      6 C6          2.3880    1.0300    3.1910 c2        1 O75     -0.213000
      7 C7          1.0320   -1.2830    6.4520 c1        1 O75      0.020500
      8 N8          0.6820   -1.9220    7.3230 n1        1 O75     -0.063500
      9 C9          4.2870    1.9650    4.5440 c2        1 O75     -0.122000
     10 C10         5.2060    1.3640    5.6080 c3        1 O75     -0.156000
     11 C11         6.3090    2.3590    5.9470 c3        1 O75     -0.213000
     12 C12         0.5640    0.2350    1.8480 c1        1 O75     -0.059000
     13 C13         0.8310   -0.7240    0.8790 c1        1 O75     -0.033000
     14 C14         0.0500   -0.7860   -0.2750 c1        1 O75     -0.114000
     15 C15        -0.9910    0.1090   -0.4540 c2        1 O75     -0.026000
     16 C16        -1.2570    1.0700    0.5170 c1        1 O75     -0.168000
     17 C17        -0.4780    1.1310    1.6680 c1        1 O75     -0.051000
     18 C18        -2.3900    2.0540    0.3180 c3        1 O75      0.469000
     19 F19        -3.4940    1.5940    0.9230 f         1 O75     -0.162000
     20 F20        -2.6250    2.2020   -0.9810 f         1 O75     -0.162000
     21 F21        -2.0520    3.2330    0.8450 f         1 O75     -0.162000
     22 C22         0.4090   -1.7820   -1.3940 c1        1 O75      0.344000
     23 O23         1.3730   -2.5140   -1.2700 o         1 O75     -0.342000
     24 N24        -0.4210   -1.8700   -2.5860 n3        1 O75     -0.329000
     25 C25        -0.1220   -1.0340   -3.7340 c3        1 O75      0.016000
     26 C26        -0.4340    0.4330   -3.3970 c2        1 O75     -0.104000
     27 C27         0.5970    1.3630   -3.3430 c2        1 O75     -0.132000
     28 C28         0.3060    2.7130   -3.2160 c1        1 O75     -0.123000
     29 C29        -1.0080    3.1340   -3.1440 c1        1 O75     -0.125500
     30 C30        -2.0360    2.2070   -3.1980 c1        1 O75     -0.125500
     31 C31        -1.7480    0.8560   -3.3250 c1        1 O75     -0.127000
     32 C32        -1.3850   -2.9570   -2.7160 c3        1 O75     -0.032000
     33 C33        -2.4320   -2.5920   -3.7880 c3        1 O75     -0.088000
     34 N34        -3.6680   -3.2800   -3.5060 n3        1 O75     -0.264000
     35 C35        -4.6290   -2.9730   -4.5190 c3        1 O75     -0.124500
     36 C36        -4.1640   -2.8660   -2.2430 c3        1 O75     -0.124500
     37 H6          2.7060    1.5530    2.4390 ha        1 O75      0.164000
     38 H9          4.7640    2.0080    3.6850 ha        1 O75      0.104000
     39 H9A         4.0190    2.8680    4.8150 ha        1 O75      0.104000
     40 H10         4.6850    1.1660    6.4170 hc        1 O75      0.092000
     41 H10A        5.6020    0.5460    5.2690 hc        1 O75      0.092000
     42 H11         7.0270    1.8980    6.4450 hc        1 O75      0.076667
     43 H11A        5.9420    3.0780    6.4950 hc        1 O75      0.076667
     44 H11B        6.6770    2.7350    5.1170 hc        1 O75      0.076667
     45 H13         1.5610   -1.3520    1.0050 ha        1 O75      0.168000
     46 H15        -1.5310    0.0680   -1.2520 ha        1 O75      0.168000
     47 H17        -0.6640    1.7980    2.3420 ha        1 O75      0.156000
     48 H25         0.8250   -1.1210   -3.9640 h1        1 O75      0.100500
     49 H25A       -0.6720   -1.3180   -4.4990 h1        1 O75      0.100500
     50 H27         1.5180    1.0690   -3.3930 ha        1 O75      0.130000
     51 H28         1.0380    3.3740   -3.1780 ha        1 O75      0.134000
     52 H29        -1.2120    4.0830   -3.0550 ha        1 O75      0.136000
     53 H30        -2.9630    2.5050   -3.1470 ha        1 O75      0.136000
     54 H31        -2.4730    0.2030   -3.3620 ha        1 O75      0.139000
     55 H32        -0.9160   -3.7810   -2.9830 h1        1 O75      0.113000
     56 H32A       -1.8310   -3.0990   -1.8620 h1        1 O75      0.113000
     57 H33        -2.5860   -1.6300   -3.7790 h1        1 O75      0.079000
     58 H33A       -2.1010   -2.8640   -4.6760 h1        1 O75      0.079000
     59 H35        -4.3190   -3.3260   -5.3810 h1        1 O75      0.073667
     60 H35A       -5.4950   -3.3840   -4.2870 h1        1 O75      0.073667
     61 H35B       -4.7360   -1.9970   -4.5840 h1        1 O75      0.073667
     62 H36        -4.1880   -1.8880   -2.2060 h1        1 O75      0.073667
     63 H36A       -5.0690   -3.2210   -2.1140 h1        1 O75      0.073667
     64 H36B       -3.5790   -3.2030   -1.5380 h1        1 O75      0.073667
@<TRIPOS>BOND
     1    1    6 1   
     2    2    3 1   
     3    3    7 1   
     4    4    5 1   
     5    5    6 1   
     6    6   37 1   
     7    7    8 1   
     8    9   10 1   
     9    9   38 1   
    10    9   39 1   
    11   10   11 1   
    12   10   40 1   
    13   10   41 1   
    14   11   42 1   
    15   11   43 1   
    16   11   44 1   
    17   12   17 1   
    18   13   14 1   
    19   13   45 1   
    20   14   15 1   
    21   15   16 1   
    22   15   46 1   
    23   16   18 1   
    24   17   47 1   
    25   18   19 1   
    26   18   20 1   
    27   18   21 1   
    28   22   23 1   
    29   22   24 1   
    30   24   25 1   
    31   24   32 1   
    32   25   26 1   
    33   25   48 1   
    34   25   49 1   
    35   26   27 1   
    36   26   31 1   
    37   27   28 1   
    38   27   50 1   
    39   28   51 1   
    40   29   30 1   
    41   29   52 1   
    42   30   53 1   
    43   31   54 1   
    44   32   33 1   
    45   32   55 1   
    46   32   56 1   
    47   33   34 1   
    48   33   57 1   
    49   33   58 1   
    50   34   35 1   
    51   34   36 1   
    52   35   59 1   
    53   35   60 1   
    54   35   61 1   
    55   36   62 1   
    56   36   63 1   
    57   36   64 1   
@<TRIPOS>SUBSTRUCTURE
     1 O75         1 TEMP              0 ****  ****    0 ROOT
