@<TRIPOS>MOLECULE
O75
   66    71     1     0     0
SMALL
bcc


@<TRIPOS>ATOM
      1 C1          0.0000    0.0000    0.0000 c2        1 O75     -0.016000
      2 N2          1.3290    0.0000    0.0000 n2        1 O75     -0.094000
      3 C3          2.0050    0.0000    1.1410 c2        1 O75      0.124000
      4 N4          1.3880   -0.0000    2.3150 n2        1 O75      0.001000
      5 C5          0.0680   -0.0010    2.3910 c2        1 O75      0.050000
      6 C6         -0.6770    0.0000    1.2240 c2        1 O75     -0.200000
      7 C7          3.4360    0.0000    1.1040 c1        1 O75     -0.122000
      8 N8          4.5710   -0.0050    1.0940 n1        1 O75      0.024000
      9 C9         -0.6180   -0.0010    3.7330 c3        1 O75     -0.372000
     10 C10        -0.1130   -1.1830    4.5630 c3        1 O75     -0.129000
     11 C11        -0.8090   -1.1830    5.9260 DU        1 O75     -0.165000
     12 C12        -0.7530    0.0060   -1.2780 ca        1 O75      0.005000
     13 C13        -0.0690    0.0070   -2.4900 ca        1 O75      0.042000
     14 C14        -0.7830    0.0130   -3.6870 ca        1 O75     -0.172000
     15 C15        -2.1790    0.0180   -3.6620 ca        1 O75     -0.080000
     16 C16        -2.8500    0.0180   -2.4570 ca        1 O75     -0.189000
     17 C17        -2.1470    0.0060   -1.2670 ca        1 O75      0.018000
     18 C18        -4.3570    0.0250   -2.4360 c3        1 O75      0.424000
     19 F19        -4.8200   -1.1180   -1.7740 f         1 O75     -0.132000
     20 F20        -4.8110    1.1670   -1.7670 f         1 O75     -0.132000
     21 F21        -4.8410    0.0300   -3.7490 f         1 O75     -0.132000
     22 C22        -0.0640    0.0130   -4.9790 c2        1 O75      0.270000
     23 O23         0.8760    0.7660   -5.1510 o         1 O75     -0.232000
     24 N24        -0.4510   -0.8190   -5.9650 nx        1 O75      0.063000
     25 C25         0.3390   -0.9130   -7.1960 DU        1 O75     -0.227000
     26 C26         1.3840   -1.9860   -7.0420 c3        1 O75     -0.194000
     27 C27         1.0950   -3.2900   -7.4030 c2        1 O75     -0.069000
     28 C28         2.0540   -4.2750   -7.2610 c2        1 O75     -0.057000
     29 C29         3.3030   -3.9570   -6.7590 c2        1 O75     -0.005000
     30 C30         3.5920   -2.6540   -6.3990 c2        1 O75     -0.057000
     31 C31         2.6350   -1.6680   -6.5460 c2        1 O75     -0.069000
     32 C32        -1.6600   -1.6310   -5.8060 c3        1 O75     -0.082000
     33 C33        -2.8300   -0.9480   -6.5180 c3        1 O75     -0.151000
     34 N34        -4.0670   -1.6940   -6.2520 nx        1 O75      0.101000
     35 C35        -5.2430   -0.9450   -6.7160 c3        1 O75     -0.069500
     36 C36        -4.0180   -3.0290   -6.8630 c3        1 O75     -0.069500
     37 H6         -1.7580   -0.0720    1.2440 ha        1 O75      0.127000
     38 H9         -0.3430   -0.8950    4.2790 hc        1 O75      0.108000
     39 H9A        -1.6910    0.0190    3.5900 hc        1 O75      0.108000
     40 H10        -0.7920   -2.0200    4.4490 hc        1 O75      0.023000
     41 H10A       -0.0660   -0.8970    5.6070 DU        1 O75      0.306000
     42 H11        -0.3520   -0.4360    6.5640 ha        1 O75      0.093667
     43 H11A       -1.8590   -0.9530    5.7950 ha        1 O75      0.093667
     44 H11B       -0.7070   -2.1590    6.3830 ha        1 O75      0.093667
     45 H13         1.0140    0.0100   -2.5010 ha        1 O75      0.156000
     46 H15        -2.7370   -0.0440   -4.5890 ha        1 O75      0.091000
     47 H17        -2.6810    0.0440   -0.3250 ha        1 O75      0.146000
     48 H25         0.2180   -1.8990   -7.6280 DU        1 O75      0.282000
     49 H25A       -0.0030   -0.1660   -7.9020 hx        1 O75      0.212000
     50 H27         0.1170   -3.5380   -7.7960 ha        1 O75      0.120000
     51 H28         1.8280   -5.2960   -7.5430 ha        1 O75      0.140000
     52 H29         4.0680   -4.7210   -6.6900 ha        1 O75      0.139000
     53 H30         4.5700   -2.4060   -6.0050 ha        1 O75      0.140000
     54 H31         2.8890   -0.6330   -6.3480 ha        1 O75      0.120000
     55 H32        -1.5650   -2.2500   -4.9220 hx        1 O75      0.116000
     56 H32A       -1.7880   -2.2630   -6.6770 hx        1 O75      0.116000
     57 H33        -2.7560   -1.1240   -7.5840 hx        1 O75      0.096000
     58 H33A       -2.7960    0.1180   -6.3250 hx        1 O75      0.096000
     59 H35        -6.1340   -1.3480   -6.2500 hx        1 O75      0.119500
     60 H35A       -5.1350    0.0990   -6.4460 hx        1 O75      0.119500
     61 H35B       -5.3260   -1.0330   -7.7920 hx        1 O75      0.119500
     62 H36        -3.0140   -3.4280   -6.7790 hx        1 O75      0.119500
     63 H36A       -4.7110   -3.6860   -6.3520 hx        1 O75      0.119500
     64 H36B       -4.2910   -2.9580   -7.9090 hx        1 O75      0.119500
     65 H241       -0.0350   -0.5280   -6.8280 DU        1 O75      0.243000
     66 H341       -4.8440   -1.2010   -6.6450 hn        1 O75      0.214000
@<TRIPOS>BOND
     1    1    2 1   
     2    1    6 1   
     3    1   12 1   
     4    2    3 1   
     5    3    4 1   
     6    3    7 1   
     7    4    5 1   
     8    5    6 1   
     9    5    9 1   
    10    6   37 1   
    11    7    8 1   
    12    9   10 1   
    13    9   38 1   
    14    9   39 1   
    15   10   11 1   
    16   10   40 1   
    17   10   41 1   
    18   11   41 1   
    19   11   42 1   
    20   11   43 1   
    21   11   44 1   
    22   12   13 1   
    23   12   17 1   
    24   13   14 1   
    25   13   45 1   
    26   14   15 1   
    27   14   22 1   
    28   15   16 1   
    29   15   46 1   
    30   16   17 1   
    31   16   18 1   
    32   17   47 1   
    33   18   19 1   
    34   18   20 1   
    35   18   21 1   
    36   22   23 1   
    37   22   24 1   
    38   24   25 1   
    39   24   32 1   
    40   24   65 1   
    41   25   26 1   
    42   25   48 1   
    43   25   49 1   
    44   25   65 1   
    45   26   27 1   
    46   26   31 1   
    47   26   48 1   
    48   27   28 1   
    49   27   50 1   
    50   28   29 1   
    51   28   51 1   
    52   29   30 1   
    53   29   52 1   
    54   30   31 1   
    55   30   53 1   
    56   31   54 1   
    57   32   33 1   
    58   32   55 1   
    59   32   56 1   
    60   33   34 1   
    61   33   57 1   
    62   33   58 1   
    63   34   35 1   
    64   34   36 1   
    65   34   66 1   
    66   35   59 1   
    67   35   60 1   
    68   35   61 1   
    69   36   62 1   
    70   36   63 1   
    71   36   64 1   
@<TRIPOS>SUBSTRUCTURE
     1 O75         1 TEMP              0 ****  ****    0 ROOT
