@<TRIPOS>MOLECULE
O75
   66    68     1     0     0
SMALL
bcc


@<TRIPOS>ATOM
      1 C1         -0.0700   -0.5670    0.3170 cp        1 O75      0.439800
      2 N2          1.0040   -1.4040    0.3350 nb        1 O75     -0.686000
      3 C3          1.6040   -1.5760    1.5510 ca        1 O75      0.776000
      4 N4          1.2330   -0.9860    2.7340 nb        1 O75     -0.625000
      5 C5          0.1670   -0.1550    2.6880 ca        1 O75      0.483600
      6 C6         -0.5310    0.0870    1.4720 ca        1 O75     -0.328600
      7 C7          2.7400   -2.4650    1.5880 cg        1 O75      0.119800
      8 N8          3.6530   -3.1800    1.6150 n1        1 O75     -0.264800
      9 C9         -0.2890    0.5370    3.9400 c3        1 O75     -0.146700
     10 C10        -0.7580   -0.4490    4.9950 c3        1 O75     -0.076400
     11 C11        -1.2850    0.2780    6.2050 c3        1 O75     -0.099100
     12 C12        -0.7490   -0.3660   -0.9780 cp        1 O75     -0.106500
     13 C13         0.0100   -0.2560   -2.1540 ca        1 O75      0.020000
     14 C14        -0.6330   -0.0920   -3.3930 ca        1 O75     -0.204600
     15 C15        -2.0300    0.0020   -3.4430 ca        1 O75     -0.091000
     16 C16        -2.7740   -0.1590   -2.2780 ca        1 O75     -0.170300
     17 C17        -2.1480   -0.3300   -1.0390 ca        1 O75     -0.002000
     18 C18        -4.2960   -0.1880   -2.4180 c3        1 O75      0.698200
     19 F19        -4.9680   -0.7400   -1.3670 f         1 O75     -0.225967
     20 F20        -4.8730    1.0310   -2.6430 f         1 O75     -0.225967
     21 F21        -4.6850   -0.9430   -3.5160 f         1 O75     -0.225967
     22 C22         0.2180   -0.0320   -4.5870 c         1 O75      0.571700
     23 O23         1.4190    0.1720   -4.6280 o         1 O75     -0.378100
     24 N24        -0.4850   -0.2370   -5.9440 n4        1 O75     -0.602200
     25 C25         0.4470   -0.0630   -7.1330 c3        1 O75      0.185100
     26 C26         1.2320   -1.2620   -7.5230 ca        1 O75     -0.200300
     27 C27         0.7790   -2.0760   -8.5750 ca        1 O75     -0.104000
     28 C28         1.5640   -3.1300   -9.0300 ca        1 O75     -0.116500
     29 C29         2.8080   -3.3830   -8.4410 ca        1 O75     -0.063000
     30 C30         3.2620   -2.5760   -7.3980 ca        1 O75     -0.116500
     31 C31         2.4800   -1.5150   -6.9410 ca        1 O75     -0.104000
     32 C32        -1.2340   -1.5260   -5.9720 c3        1 O75      0.074800
     33 C33        -2.5880   -1.4360   -6.7130 c3        1 O75      0.083800
     34 N34        -3.6540   -2.3080   -6.1260 n4        1 O75     -0.682400
     35 C35        -4.9600   -2.0410   -6.8000 c3        1 O75      0.078600
     36 C36        -3.3040   -3.7520   -6.2330 c3        1 O75      0.078600
     37 H6         -1.3890    0.7710    1.4490 ha        1 O75      0.166000
     38 H9         -1.1210    1.2450    3.6850 hc        1 O75      0.076200
     39 H9A         0.5610    1.1480    4.3540 hc        1 O75      0.076200
     40 H10        -1.5610   -1.1050    4.5680 hc        1 O75      0.054200
     41 H10A        0.0950   -1.1140    5.2960 hc        1 O75      0.054200
     42 H11        -0.4910    0.9210    6.6580 hc        1 O75      0.046367
     43 H11A       -1.6220   -0.4580    6.9750 hc        1 O75      0.046367
     44 H11B       -2.1520    0.9280    5.9350 hc        1 O75      0.046367
     45 H13         1.1160   -0.3070   -2.1090 ha        1 O75      0.206000
     46 H15        -2.5740    0.2130   -4.3770 ha        1 O75      0.117000
     47 H17        -2.7550   -0.4500   -0.1210 ha        1 O75      0.198000
     48 H25         1.1480    0.7850   -6.8670 hx        1 O75      0.115200
     49 H25A       -0.2130    0.2610   -7.9910 hx        1 O75      0.115200
     50 H27        -0.1790   -1.8570   -9.0710 ha        1 O75      0.139500
     51 H28         1.2180   -3.7540   -9.8700 ha        1 O75      0.169000
     52 H29         3.4350   -4.2120   -8.8140 ha        1 O75      0.174000
     53 H30         4.2490   -2.7640   -6.9430 ha        1 O75      0.169000
     54 H31         2.8600   -0.8650   -6.1350 ha        1 O75      0.139500
     55 H32        -0.5830   -2.2980   -6.4920 hx        1 O75      0.134200
     56 H32A       -1.3790   -1.8820   -4.9090 hx        1 O75      0.134200
     57 H33        -2.4360   -1.7530   -7.7880 hx        1 O75      0.119700
     58 H33A       -2.9950   -0.3820   -6.7160 hx        1 O75      0.119700
     59 H35        -5.7390   -2.7260   -6.3640 hx        1 O75      0.118033
     60 H35A       -4.8670   -2.2340   -7.9020 hx        1 O75      0.118033
     61 H35B       -5.2640   -0.9740   -6.6190 hx        1 O75      0.118033
     62 H36        -2.3190   -3.9400   -5.7290 hx        1 O75      0.118033
     63 H36A       -4.1040   -4.3620   -5.7290 hx        1 O75      0.118033
     64 H36B       -3.2410   -4.0480   -7.3150 hx        1 O75      0.118033
     65 H241       -1.1580    0.5400   -6.0020 hn        1 O75      0.442800
     66 H341       -3.7630   -2.0710   -5.1240 hn        1 O75      0.466800
@<TRIPOS>BOND
     1    1    2 ar  
     2    1    6 ar  
     3    1   12 1   
     4    2    3 ar  
     5    3    4 ar  
     6    3    7 1   
     7    4    5 ar  
     8    5    6 ar  
     9    5    9 1   
    10    6   37 1   
    11    7    8 3   
    12    9   10 1   
    13    9   38 1   
    14    9   39 1   
    15   10   11 1   
    16   10   40 1   
    17   10   41 1   
    18   11   42 1   
    19   11   43 1   
    20   11   44 1   
    21   12   13 ar  
    22   12   17 ar  
    23   13   14 ar  
    24   13   45 1   
    25   14   15 ar  
    26   14   22 1   
    27   15   16 ar  
    28   15   46 1   
    29   16   17 ar  
    30   16   18 1   
    31   17   47 1   
    32   18   19 1   
    33   18   20 1   
    34   18   21 1   
    35   22   23 2   
    36   22   24 1   
    37   24   25 1   
    38   24   32 1   
    39   24   65 1   
    40   25   26 1   
    41   25   48 1   
    42   25   49 1   
    43   26   27 ar  
    44   26   31 ar  
    45   27   28 ar  
    46   27   50 1   
    47   28   29 ar  
    48   28   51 1   
    49   29   30 ar  
    50   29   52 1   
    51   30   31 ar  
    52   30   53 1   
    53   31   54 1   
    54   32   33 1   
    55   32   55 1   
    56   32   56 1   
    57   33   34 1   
    58   33   57 1   
    59   33   58 1   
    60   34   35 1   
    61   34   36 1   
    62   34   66 1   
    63   35   59 1   
    64   35   60 1   
    65   35   61 1   
    66   36   62 1   
    67   36   63 1   
    68   36   64 1   
@<TRIPOS>SUBSTRUCTURE
     1 O75         1 TEMP              0 ****  ****    0 ROOT
