@<TRIPOS>MOLECULE
O7E
   41    42     1     0     0
SMALL
bcc


@<TRIPOS>ATOM
      1 O3P        -3.4520    1.0700   -0.8210 o         1 O7E     -0.930167
      2 P          -3.4620    1.5800    0.6070 p5        1 O7E      1.336900
      3 O1P        -4.1340    2.8920    0.8580 o         1 O7E     -0.930167
      4 O2P        -3.5750    0.5060    1.6460 o         1 O7E     -0.930167
      5 O5'        -1.7560    1.9850    0.7100 os        1 O7E     -0.563200
      6 C5'        -0.9450    0.9290    0.3920 c3        1 O7E      0.216400
      7 C4'        -0.5080    1.0010   -1.0930 c3        1 O7E      0.062100
      8 O4'         0.9400    0.9890   -1.2210 os        1 O7E     -0.441600
      9 C3'        -1.0620   -0.1540   -1.9400 c3        1 O7E      0.134100
     10 O3'        -1.8890    0.3210   -2.9760 oh        1 O7E     -0.682800
     11 C2'         0.1710   -0.8470   -2.5660 c3        1 O7E      0.110100
     12 O2'         0.3070   -0.6540   -3.9570 oh        1 O7E     -0.605800
     13 C1'         1.4050   -0.1700   -1.8790 c3        1 O7E      0.280500
     14 N1          2.1780   -0.9980   -0.9130 n         1 O7E     -0.360000
     15 C2          2.3490   -2.3890   -1.1130 c         1 O7E      0.810500
     16 O2          2.0380   -2.9770   -2.1710 o         1 O7E     -0.645500
     17 N3          2.9500   -3.1610   -0.0950 n         1 O7E     -0.594500
     18 C4          3.4720   -2.6050    1.0810 c         1 O7E      0.723700
     19 O4          3.9910   -3.3600    1.9280 o         1 O7E     -0.661500
     20 C5          3.3890   -1.1510    1.1800 cc        1 O7E     -0.330200
     21 C6          2.7690   -0.4200    0.2050 cd        1 O7E      0.127400
     22 C7          2.8260    1.0760    0.3170 c         1 O7E      0.670300
     23 O71         3.4830    1.8280   -0.4060 o         1 O7E     -0.549000
     24 O72         2.1670    1.5570    1.3990 os        1 O7E     -0.402900
     25 C8          1.9050    2.9810    1.4030 c3        1 O7E      0.154400
     26 C9          0.8150    3.2100    2.4210 c3        1 O7E     -0.128100
     27 H3         -0.0050    0.9650    1.0180 h1        1 O7E      0.007200
     28 H4         -1.4740   -0.0480    0.5860 h1        1 O7E      0.007200
     29 H5         -0.8100    1.9950   -1.5260 h1        1 O7E      0.100700
     30 H6         -1.6420   -0.8770   -1.3020 h1        1 O7E      0.090700
     31 H7         -2.6750    0.7150   -2.5210 ho        1 O7E      0.520000
     32 H8          0.1340   -1.9570   -2.4190 h1        1 O7E      0.092700
     33 H9         -0.1960    0.1380   -4.1960 ho        1 O7E      0.427000
     34 H10         2.1580    0.1690   -2.6530 h2        1 O7E      0.081700
     35 H11         2.9770   -4.1450   -0.2360 hn        1 O7E      0.336500
     36 H12         3.8260   -0.6800    2.0680 ha        1 O7E      0.176000
     37 H13         2.8650    3.4930    1.6730 h1        1 O7E      0.041700
     38 H14         1.5820    3.2910    0.3740 h1        1 O7E      0.041700
     39 H15         0.7600    4.3010    2.6470 hc        1 O7E      0.069033
     40 H16        -0.1810    2.8690    2.0150 hc        1 O7E      0.069033
     41 H17         1.0260    2.6490    3.3610 hc        1 O7E      0.069033
@<TRIPOS>BOND
     1    1    2 1   
     2    2    3 1   
     3    2    4 1   
     4    2    5 1   
     5    5    6 1   
     6    6    7 1   
     7    6   27 1   
     8    6   28 1   
     9    7    8 1   
    10    7    9 1   
    11    7   29 1   
    12    8   13 1   
    13    9   10 1   
    14    9   11 1   
    15    9   30 1   
    16   10   31 1   
    17   11   12 1   
    18   11   13 1   
    19   11   32 1   
    20   12   33 1   
    21   13   14 1   
    22   13   34 1   
    23   14   15 1   
    24   14   21 1   
    25   15   16 2   
    26   15   17 1   
    27   17   18 1   
    28   17   35 1   
    29   18   19 2   
    30   18   20 1   
    31   20   21 2   
    32   20   36 1   
    33   21   22 1   
    34   22   23 2   
    35   22   24 1   
    36   24   25 1   
    37   25   26 1   
    38   25   37 1   
    39   25   38 1   
    40   26   39 1   
    41   26   40 1   
    42   26   41 1   
@<TRIPOS>SUBSTRUCTURE
     1 O7E         1 TEMP              0 ****  ****    0 ROOT
