@<TRIPOS>MOLECULE
O7E
   41    42     1     0     0
SMALL
bcc


@<TRIPOS>ATOM
      1 O3P         1.0190    2.1790   -1.0040 o         1 O7E     -0.930167
      2 P           1.9370    1.9780    0.1850 p5        1 O7E      1.336900
      3 O1P         1.4470    2.4610    1.5140 o         1 O7E     -0.930167
      4 O2P         2.7500    0.7200    0.1350 o         1 O7E     -0.930167
      5 O5'         3.1360    3.1840   -0.2550 os        1 O7E     -0.563200
      6 C5'         3.6360    2.9930   -1.5140 c3        1 O7E      0.216400
      7 C4'         2.8880    3.8770   -2.5420 c3        1 O7E      0.062100
      8 O4'         3.8080    4.7270   -3.2810 os        1 O7E     -0.441600
      9 C3'         2.0830    3.0620   -3.5640 c3        1 O7E      0.134100
     10 O3'         0.7080    3.3580   -3.4860 oh        1 O7E     -0.682800
     11 C2'         2.6060    3.4930   -4.9550 c3        1 O7E      0.110100
     12 O2'         1.6950    4.2610   -5.7100 oh        1 O7E     -0.605800
     13 C1'         3.8460    4.4020   -4.6540 c3        1 O7E      0.280500
     14 N1          5.1860    3.8460   -4.9840 n         1 O7E     -0.360000
     15 C2          5.3750    3.0050   -6.1070 c         1 O7E      0.810500
     16 O2          4.5030    2.8220   -6.9860 o         1 O7E     -0.645500
     17 N3          6.6240    2.3740   -6.2910 n         1 O7E     -0.594500
     18 C4          7.7290    2.6040   -5.4610 c         1 O7E      0.723700
     19 O4          8.7980    2.0070   -5.6970 o         1 O7E     -0.661500
     20 C5          7.5210    3.5790   -4.3950 cc        1 O7E     -0.330200
     21 C6          6.2950    4.1530   -4.2040 cd        1 O7E      0.127400
     22 C7          6.1880    5.2320   -3.1640 c         1 O7E      0.670300
     23 O71         6.0250    6.4340   -3.3890 o         1 O7E     -0.549000
     24 O72         6.4160    4.7860   -1.9050 os        1 O7E     -0.402900
     25 C8          6.0220    5.6780   -0.8350 c3        1 O7E      0.154400
     26 C9          5.9420    4.8340    0.4130 c3        1 O7E     -0.128100
     27 H3          4.7250    3.2940   -1.5440 h1        1 O7E      0.007200
     28 H4          3.5520    1.9090   -1.8120 h1        1 O7E      0.007200
     29 H5          2.2240    4.6060   -1.9990 h1        1 O7E      0.100700
     30 H6          2.2350    1.9590   -3.4070 h1        1 O7E      0.090700
     31 H7          0.4200    3.0270   -2.5990 ho        1 O7E      0.520000
     32 H8          2.8500    2.6040   -5.5910 h1        1 O7E      0.092700
     33 H9          1.0580    4.6530   -5.0960 ho        1 O7E      0.427000
     34 H10         3.7760    5.3750   -5.2260 h2        1 O7E      0.081700
     35 H11         6.6920    1.7270   -7.0450 hn        1 O7E      0.336500
     36 H12         8.3780    3.8140   -3.7520 ha        1 O7E      0.176000
     37 H13         6.8030    6.4790   -0.7680 h1        1 O7E      0.041700
     38 H14         5.0290    6.1320   -1.0910 h1        1 O7E      0.041700
     39 H15         5.0150    4.1910    0.3960 hc        1 O7E      0.069033
     40 H16         5.8970    5.5100    1.3000 hc        1 O7E      0.069033
     41 H17         6.8330    4.1700    0.5000 hc        1 O7E      0.069033
@<TRIPOS>BOND
     1    1    2 1   
     2    2    3 1   
     3    2    4 1   
     4    2    5 1   
     5    5    6 1   
     6    6    7 1   
     7    6   27 1   
     8    6   28 1   
     9    7    8 1   
    10    7    9 1   
    11    7   29 1   
    12    8   13 1   
    13    9   10 1   
    14    9   11 1   
    15    9   30 1   
    16   10   31 1   
    17   11   12 1   
    18   11   13 1   
    19   11   32 1   
    20   12   33 1   
    21   13   14 1   
    22   13   34 1   
    23   14   15 1   
    24   14   21 1   
    25   15   16 2   
    26   15   17 1   
    27   17   18 1   
    28   17   35 1   
    29   18   19 2   
    30   18   20 1   
    31   20   21 2   
    32   20   36 1   
    33   21   22 1   
    34   22   23 2   
    35   22   24 1   
    36   24   25 1   
    37   25   26 1   
    38   25   37 1   
    39   25   38 1   
    40   26   39 1   
    41   26   40 1   
    42   26   41 1   
@<TRIPOS>SUBSTRUCTURE
     1 O7E         1 TEMP              0 ****  ****    0 ROOT
