@<TRIPOS>MOLECULE
O7E
   41    42     1     0     0
SMALL
bcc


@<TRIPOS>ATOM
      1 O3P         1.0870    2.0690   -0.9770 o         1 O7E     -0.930167
      2 P           2.0320    1.8560    0.1890 p5        1 O7E      1.336900
      3 O1P         1.5610    2.2960    1.5380 o         1 O7E     -0.930167
      4 O2P         2.8660    0.6140    0.0890 o         1 O7E     -0.930167
      5 O5'         3.2000    3.0940   -0.2450 os        1 O7E     -0.563200
      6 C5'         3.6780    2.9440   -1.5180 c3        1 O7E      0.216400
      7 C4'         2.8930    3.8400   -2.5070 c3        1 O7E      0.062100
      8 O4'         3.7830    4.7260   -3.2430 os        1 O7E     -0.441600
      9 C3'         2.0820    3.0370   -3.5340 c3        1 O7E      0.134100
     10 O3'         0.7030    3.3060   -3.4210 oh        1 O7E     -0.682800
     11 C2'         2.5680    3.5120   -4.9230 c3        1 O7E      0.110100
     12 O2'         1.6290    4.2830   -5.6400 oh        1 O7E     -0.605800
     13 C1'         3.7980    4.4360   -4.6240 c3        1 O7E      0.280500
     14 N1          5.1410    3.9130   -4.9950 n         1 O7E     -0.360000
     15 C2          5.3210    3.1060   -6.1440 c         1 O7E      0.810500
     16 O2          4.4360    2.9300   -7.0090 o         1 O7E     -0.645500
     17 N3          6.5770    2.5020   -6.3700 n         1 O7E     -0.594500
     18 C4          7.6940    2.7310   -5.5560 c         1 O7E      0.723700
     19 O4          8.7690    2.1600   -5.8290 o         1 O7E     -0.661500
     20 C5          7.4920    3.6740   -4.4610 cc        1 O7E     -0.330200
     21 C6          6.2600    4.2210   -4.2300 cd        1 O7E      0.127400
     22 C7          6.1550    5.2710   -3.1610 c         1 O7E      0.670300
     23 O71         5.9660    6.4740   -3.3500 o         1 O7E     -0.549000
     24 O72         6.4170    4.7970   -1.9180 os        1 O7E     -0.402900
     25 C8          6.0290    5.6520   -0.8170 c3        1 O7E      0.154400
     26 C9          5.9900    4.7760    0.4100 c3        1 O7E     -0.128100
     27 H3          4.7610    3.2660   -1.5620 h1        1 O7E      0.007200
     28 H4          3.6070    1.8660   -1.8420 h1        1 O7E      0.007200
     29 H5          2.2280    4.5430   -1.9330 h1        1 O7E      0.100700
     30 H6          2.2570    1.9330   -3.4080 h1        1 O7E      0.090700
     31 H7          0.4400    2.9470   -2.5370 ho        1 O7E      0.520000
     32 H8          2.8160    2.6450   -5.5870 h1        1 O7E      0.092700
     33 H9          0.9980    4.6470   -5.0040 ho        1 O7E      0.427000
     34 H10         3.6990    5.4230   -5.1690 h2        1 O7E      0.081700
     35 H11         6.6410    1.8760   -7.1410 hn        1 O7E      0.336500
     36 H12         8.3570    3.9080   -3.8290 ha        1 O7E      0.176000
     37 H13         5.0230    6.0950   -1.0420 h1        1 O7E      0.041700
     38 H14         6.7960    6.4670   -0.7450 h1        1 O7E      0.041700
     39 H15         5.0750    4.1170    0.3940 hc        1 O7E      0.069033
     40 H16         6.8950    4.1260    0.4610 hc        1 O7E      0.069033
     41 H17         5.9520    5.4280    1.3140 hc        1 O7E      0.069033
@<TRIPOS>BOND
     1    1    2 1   
     2    2    3 1   
     3    2    4 1   
     4    2    5 1   
     5    5    6 1   
     6    6    7 1   
     7    6   27 1   
     8    6   28 1   
     9    7    8 1   
    10    7    9 1   
    11    7   29 1   
    12    8   13 1   
    13    9   10 1   
    14    9   11 1   
    15    9   30 1   
    16   10   31 1   
    17   11   12 1   
    18   11   13 1   
    19   11   32 1   
    20   12   33 1   
    21   13   14 1   
    22   13   34 1   
    23   14   15 1   
    24   14   21 1   
    25   15   16 2   
    26   15   17 1   
    27   17   18 1   
    28   17   35 1   
    29   18   19 2   
    30   18   20 1   
    31   20   21 2   
    32   20   36 1   
    33   21   22 1   
    34   22   23 2   
    35   22   24 1   
    36   24   25 1   
    37   25   26 1   
    38   25   37 1   
    39   25   38 1   
    40   26   39 1   
    41   26   40 1   
    42   26   41 1   
@<TRIPOS>SUBSTRUCTURE
     1 O7E         1 TEMP              0 ****  ****    0 ROOT
