@<TRIPOS>MOLECULE
O7E
   41    42     1     0     0
SMALL
bcc


@<TRIPOS>ATOM
      1 O3P         1.0980    2.8380    0.5020 oh        1 O7E     -0.784400
      2 P           2.2740    1.7050    0.4310 p5        1 O7E      1.428800
      3 O1P         3.0280    1.6970    1.7000 o         1 O7E     -0.846000
      4 O2P         1.6300    0.5240   -0.1870 o         1 O7E     -0.846000
      5 O5'         3.2050    2.4350   -0.7180 os        1 O7E     -0.593200
      6 C5'         2.8060    2.3170   -2.0530 c3        1 O7E      0.174400
      7 C4'         2.6400    3.6930   -2.7010 c3        1 O7E      0.045100
      8 O4'         3.9400    4.2370   -3.0150 os        1 O7E     -0.437600
      9 C3'         1.7740    3.6740   -4.0060 c3        1 O7E      0.364800
     10 O3'         0.8070    4.5640   -4.0240 o         1 O7E     -0.864500
     11 C2'         2.8430    3.9690   -5.1510 c3        1 O7E      0.028100
     12 O2'         2.4510    5.0560   -5.9540 oh        1 O7E     -0.650800
     13 C1'         4.1360    4.3750   -4.4110 c3        1 O7E      0.280500
     14 N1          5.4280    3.7210   -4.7780 n         1 O7E     -0.336000
     15 C2          5.5560    2.5280   -5.5320 c         1 O7E      0.813500
     16 O2          4.6100    1.8250   -5.9390 o         1 O7E     -0.623500
     17 N3          6.8560    2.0960   -5.9070 ns        1 O7E     -0.599500
     18 C4          8.0300    2.7000   -5.4510 c         1 O7E      0.722700
     19 O4          9.1350    2.2600   -5.8350 o         1 O7E     -0.679500
     20 C5          7.8460    3.8220   -4.5380 cc        1 O7E     -0.346200
     21 C6          6.5860    4.2530   -4.2250 cd        1 O7E      0.121400
     22 C7          6.4580    5.3740   -3.2340 c         1 O7E      0.663300
     23 O71         6.3280    6.5750   -3.4760 o         1 O7E     -0.543000
     24 O72         6.6000    4.9350   -1.9590 os        1 O7E     -0.407900
     25 C8          6.0870    5.7760   -0.9030 c3        1 O7E      0.150400
     26 C9          5.3550    4.8630    0.0490 c3        1 O7E     -0.125100
     27 H3          3.6000    1.7450   -2.6120 h1        1 O7E      0.032200
     28 H4          1.8320    1.7540   -2.1140 h1        1 O7E      0.032200
     29 H5          2.2110    4.4220   -1.9620 h1        1 O7E      0.073700
     30 H6          1.4310    2.6070   -4.1760 h1        1 O7E     -0.044300
     31 H7          0.5790    2.8780   -0.2920 ho        1 O7E      0.426000
     32 H8          2.9560    3.0920   -5.8300 h1        1 O7E      0.073700
     33 H9          1.6770    5.4660   -5.5110 ho        1 O7E      0.438000
     34 H10         4.3460    5.4780   -4.5990 h2        1 O7E      0.072700
     35 H11         6.9050    1.2700   -6.4600 hn        1 O7E      0.333500
     36 H12         8.7440    4.2690   -4.0990 ha        1 O7E      0.165000
     37 H13         6.9820    6.2640   -0.4370 h1        1 O7E      0.038200
     38 H14         5.4060    6.5590   -1.3260 h1        1 O7E      0.038200
     39 H15         4.5830    4.2590   -0.5040 hc        1 O7E      0.070367
     40 H16         6.0590    4.1490    0.5380 hc        1 O7E      0.070367
     41 H17         4.8490    5.4750    0.8320 hc        1 O7E      0.070367
@<TRIPOS>BOND
     1    1    2 1   
     2    1   31 1   
     3    2    3 1   
     4    2    4 1   
     5    2    5 1   
     6    5    6 1   
     7    6    7 1   
     8    6   27 1   
     9    6   28 1   
    10    7    8 1   
    11    7    9 1   
    12    7   29 1   
    13    8   13 1   
    14    9   10 1   
    15    9   11 1   
    16    9   30 1   
    17   11   12 1   
    18   11   13 1   
    19   11   32 1   
    20   12   33 1   
    21   13   14 1   
    22   13   34 1   
    23   14   15 1   
    24   14   21 1   
    25   15   16 2   
    26   15   17 1   
    27   17   18 1   
    28   17   35 1   
    29   18   19 2   
    30   18   20 1   
    31   20   21 2   
    32   20   36 1   
    33   21   22 1   
    34   22   23 2   
    35   22   24 1   
    36   24   25 1   
    37   25   26 1   
    38   25   37 1   
    39   25   38 1   
    40   26   39 1   
    41   26   40 1   
    42   26   41 1   
@<TRIPOS>SUBSTRUCTURE
     1 O7E         1 TEMP              0 ****  ****    0 ROOT
