@<TRIPOS>MOLECULE
O7E
   41    38     1     0     0
SMALL
bcc


@<TRIPOS>ATOM
      1 O3P        -3.8520    2.9850    4.7960 o         1 O7E     -1.062333
      2 P          -3.2940    3.0770    3.4100 p3        1 O7E      2.562000
      3 O1P        -2.2540    4.2390    3.3460 o         1 O7E     -1.062333
      4 O2P        -4.4240    3.3480    2.4260 o         1 O7E     -1.062333
      5 O5'        -2.5640    1.6760    3.0210 o         1 O7E     -0.753000
      6 C5'        -1.9390    1.5640    1.7310 c3        1 O7E      0.021000
      7 C4'        -2.2130    0.3480    1.2040 c3        1 O7E     -0.076000
      8 O4'        -2.0360    0.3690   -0.2960 os        1 O7E     -0.264000
      9 C3'        -1.1710   -0.7450    1.7500 c3        1 O7E      0.169000
     10 O3'        -1.8550   -1.6790    2.6800 oh        1 O7E     -0.704000
     11 C2'        -0.7830   -1.3520    0.7410 c3        1 O7E     -0.099000
     12 O2'        -1.6220   -2.5400    0.5150 oh        1 O7E     -0.386000
     13 C1'        -0.9380   -0.3020   -0.5130 c3        1 O7E      0.143000
     14 N1          0.1570    0.5640   -0.5540 n         1 O7E     -0.276000
     15 C2         -0.0560    2.0030   -0.5120 c2        1 O7E      0.416000
     16 O2         -1.1790    2.4460   -0.5590 o         1 O7E     -0.317000
     17 N3          1.0830    2.9100   -0.4150 n         1 O7E     -0.340000
     18 C4          2.3990    2.4050   -0.5360 c1        1 O7E      0.349000
     19 O4          3.3570    3.1860   -0.5900 o         1 O7E     -0.395000
     20 C5          2.6180    0.9570   -0.6820 c1        1 O7E     -0.308000
     21 C6          1.4710    0.0430   -0.6810 c1        1 O7E      0.106000
     22 C7          1.6750   -1.4310   -1.0350 c1        1 O7E      0.361000
     23 O71         2.0420   -2.2020   -0.1910 o         1 O7E     -0.358000
     24 O72         1.5900   -1.8530   -2.3910 o         1 O7E     -0.258000
     25 C8          2.5710   -2.8730   -2.7500 c3        1 O7E     -0.018000
     26 C9          2.7850   -2.8740   -4.2710 c3        1 O7E     -0.213000
     27 H3         -0.9760    1.6660    1.8250 h1        1 O7E      0.066000
     28 H4         -2.2890    2.2730    1.1320 h1        1 O7E      0.066000
     29 H5         -3.1080    0.0880    1.4260 h1        1 O7E      0.125000
     30 H6         -0.3960   -0.2950    2.2070 h1        1 O7E     -0.019000
     31 H7         -1.4610   -1.6570    3.4620 ho        1 O7E      0.245000
     32 H8          0.1720   -1.6220    0.8450 h1        1 O7E      0.072000
     33 H9         -1.0970   -3.2880    0.5270 ho        1 O7E      0.242000
     34 H10        -1.0070   -0.7970   -1.3570 h2        1 O7E      0.114000
     35 H11         0.9450    3.8030   -0.3880 hn        1 O7E      0.321000
     36 H12         3.5120    0.6090   -0.7650 ha        1 O7E      0.158000
     37 H13         2.2670   -3.7000   -2.4840 h1        1 O7E      0.100500
     38 H14         3.4140   -2.6810   -2.3060 h1        1 O7E      0.100500
     39 H15         3.2440   -2.1180   -4.5160 hc        1 O7E      0.077667
     40 H16         3.2980   -3.6580   -4.5230 hc        1 O7E      0.077667
     41 H17         1.9150   -2.8910   -4.7260 hc        1 O7E      0.077667
@<TRIPOS>BOND
     1    1    2 1   
     2    2    3 1   
     3    2    4 1   
     4    5    6 1   
     5    6    7 1   
     6    6   27 1   
     7    6   28 1   
     8    7    8 1   
     9    7    9 1   
    10    7   29 1   
    11    8   13 1   
    12    9   10 1   
    13    9   11 1   
    14    9   30 1   
    15   10   31 1   
    16   11   12 1   
    17   11   13 1   
    18   11   32 1   
    19   12   33 1   
    20   13   14 1   
    21   13   34 1   
    22   14   15 1   
    23   14   21 1   
    24   15   16 1   
    25   15   17 1   
    26   17   18 1   
    27   17   35 1   
    28   18   19 1   
    29   20   21 1   
    30   20   36 1   
    31   22   23 1   
    32   24   25 1   
    33   25   26 1   
    34   25   37 1   
    35   25   38 1   
    36   26   39 1   
    37   26   40 1   
    38   26   41 1   
@<TRIPOS>SUBSTRUCTURE
     1 O7E         1 TEMP              0 ****  ****    0 ROOT
