@<TRIPOS>MOLECULE
O7M
   38    39     1     0     0
SMALL
bcc


@<TRIPOS>ATOM
      1 O3P         4.7170   -0.8620    0.8190 o         1 O7M     -0.848000
      2 P           4.2000   -0.4890   -0.5180 p5        1 O7M      1.428800
      3 O1P         4.4300    1.1290   -0.6140 oh        1 O7M     -0.784400
      4 O2P         4.6110   -1.1250   -1.7860 o         1 O7M     -0.848000
      5 O5'         2.5550   -0.4700   -0.4390 os        1 O7M     -0.586200
      6 C5'         1.9620   -0.1200    0.7770 c3        1 O7M      0.168400
      7 C4'         1.1180    1.1500    0.6540 c3        1 O7M      0.046100
      8 O4'        -0.0670    0.8750   -0.1290 os        1 O7M     -0.411600
      9 C3'         0.6770    1.7260    2.0420 c3        1 O7M      0.362800
     10 O3'         0.8210    3.0270    2.1680 o         1 O7M     -0.870500
     11 C2'        -0.8630    1.3190    2.1140 c3        1 O7M      0.031100
     12 O2'        -1.6630    2.3950    2.5330 oh        1 O7M     -0.651800
     13 C1'        -1.2390    0.9680    0.6540 c3        1 O7M      0.289500
     14 N1         -2.0710   -0.2550    0.4600 n         1 O7M     -0.328000
     15 C2         -1.7320   -1.4870    1.0870 c         1 O7M      0.810500
     16 O2         -0.8760   -1.5980    1.9830 o         1 O7M     -0.599500
     17 N3         -2.4490   -2.6590    0.7320 n         1 O7M     -0.594500
     18 C4         -3.4490   -2.6810   -0.2400 c         1 O7M      0.724700
     19 O4         -4.0370   -3.7540   -0.4990 o         1 O7M     -0.678500
     20 C5         -3.7380   -1.4030   -0.8830 cc        1 O7M     -0.347200
     21 C6         -3.0250   -0.2850   -0.5420 cd        1 O7M      0.122400
     22 C7         -3.3590    0.9750   -1.2820 c         1 O7M      0.644300
     23 O71        -4.3430    1.7010   -1.1320 o         1 O7M     -0.539000
     24 O72        -2.4700    1.2550   -2.2760 os        1 O7M     -0.391900
     25 C8         -2.6230    2.5110   -2.9370 c3        1 O7M      0.125700
     26 H3          1.2890   -0.9670    1.0970 h1        1 O7M      0.037200
     27 H4          2.7560    0.0400    1.5600 h1        1 O7M      0.037200
     28 H5          1.6600    1.9320    0.0580 h1        1 O7M      0.071700
     29 H6          1.1930    1.1190    2.8490 h1        1 O7M     -0.042300
     30 H7          4.1830    1.5780    0.1850 ho        1 O7M      0.424000
     31 H8         -1.0380    0.4770    2.8260 h1        1 O7M      0.059700
     32 H9         -1.0910    3.1920    2.5070 ho        1 O7M      0.437000
     33 H10        -1.8610    1.8110    0.2160 h2        1 O7M      0.050700
     34 H11        -2.1520   -3.5070    1.1610 hn        1 O7M      0.337500
     35 H12        -4.5260   -1.3890   -1.6430 ha        1 O7M      0.162000
     36 H15        -2.6120    3.3410   -2.1890 h1        1 O7M      0.050033
     37 H16        -1.7310    2.5580   -3.6110 h1        1 O7M      0.050033
     38 H17        -3.5790    2.5220   -3.5140 h1        1 O7M      0.050033
@<TRIPOS>BOND
     1    1    2 1   
     2    2    3 1   
     3    2    4 1   
     4    2    5 1   
     5    3   30 1   
     6    5    6 1   
     7    6    7 1   
     8    6   26 1   
     9    6   27 1   
    10    7    8 1   
    11    7    9 1   
    12    7   28 1   
    13    8   13 1   
    14    9   10 1   
    15    9   11 1   
    16    9   29 1   
    17   11   12 1   
    18   11   13 1   
    19   11   31 1   
    20   12   32 1   
    21   13   14 1   
    22   13   33 1   
    23   14   15 1   
    24   14   21 1   
    25   15   16 2   
    26   15   17 1   
    27   17   18 1   
    28   17   34 1   
    29   18   19 2   
    30   18   20 1   
    31   20   21 2   
    32   20   35 1   
    33   21   22 1   
    34   22   23 2   
    35   22   24 1   
    36   24   25 1   
    37   25   36 1   
    38   25   37 1   
    39   25   38 1   
@<TRIPOS>SUBSTRUCTURE
     1 O7M         1 TEMP              0 ****  ****    0 ROOT
