@<TRIPOS>MOLECULE
O7M
   38    39     1     0     0
SMALL
bcc


@<TRIPOS>ATOM
      1 O3P         1.5960    0.1660   -0.9930 o         1 O7M     -0.930500
      2 P           2.7280    0.9220   -0.3640 p5        1 O7M      1.336900
      3 O1P         2.3030    2.1710    0.3860 o         1 O7M     -0.930500
      4 O2P         3.8770    0.1510    0.2040 o         1 O7M     -0.930500
      5 O5'         3.4310    1.7240   -1.7530 os        1 O7M     -0.559200
      6 C5'         2.5680    2.5910   -2.3630 c3        1 O7M      0.227400
      7 C4'         2.8650    4.0440   -1.9150 c3        1 O7M      0.061100
      8 O4'         2.9540    4.9390   -3.0580 os        1 O7M     -0.447600
      9 C3'         1.8150    4.6140   -0.9500 c3        1 O7M      0.136100
     10 O3'         2.3840    4.8950    0.3080 oh        1 O7M     -0.685800
     11 C2'         1.3350    5.9420   -1.5810 c3        1 O7M      0.110100
     12 O2'         1.7380    7.1030   -0.8880 oh        1 O7M     -0.605800
     13 C1'         2.0060    5.9850   -2.9950 c3        1 O7M      0.282500
     14 N1          1.0970    5.8890   -4.1700 n         1 O7M     -0.358000
     15 C2         -0.1890    6.4830   -4.1460 c         1 O7M      0.809500
     16 O2         -0.5810    7.2430   -3.2340 o         1 O7M     -0.639500
     17 N3         -1.0700    6.2570   -5.2260 n         1 O7M     -0.594500
     18 C4         -0.7070    5.5430   -6.3740 c         1 O7M      0.723700
     19 O4         -1.5470    5.3940   -7.2850 o         1 O7M     -0.662500
     20 C5          0.6690    5.0600   -6.4060 cc        1 O7M     -0.332200
     21 C6          1.4990    5.2510   -5.3360 cd        1 O7M      0.126400
     22 C7          2.9280    4.8160   -5.4810 c         1 O7M      0.670300
     23 O71         3.9070    5.5550   -5.5910 o         1 O7M     -0.538000
     24 O72         3.0610    3.4700   -5.6160 os        1 O7M     -0.406900
     25 C8          4.3680    2.9370   -5.3620 c3        1 O7M      0.127700
     26 H3          1.4980    2.3300   -2.1250 h1        1 O7M      0.002200
     27 H4          2.7110    2.5500   -3.4830 h1        1 O7M      0.002200
     28 H5          3.8910    4.0860   -1.4530 h1        1 O7M      0.089700
     29 H6          0.9580    3.8960   -0.8220 h1        1 O7M      0.104700
     30 H7          2.5380    4.0120    0.7280 ho        1 O7M      0.519000
     31 H8          0.2170    5.9870   -1.6220 h1        1 O7M      0.089700
     32 H9          2.4950    6.8710   -0.3330 ho        1 O7M      0.427000
     33 H10         2.5720    6.9560   -3.1370 h2        1 O7M      0.077700
     34 H11        -1.9910    6.6230   -5.1350 hn        1 O7M      0.336500
     35 H12         0.9980    4.5310   -7.3080 ha        1 O7M      0.174000
     36 H15         4.7200    3.2740   -4.3560 h1        1 O7M      0.061700
     37 H16         5.0660    3.2660   -6.1680 h1        1 O7M      0.061700
     38 H17         4.1970    1.8310   -5.3740 h1        1 O7M      0.061700
@<TRIPOS>BOND
     1    1    2 1   
     2    2    3 1   
     3    2    4 1   
     4    2    5 1   
     5    5    6 1   
     6    6    7 1   
     7    6   26 1   
     8    6   27 1   
     9    7    8 1   
    10    7    9 1   
    11    7   28 1   
    12    8   13 1   
    13    9   10 1   
    14    9   11 1   
    15    9   29 1   
    16   10   30 1   
    17   11   12 1   
    18   11   13 1   
    19   11   31 1   
    20   12   32 1   
    21   13   14 1   
    22   13   33 1   
    23   14   15 1   
    24   14   21 1   
    25   15   16 2   
    26   15   17 1   
    27   17   18 1   
    28   17   34 1   
    29   18   19 2   
    30   18   20 1   
    31   20   21 2   
    32   20   35 1   
    33   21   22 1   
    34   22   23 2   
    35   22   24 1   
    36   24   25 1   
    37   25   36 1   
    38   25   37 1   
    39   25   38 1   
@<TRIPOS>SUBSTRUCTURE
     1 O7M         1 TEMP              0 ****  ****    0 ROOT
