@<TRIPOS>MOLECULE
O7M
   38    39     1     0     0
SMALL
bcc


@<TRIPOS>ATOM
      1 O3P         0.4760    0.8900    0.7520 o         1 O7M     -0.848000
      2 P           1.4710    0.4930   -0.2710 p5        1 O7M      1.428800
      3 O1P         2.9190    0.8710    0.3910 oh        1 O7M     -0.784400
      4 O2P         1.5450   -0.8440   -0.8970 o         1 O7M     -0.848000
      5 O5'         1.4670    1.6370   -1.4550 os        1 O7M     -0.586200
      6 C5'         1.1730    2.9540   -1.0920 c3        1 O7M      0.168400
      7 C4'         2.3460    3.8960   -1.3690 c3        1 O7M      0.046100
      8 O4'         2.5120    4.0640   -2.7960 os        1 O7M     -0.411600
      9 C3'         2.1600    5.3090   -0.7180 c3        1 O7M      0.362800
     10 O3'         3.2250    5.7740   -0.1000 o         1 O7M     -0.870500
     11 C2'         1.7910    6.2230   -1.9710 c3        1 O7M      0.031100
     12 O2'         2.5260    7.4200   -1.9720 oh        1 O7M     -0.651800
     13 C1'         2.2180    5.3850   -3.2000 c3        1 O7M      0.289500
     14 N1          1.2640    5.3580   -4.3470 n         1 O7M     -0.328000
     15 C2         -0.1210    5.0950   -4.1510 c         1 O7M      0.810500
     16 O2         -0.6740    5.0760   -3.0360 o         1 O7M     -0.599500
     17 N3         -0.9530    4.9060   -5.2850 ns        1 O7M     -0.594500
     18 C4         -0.4770    4.9200   -6.5960 c         1 O7M      0.724700
     19 O4         -1.2710    4.7460   -7.5450 o         1 O7M     -0.678500
     20 C5          0.9560    5.1570   -6.7480 cc        1 O7M     -0.347200
     21 C6          1.7470    5.3190   -5.6430 cd        1 O7M      0.122400
     22 C7          3.2130    5.5150   -5.8900 c         1 O7M      0.644300
     23 O71         3.7800    6.5290   -6.3000 o         1 O7M     -0.539000
     24 O72         3.9380    4.3790   -5.6930 os        1 O7M     -0.391900
     25 C8          5.3590    4.5060   -5.7610 c3        1 O7M      0.125700
     26 H3          0.2880    3.2970   -1.7000 h1        1 O7M      0.037200
     27 H4          0.9130    3.0020    0.0030 h1        1 O7M      0.037200
     28 H5          3.3150    3.4350   -1.0370 h1        1 O7M      0.071700
     29 H6          1.2270    5.2750   -0.0760 h1        1 O7M     -0.042300
     30 H7          2.9140    1.7230    0.8110 ho        1 O7M      0.424000
     31 H8          0.7090    6.4970   -1.9810 h1        1 O7M      0.059700
     32 H9          3.2230    7.3180   -1.2890 ho        1 O7M      0.437000
     33 H10         3.1740    5.8180   -3.6330 h2        1 O7M      0.050700
     34 H11        -1.9050    4.6800   -5.1040 hn        1 O7M      0.337500
     35 H12         1.3550    5.1830   -7.7670 ha        1 O7M      0.162000
     36 H15         5.7070    5.2930   -5.0480 h1        1 O7M      0.050033
     37 H16         5.7220    3.4930   -5.4580 h1        1 O7M      0.050033
     38 H17         5.6670    4.7630   -6.8020 h1        1 O7M      0.050033
@<TRIPOS>BOND
     1    1    2 1   
     2    2    3 1   
     3    2    4 1   
     4    2    5 1   
     5    3   30 1   
     6    5    6 1   
     7    6    7 1   
     8    6   26 1   
     9    6   27 1   
    10    7    8 1   
    11    7    9 1   
    12    7   28 1   
    13    8   13 1   
    14    9   10 1   
    15    9   11 1   
    16    9   29 1   
    17   11   12 1   
    18   11   13 1   
    19   11   31 1   
    20   12   32 1   
    21   13   14 1   
    22   13   33 1   
    23   14   15 1   
    24   14   21 1   
    25   15   16 2   
    26   15   17 1   
    27   17   18 1   
    28   17   34 1   
    29   18   19 2   
    30   18   20 1   
    31   20   21 2   
    32   20   35 1   
    33   21   22 1   
    34   22   23 2   
    35   22   24 1   
    36   24   25 1   
    37   25   36 1   
    38   25   37 1   
    39   25   38 1   
@<TRIPOS>SUBSTRUCTURE
     1 O7M         1 TEMP              0 ****  ****    0 ROOT
