@<TRIPOS>MOLECULE
O7M
   38    35     1     0     0
SMALL
bcc


@<TRIPOS>ATOM
      1 O3P        -3.2150    5.1070   -1.4800 o         1 O7M     -1.250000
      2 P          -1.7580    5.0370   -1.7590 p3        1 O7M      2.529000
      3 O1P        -1.0090    5.9460   -0.7880 o         1 O7M     -1.250000
      4 O2P        -1.4940    5.4970   -3.1880 o         1 O7M     -1.250000
      5 O5'        -1.2590    3.5470   -1.5780 o         1 O7M     -0.721000
      6 C5'        -2.0100    2.6840   -0.7520 c3        1 O7M      0.077000
      7 C4'        -1.5540    1.2140   -0.9880 c3        1 O7M     -0.050000
      8 O4'        -0.3240    1.0510   -0.5610 os        1 O7M     -0.304000
      9 C3'        -2.3950    0.2550   -0.1550 c3        1 O7M      0.025000
     10 O3'        -3.2020   -0.4790   -0.9560 oh        1 O7M     -0.413000
     11 C2'        -1.3690   -0.6760    0.5790 c3        1 O7M     -0.001000
     12 O2'        -1.7500   -2.1030    0.4060 oh        1 O7M     -0.333000
     13 C1'        -0.2410   -0.4430    0.0030 c3        1 O7M      0.134000
     14 N1          0.8390   -0.5560    0.9540 n         1 O7M     -0.251000
     15 C2          0.9570    0.4220    2.0620 c2        1 O7M      0.400000
     16 O2          0.0620    1.2820    2.2350 o         1 O7M     -0.364000
     17 N3          2.1320    0.3930    2.9530 n         1 O7M     -0.374000
     18 C4          3.1470   -0.6040    2.7720 c1        1 O7M      0.362000
     19 O4          4.1380   -0.5910    3.4700 o         1 O7M     -0.387000
     20 C5          3.0250   -1.5990    1.6700 c1        1 O7M     -0.313000
     21 C6          1.8540   -1.5560    0.7650 c1        1 O7M      0.143000
     22 C7          1.6740   -2.6340   -0.2990 c1        1 O7M      0.372000
     23 O71         0.8270   -3.4850   -0.1600 o         1 O7M     -0.349000
     24 O72         2.5400   -2.6700   -1.4270 o         1 O7M     -0.245000
     25 C8          2.8490   -4.0000   -1.8900 c3        1 O7M     -0.062000
     26 H3         -1.8630    2.9270    0.1990 h1        1 O7M      0.041500
     27 H4         -2.9800    2.7730   -0.9730 h1        1 O7M      0.041500
     28 H5         -1.6180    0.9910   -1.9150 h1        1 O7M      0.129000
     29 H6         -2.9240    0.7490    0.4930 h1        1 O7M      0.144000
     30 H7         -4.0160   -0.4070   -0.6870 ho        1 O7M      0.318000
     31 H8         -1.3220   -0.4530    1.5080 h1        1 O7M      0.129000
     32 H9         -2.3370   -2.3300    1.0300 ho        1 O7M      0.226000
     33 H10        -0.1020   -1.0780   -0.7390 h2        1 O7M      0.117000
     34 H11         2.2030    1.0030    3.6420 hn        1 O7M      0.250000
     35 H12         3.7370   -2.3000    1.5410 ha        1 O7M      0.174000
     36 H15         2.0390   -4.4120   -2.2780 h1        1 O7M      0.101000
     37 H16         3.1650   -4.5470   -1.1310 h1        1 O7M      0.101000
     38 H17         3.5530   -3.9530   -2.5770 h1        1 O7M      0.101000
@<TRIPOS>BOND
     1    1    2 1   
     2    2    3 1   
     3    2    4 1   
     4    5    6 1   
     5    6    7 1   
     6    6   26 1   
     7    6   27 1   
     8    7    8 1   
     9    7    9 1   
    10    7   28 1   
    11    8   13 1   
    12    9   10 1   
    13    9   11 1   
    14    9   29 1   
    15   10   30 1   
    16   11   12 1   
    17   11   13 1   
    18   11   31 1   
    19   12   32 1   
    20   13   14 1   
    21   13   33 1   
    22   14   15 1   
    23   14   21 1   
    24   15   16 1   
    25   15   17 1   
    26   17   18 1   
    27   17   34 1   
    28   18   19 1   
    29   20   21 1   
    30   20   35 1   
    31   22   23 1   
    32   24   25 1   
    33   25   36 1   
    34   25   37 1   
    35   25   38 1   
@<TRIPOS>SUBSTRUCTURE
     1 O7M         1 TEMP              0 ****  ****    0 ROOT
