@<TRIPOS>MOLECULE
O7M
   38    39     1     0     0
SMALL
bcc


@<TRIPOS>ATOM
      1 O3P         1.5770    0.1680   -0.9920 o         1 O7M     -0.930500
      2 P           2.7090    0.9200   -0.3600 p5        1 O7M      1.336900
      3 O1P         2.2860    2.1700    0.3880 o         1 O7M     -0.930500
      4 O2P         3.8550    0.1460    0.2110 o         1 O7M     -0.930500
      5 O5'         3.4180    1.7200   -1.7480 os        1 O7M     -0.559200
      6 C5'         2.5590    2.5890   -2.3600 c3        1 O7M      0.227400
      7 C4'         2.8590    4.0420   -1.9120 c3        1 O7M      0.061100
      8 O4'         2.9540    4.9360   -3.0550 os        1 O7M     -0.447600
      9 C3'         1.8080    4.6140   -0.9500 c3        1 O7M      0.136100
     10 O3'         2.3730    4.8940    0.3100 oh        1 O7M     -0.685800
     11 C2'         1.3340    5.9430   -1.5830 c3        1 O7M      0.110100
     12 O2'         1.7370    7.1040   -0.8900 oh        1 O7M     -0.605800
     13 C1'         2.0100    5.9850   -2.9950 c3        1 O7M      0.282500
     14 N1          1.1050    5.8910   -4.1730 n         1 O7M     -0.357000
     15 C2         -0.1790    6.4900   -4.1540 c         1 O7M      0.809500
     16 O2         -0.5720    7.2510   -3.2430 o         1 O7M     -0.639500
     17 N3         -1.0570    6.2670   -5.2370 n         1 O7M     -0.594500
     18 C4         -0.6930    5.5520   -6.3850 c         1 O7M      0.723700
     19 O4         -1.5290    5.4060   -7.2990 o         1 O7M     -0.662500
     20 C5          0.6820    5.0640   -6.4110 cc        1 O7M     -0.332200
     21 C6          1.5090    5.2520   -5.3380 cd        1 O7M      0.126400
     22 C7          2.9370    4.8120   -5.4780 c         1 O7M      0.670300
     23 O71         3.9190    5.5480   -5.5840 o         1 O7M     -0.538000
     24 O72         3.0660    3.4660   -5.6120 os        1 O7M     -0.406900
     25 C8          4.3700    2.9280   -5.3540 c3        1 O7M      0.127700
     26 H3          2.7050    2.5470   -3.4800 h1        1 O7M      0.002200
     27 H4          1.4880    2.3310   -2.1250 h1        1 O7M      0.002200
     28 H5          3.8840    4.0800   -1.4470 h1        1 O7M      0.089700
     29 H6          0.9490    3.9000   -0.8250 h1        1 O7M      0.104700
     30 H7          2.5250    4.0110    0.7300 ho        1 O7M      0.519000
     31 H8          0.2160    5.9920   -1.6290 h1        1 O7M      0.089700
     32 H9          2.4920    6.8700   -0.3320 ho        1 O7M      0.427000
     33 H10         2.5790    6.9530   -3.1350 h2        1 O7M      0.077700
     34 H11        -1.9770    6.6360   -5.1500 hn        1 O7M      0.336500
     35 H12         1.0130    4.5340   -7.3120 ha        1 O7M      0.174000
     36 H15         4.7200    3.2640   -4.3450 h1        1 O7M      0.061700
     37 H16         5.0730    3.2550   -6.1560 h1        1 O7M      0.061700
     38 H17         4.1960    1.8230   -5.3670 h1        1 O7M      0.061700
@<TRIPOS>BOND
     1    1    2 1   
     2    2    3 1   
     3    2    4 1   
     4    2    5 1   
     5    5    6 1   
     6    6    7 1   
     7    6   26 1   
     8    6   27 1   
     9    7    8 1   
    10    7    9 1   
    11    7   28 1   
    12    8   13 1   
    13    9   10 1   
    14    9   11 1   
    15    9   29 1   
    16   10   30 1   
    17   11   12 1   
    18   11   13 1   
    19   11   31 1   
    20   12   32 1   
    21   13   14 1   
    22   13   33 1   
    23   14   15 1   
    24   14   21 1   
    25   15   16 2   
    26   15   17 1   
    27   17   18 1   
    28   17   34 1   
    29   18   19 2   
    30   18   20 1   
    31   20   21 2   
    32   20   35 1   
    33   21   22 1   
    34   22   23 2   
    35   22   24 1   
    36   24   25 1   
    37   25   36 1   
    38   25   37 1   
    39   25   38 1   
@<TRIPOS>SUBSTRUCTURE
     1 O7M         1 TEMP              0 ****  ****    0 ROOT
