@<TRIPOS>MOLECULE
O7U
   16    16     1     0     0
SMALL
bcc


@<TRIPOS>ATOM
      1 N1         -0.1090   -0.0890   -0.0490 n         1 O7U     -0.472100
      2 C2          1.3190    0.0120   -0.0620 c         1 O7U      0.796500
      3 O2          1.9190   -0.0910   -1.1380 o         1 O7U     -0.514500
      4 N3          1.9850    0.2210    1.1610 n         1 O7U     -0.752900
      5 N4          1.6050   -1.3730    3.2940 n4        1 O7U     -0.856700
      6 O4          1.9040    1.0940    3.5980 o         1 O7U     -0.771300
      7 P4          1.2720    0.2760    2.5780 py        1 O7U      1.539600
      8 C5         -0.2770    0.1710    2.3210 ce        1 O7U     -0.785600
      9 C6         -0.8500    0.0340    1.0860 c2        1 O7U      0.230600
     10 HN1        -0.5430   -0.1790   -0.9500 hn        1 O7U      0.391500
     11 HN3         2.9510    0.4520    1.0190 hn        1 O7U      0.388500
     12 HN4         0.7450   -1.8800    3.4930 hn        1 O7U      0.458467
     13 HN4A        2.1930   -1.9840    2.7340 hn        1 O7U      0.458467
     14 H5         -0.9800    0.3020    3.1660 ha        1 O7U      0.228000
     15 H6         -1.9560    0.0100    0.9460 h4        1 O7U      0.202000
     16 H43         2.0880   -1.2260    4.1870 hn        1 O7U      0.458467
@<TRIPOS>BOND
     1    1    2 1   
     2    1    9 1   
     3    1   10 1   
     4    2    3 2   
     5    2    4 1   
     6    4    7 1   
     7    4   11 1   
     8    5    7 1   
     9    5   12 1   
    10    5   13 1   
    11    5   16 1   
    12    6    7 2   
    13    7    8 1   
    14    8    9 2   
    15    8   14 1   
    16    9   15 1   
@<TRIPOS>SUBSTRUCTURE
     1 O7U         1 TEMP              0 ****  ****    0 ROOT
