@<TRIPOS>MOLECULE
O7U
   15    15     1     0     0
SMALL
bcc


@<TRIPOS>ATOM
      1 N1         -1.7740    0.9050    0.1430 n         1 O7U     -0.497100
      2 C2         -1.5320   -0.4960    0.0400 c         1 O7U      0.812500
      3 O2         -2.5230   -1.2560    0.0870 o         1 O7U     -0.634500
      4 N3         -0.2300   -0.9510   -0.1040 n         1 O7U     -0.706900
      5 N4          1.8350   -0.2630    1.3250 n3        1 O7U     -1.116900
      6 O4          2.0220   -0.4060   -1.1920 o         1 O7U     -0.869300
      7 P4          1.1300   -0.0410   -0.0790 py        1 O7U      1.603600
      8 C5          0.5480    1.4770   -0.0730 ce        1 O7U     -0.636600
      9 C6         -0.7550    1.8220    0.0190 c2        1 O7U      0.142600
     10 HN1        -2.7270    1.1900    0.1890 hn        1 O7U      0.355500
     11 HN3        -0.1940   -1.9290   -0.2910 hn        1 O7U      0.349500
     12 HN4         2.7000   -0.7320    1.4040 hn        1 O7U      0.429300
     13 HN4A        1.5060    0.0670    2.1920 hn        1 O7U      0.429300
     14 H5          1.2780    2.2930   -0.1900 ha        1 O7U      0.187000
     15 H6         -1.0930    2.8790    0.0070 h4        1 O7U      0.151000
@<TRIPOS>BOND
     1    1    2 1   
     2    1    9 1   
     3    1   10 1   
     4    2    3 2   
     5    2    4 1   
     6    4    7 1   
     7    4   11 1   
     8    5    7 1   
     9    5   12 1   
    10    5   13 1   
    11    6    7 2   
    12    7    8 1   
    13    8    9 2   
    14    8   14 1   
    15    9   15 1   
@<TRIPOS>SUBSTRUCTURE
     1 O7U         1 TEMP              0 ****  ****    0 ROOT
