@<TRIPOS>MOLECULE
O7U
   16    16     1     0     0
SMALL
bcc


@<TRIPOS>ATOM
      1 N1         -0.1360   -0.1270   -0.0380 n         1 O7U     -0.472100
      2 C2          1.2940   -0.0510   -0.0770 c         1 O7U      0.796500
      3 O2          1.8730   -0.1990   -1.1600 o         1 O7U     -0.514500
      4 N3          1.9840    0.1830    1.1270 n         1 O7U     -0.752900
      5 N4          1.6120   -1.3370    3.3150 n4        1 O7U     -0.856700
      6 O4          1.9590    1.1320    3.5370 o         1 O7U     -0.771300
      7 P4          1.2950    0.2950    2.5530 py        1 O7U      1.539600
      8 C5         -0.2590    0.2090    2.3250 ce        1 O7U     -0.785600
      9 C6         -0.8550    0.0440    1.1050 c2        1 O7U      0.230600
     10 HN1        -0.5860   -0.2370   -0.9290 hn        1 O7U      0.391500
     11 HN3         2.9510    0.3930    0.9620 hn        1 O7U      0.388500
     12 HN4         0.7480   -1.8230    3.5430 hn        1 O7U      0.458467
     13 HN4A        2.1810   -1.9750    2.7650 hn        1 O7U      0.458467
     14 H5         -0.9450    0.3780    3.1760 ha        1 O7U      0.228000
     15 H6         -1.9630    0.0350    0.9830 h4        1 O7U      0.202000
     16 H43         2.1120   -1.1710    4.1960 hn        1 O7U      0.458467
@<TRIPOS>BOND
     1    1    2 1   
     2    1    9 1   
     3    1   10 1   
     4    2    3 2   
     5    2    4 1   
     6    4    7 1   
     7    4   11 1   
     8    5    7 1   
     9    5   12 1   
    10    5   13 1   
    11    5   16 1   
    12    6    7 2   
    13    7    8 1   
    14    8    9 2   
    15    8   14 1   
    16    9   15 1   
@<TRIPOS>SUBSTRUCTURE
     1 O7U         1 TEMP              0 ****  ****    0 ROOT
