@<TRIPOS>MOLECULE
O7U
   15    15     1     0     0
SMALL
bcc


@<TRIPOS>ATOM
      1 N1         -0.9780   -0.2010   -1.7500 n         1 O7U     -0.497100
      2 C2          0.5460   -0.2010   -1.7500 c         1 O7U      0.812500
      3 O2          1.1520   -0.2360   -2.8020 o         1 O7U     -0.634500
      4 N3          1.2810   -0.2010   -0.4790 n         1 O7U     -0.706900
      5 N4          0.7830   -0.7940    2.0650 n3        1 O7U     -1.116900
      6 O4          1.2820    1.4750    1.4090 o         1 O7U     -0.869300
      7 P4          0.5650    0.3050    0.8520 py        1 O7U      1.603600
      8 C5         -1.0870    0.6910    0.6480 ce        1 O7U     -0.636600
      9 C6         -1.7230    0.4900   -0.6660 c2        1 O7U      0.142600
     10 HN1        -1.4340   -0.6110   -2.4250 hn        1 O7U      0.355500
     11 HN3         2.1650   -0.4280   -0.4640 hn        1 O7U      0.349500
     12 HN4         0.5220   -1.6600    1.9480 hn        1 O7U      0.429300
     13 HN4A        1.1500   -0.5320    2.8580 hn        1 O7U      0.429300
     14 H5         -1.5730    1.1490    1.3600 ha        1 O7U      0.187000
     15 H6         -2.6520    0.7540   -0.8040 h4        1 O7U      0.151000
@<TRIPOS>BOND
     1    1    2 1   
     2    1    9 1   
     3    1   10 1   
     4    2    3 2   
     5    2    4 1   
     6    4    7 1   
     7    4   11 1   
     8    5    7 1   
     9    5   12 1   
    10    5   13 1   
    11    6    7 2   
    12    7    8 1   
    13    8    9 2   
    14    8   14 1   
    15    9   15 1   
@<TRIPOS>SUBSTRUCTURE
     1 O7U         1 TEMP              0 ****  ****    0 ROOT
