@<TRIPOS>MOLECULE
O8A
   40    43     1     0     0
SMALL
bcc


@<TRIPOS>ATOM
      1 C1         -2.2720   -1.6610   -0.5980 ca        1 O8A      0.077400
      2 F1         -5.1730    2.1590    1.1420 f         1 O8A     -0.217300
      3 N1         -1.8230   -2.9820   -0.8100 nc        1 O8A     -0.554100
      4 O1         -4.9050    0.8590   -0.7210 os        1 O8A     -0.366900
      5 S1          2.3030   -0.3440   -0.5060 ss        1 O8A      0.041200
      6 C2         -1.1600   -0.8300   -0.1710 ca        1 O8A     -0.057200
      7 F2         -6.0080    0.1140    1.1500 f         1 O8A     -0.217300
      8 N2         -0.0350   -1.6750   -0.1640 na        1 O8A     -0.089400
      9 O2          5.7360   -0.1930    1.3970 o         1 O8A     -0.587100
     10 C3         -1.3280    0.5290    0.1180 ca        1 O8A     -0.119000
     11 F3         -6.8700    1.6560   -0.1810 f         1 O8A     -0.217300
     12 N3          5.0060    1.1640   -0.3100 n         1 O8A     -0.543900
     13 C4         -2.5990    1.0660   -0.0240 ca        1 O8A     -0.112000
     14 C5         -3.6740    0.2570   -0.4460 ca        1 O8A      0.057100
     15 C6         -3.5470   -1.1020   -0.7340 ca        1 O8A     -0.050000
     16 C7         -0.5080   -2.9780   -0.5320 cd        1 O8A      0.450800
     17 C8         -5.7240    1.1870    0.3710 c3        1 O8A      0.817700
     18 C9          0.4070   -4.1460   -0.6240 c3        1 O8A     -0.121400
     19 C10         1.2240   -1.3660    0.3290 cc        1 O8A     -0.001300
     20 C11         3.4990   -0.4940    0.6530 cc        1 O8A     -0.182700
     21 C12         3.1180   -1.3350    1.6860 cd        1 O8A     -0.082000
     22 C13         1.8010   -1.8380    1.5070 cd        1 O8A     -0.163000
     23 C14         4.8230    0.1580    0.6240 c         1 O8A      0.710700
     24 C15         6.2220    1.8910   -0.4060 cx        1 O8A      0.052700
     25 C16         6.6780    2.4880   -1.7230 cx        1 O8A     -0.151900
     26 C17         6.2370    3.3940   -0.6110 cx        1 O8A     -0.151900
     27 H3         -0.4850    1.1510    0.4500 ha        1 O8A      0.148000
     28 HN3         4.2400    1.4760   -0.8570 hn        1 O8A      0.307500
     29 H4         -2.7840    2.1290    0.1950 ha        1 O8A      0.157000
     30 H6         -4.4080   -1.7020   -1.0620 ha        1 O8A      0.171000
     31 H9          0.9960   -4.0850   -1.5730 hc        1 O8A      0.070367
     32 H9A         1.1160   -4.1550    0.2420 hc        1 O8A      0.070367
     33 H9B        -0.1800   -5.0980   -0.6250 hc        1 O8A      0.070367
     34 H12         3.7580   -1.5800    2.5410 ha        1 O8A      0.184000
     35 H13         1.3120   -2.5090    2.2190 ha        1 O8A      0.172000
     36 H15         7.0010    1.4540    0.2630 h1        1 O8A      0.124700
     37 H16         7.7510    2.4210   -1.9760 hc        1 O8A      0.075450
     38 H16A        6.0400    2.3990   -2.6200 hc        1 O8A      0.075450
     39 H17         5.2860    3.9460   -0.7220 hc        1 O8A      0.075450
     40 H17A        6.9890    3.9840   -0.0590 hc        1 O8A      0.075450
@<TRIPOS>BOND
     1    1    3 1   
     2    1    6 ar  
     3    1   15 ar  
     4    2   17 1   
     5    3   16 2   
     6    4   14 1   
     7    4   17 1   
     8    5   19 1   
     9    5   20 1   
    10    6    8 1   
    11    6   10 ar  
    12    7   17 1   
    13    8   16 1   
    14    8   19 1   
    15    9   23 2   
    16   10   13 ar  
    17   10   27 1   
    18   11   17 1   
    19   12   23 1   
    20   12   24 1   
    21   12   28 1   
    22   13   14 ar  
    23   13   29 1   
    24   14   15 ar  
    25   15   30 1   
    26   16   18 1   
    27   18   31 1   
    28   18   32 1   
    29   18   33 1   
    30   19   22 2   
    31   20   21 2   
    32   20   23 1   
    33   21   22 1   
    34   21   34 1   
    35   22   35 1   
    36   24   25 1   
    37   24   26 1   
    38   24   36 1   
    39   25   26 1   
    40   25   37 1   
    41   25   38 1   
    42   26   39 1   
    43   26   40 1   
@<TRIPOS>SUBSTRUCTURE
     1 O8A         1 TEMP              0 ****  ****    0 ROOT
