@<TRIPOS>MOLECULE
O8A
   41    44     1     0     0
SMALL
bcc


@<TRIPOS>ATOM
      1 C1         -0.1080    0.1970    0.3380 ca        1 O8A      0.100400
      2 F1         -5.2430    0.2770   -0.0150 f         1 O8A     -0.207300
      3 N1          1.2470   -0.1470    0.1100 nc        1 O8A     -0.510100
      4 O1         -3.3670    1.2020   -0.9270 os        1 O8A     -0.367900
      5 S1          0.0310    0.6380    4.8610 ss        1 O8A      0.001200
      6 C2         -0.3620    0.2500    1.7630 ca        1 O8A     -0.088200
      7 F2         -4.1040   -0.8900   -1.5070 f         1 O8A     -0.207300
      8 N2          0.8690   -0.0790    2.3920 na        1 O8A     -0.095400
      9 O2          1.3340    0.1330    8.5710 o         1 O8A     -0.446100
     10 C3         -1.6230    0.5660    2.2650 ca        1 O8A     -0.125000
     11 F3         -5.1780    0.9510   -2.1250 f         1 O8A     -0.207300
     12 N3         -0.6310    1.1620    7.9010 ny        1 O8A     -0.644800
     13 C4         -2.6370    0.8370    1.3500 ca        1 O8A     -0.105000
     14 C5         -2.3850    0.7860   -0.0320 ca        1 O8A      0.092100
     15 C6         -1.1320    0.4630   -0.5700 ca        1 O8A     -0.036000
     16 C7          1.8140   -0.3060    1.3060 cd        1 O8A      0.471800
     17 C8         -4.4770    0.3570   -1.1330 c3        1 O8A      0.823700
     18 C9          3.2390   -0.6550    1.5410 c3        1 O8A     -0.133400
     19 C10         1.0840   -0.1180    3.7380 cc        1 O8A      0.167700
     20 C11         0.9410    0.1780    6.2020 cc        1 O8A     -0.317700
     21 C12         2.0750   -0.5540    5.8120 cd        1 O8A      0.033000
     22 C13         2.1550   -0.7290    4.4230 cd        1 O8A     -0.245000
     23 C14         0.6780    0.4290    7.5800 c         1 O8A      0.624700
     24 C15        -0.3780    2.5600    8.2830 cx        1 O8A      0.000500
     25 C16        -0.5490    3.6950    7.2950 cx        1 O8A     -0.102400
     26 C17        -1.5220    3.5430    8.4230 cx        1 O8A     -0.102400
     27 H3         -1.8350    0.5940    3.3440 ha        1 O8A      0.133000
     28 HN3        -1.2700    1.1200    7.1020 hn        1 O8A      0.451800
     29 H4         -3.6510    1.0900    1.7030 ha        1 O8A      0.168000
     30 H6         -0.9680    0.4340   -1.6590 ha        1 O8A      0.191000
     31 H9          3.3190   -1.7240    1.8640 hc        1 O8A      0.082033
     32 H9A         3.6870    0.0100    2.3200 hc        1 O8A      0.082033
     33 H9B         3.8210   -0.5320    0.5910 hc        1 O8A      0.082033
     34 H12         2.8120   -0.9550    6.5210 ha        1 O8A      0.194000
     35 H13         2.9530   -1.3060    3.9440 ha        1 O8A      0.195000
     36 H15         0.4650    2.5990    9.0160 hx        1 O8A      0.157700
     37 H16        -0.8870    3.4870    6.2620 hc        1 O8A      0.109450
     38 H16A        0.2030    4.5080    7.3200 hc        1 O8A      0.109450
     39 H17        -2.5580    3.2260    8.2010 hc        1 O8A      0.109450
     40 H17A       -1.4870    4.2450    9.2800 hc        1 O8A      0.109450
     41 H32        -1.0720    0.6920    8.7030 hn        1 O8A      0.451800
@<TRIPOS>BOND
     1    1    3 1   
     2    1    6 ar  
     3    1   15 ar  
     4    2   17 1   
     5    3   16 2   
     6    4   14 1   
     7    4   17 1   
     8    5   19 1   
     9    5   20 1   
    10    6    8 1   
    11    6   10 ar  
    12    7   17 1   
    13    8   16 1   
    14    8   19 1   
    15    9   23 2   
    16   10   13 ar  
    17   10   27 1   
    18   11   17 1   
    19   12   23 1   
    20   12   24 1   
    21   12   28 1   
    22   12   41 1   
    23   13   14 ar  
    24   13   29 1   
    25   14   15 ar  
    26   15   30 1   
    27   16   18 1   
    28   18   31 1   
    29   18   32 1   
    30   18   33 1   
    31   19   22 2   
    32   20   21 2   
    33   20   23 1   
    34   21   22 1   
    35   21   34 1   
    36   22   35 1   
    37   24   25 1   
    38   24   26 1   
    39   24   36 1   
    40   25   26 1   
    41   25   37 1   
    42   25   38 1   
    43   26   39 1   
    44   26   40 1   
@<TRIPOS>SUBSTRUCTURE
     1 O8A         1 TEMP              0 ****  ****    0 ROOT
