@<TRIPOS>MOLECULE
O8A
   40    34     1     0     0
SMALL
bcc


@<TRIPOS>ATOM
      1 C1         -1.2450    1.6930   -2.8280 c1        1 O8A     -0.037000
      2 F1         -6.0930    2.4600   -5.8270 f         1 O8A     -0.146000
      3 N1          0.1100    1.8050   -2.8290 n1        1 O8A     -0.127000
      4 O1         -4.2900    2.5570   -4.4840 os        1 O8A     -0.250000
      5 S1          0.2970   -0.8830    0.6930 ss        1 O8A      0.706000
      6 C2         -1.6280    1.2210   -1.6020 c1        1 O8A     -0.037000
      7 F2         -4.2580    1.4230   -6.4270 f         1 O8A     -0.146000
      8 N2         -0.5070    1.0450   -0.8510 n2        1 O8A     -0.138000
      9 O2          1.0880   -3.2310    2.4810 o         1 O8A     -0.359000
     10 C3         -3.0000    1.0350   -1.3140 c1        1 O8A     -0.109500
     11 F3         -5.4570    0.6530   -4.7620 f         1 O8A     -0.146000
     12 N3          2.3090   -2.0040    3.9960 n3        1 O8A     -0.342000
     13 C4         -3.9590    1.3310   -2.2770 c1        1 O8A     -0.109500
     14 C5         -3.5690    1.8100   -3.5230 c1        1 O8A      0.012000
     15 C6         -2.2200    1.9930   -3.8060 c1        1 O8A     -0.064000
     16 C7          0.5680    1.4050   -1.6080 c1        1 O8A      0.045000
     17 C8         -5.0340    1.7630   -5.3860 c3        1 O8A      0.532000
     18 C9          1.9570    2.0040   -1.8290 c2        1 O8A     -0.162000
     19 C10         0.1210    0.6040    0.2690 c2        1 O8A     -0.265000
     20 C11         1.1820   -0.9050    1.9730 c1        1 O8A     -0.444000
     21 C12         1.5210    0.4690    2.3050 c1        1 O8A     -0.128000
     22 C13         0.8460    1.4290    1.2220 c1        1 O8A     -0.161000
     23 C14         1.5230   -2.1380    2.8050 c1        1 O8A      0.381000
     24 C15         2.5860   -3.1600    4.8100 cx        1 O8A     -0.025000
     25 C16         3.3280   -4.2930    4.1190 cx        1 O8A     -0.230500
     26 C17         4.0520   -3.4100    5.1230 cx        1 O8A     -0.230500
     27 H3         -3.2750    0.6970   -0.4340 ha        1 O8A      0.154000
     28 HN3         2.6230   -1.1820    4.2460 hn        1 O8A      0.227000
     29 H4         -4.9130    1.2380   -2.0640 ha        1 O8A      0.154000
     30 H6         -1.9460    2.3590   -4.6760 ha        1 O8A      0.171000
     31 H9          1.8950    2.7490   -2.4670 ha        1 O8A      0.108000
     32 H9A         2.5580    1.3140   -2.1890 ha        1 O8A      0.108000
     33 H9B         2.3120    2.3330   -0.9750 ha        1 O8A      0.108000
     34 H12         2.0690    0.7570    3.0640 DU        1 O8A      0.165000
     35 H13         0.9100    2.4070    1.2020 DU        1 O8A      0.165000
     36 H15         1.9490   -3.4300    5.5080 h1        1 O8A      0.164000
     37 H16         3.1080   -5.1980    4.4290 hc        1 O8A      0.114750
     38 H16A        3.5550   -4.1410    3.1770 hc        1 O8A      0.114750
     39 H17         4.6860   -2.7620    4.7430 hc        1 O8A      0.114750
     40 H17A        4.2370   -3.8190    5.9950 hc        1 O8A      0.114750
@<TRIPOS>BOND
     1    1    6 1   
     2    2   17 1   
     3    3   16 1   
     4    4   14 1   
     5    4   17 1   
     6    5   19 1   
     7    5   20 1   
     8    7   17 1   
     9    8   16 1   
    10    8   19 1   
    11    9   23 1   
    12   10   13 1   
    13   10   27 1   
    14   11   17 1   
    15   12   23 1   
    16   12   24 1   
    17   12   28 1   
    18   13   29 1   
    19   14   15 1   
    20   15   30 1   
    21   18   31 1   
    22   18   32 1   
    23   18   33 1   
    24   19   22 1   
    25   20   21 1   
    26   21   22 1   
    27   24   25 1   
    28   24   26 1   
    29   24   36 1   
    30   25   26 1   
    31   25   37 1   
    32   25   38 1   
    33   26   39 1   
    34   26   40 1   
@<TRIPOS>SUBSTRUCTURE
     1 O8A         1 TEMP              0 ****  ****    0 ROOT
