@<TRIPOS>MOLECULE
O8A
   41    44     1     0     0
SMALL
bcc


@<TRIPOS>ATOM
      1 C1         -0.1150    0.2000    0.3360 ca        1 O8A      0.100400
      2 F1         -5.2490    0.2960   -0.0120 f         1 O8A     -0.207300
      3 N1          1.2390   -0.1480    0.1060 nc        1 O8A     -0.510100
      4 O1         -3.3720    1.2170   -0.9250 os        1 O8A     -0.367900
      5 S1          0.0300    0.6350    4.8590 ss        1 O8A      0.000200
      6 C2         -0.3670    0.2520    1.7610 ca        1 O8A     -0.088200
      7 F2         -4.1160   -0.8720   -1.5080 f         1 O8A     -0.207300
      8 N2          0.8630   -0.0820    2.3890 na        1 O8A     -0.095400
      9 O2          1.3350    0.1190    8.5670 o         1 O8A     -0.446100
     10 C3         -1.6270    0.5710    2.2650 ca        1 O8A     -0.125000
     11 F3         -5.1860    0.9730   -2.1200 f         1 O8A     -0.207300
     12 N3         -0.6260    1.1590    7.9000 n4        1 O8A     -0.644800
     13 C4         -2.6410    0.8460    1.3520 ca        1 O8A     -0.105000
     14 C5         -2.3910    0.7970   -0.0310 ca        1 O8A      0.092100
     15 C6         -1.1390    0.4710   -0.5710 ca        1 O8A     -0.036000
     16 C7          1.8060   -0.3100    1.3010 cd        1 O8A      0.471800
     17 C8         -4.4850    0.3760   -1.1300 c3        1 O8A      0.823700
     18 C9          3.2310   -0.6640    1.5340 c3        1 O8A     -0.133400
     19 C10         1.0800   -0.1230    3.7340 cc        1 O8A      0.167700
     20 C11         0.9400    0.1700    6.1990 cc        1 O8A     -0.317700
     21 C12         2.0720   -0.5650    5.8060 cd        1 O8A      0.033000
     22 C13         2.1490   -0.7390    4.4170 cd        1 O8A     -0.245000
     23 C14         0.6790    0.4200    7.5770 c         1 O8A      0.624700
     24 C15        -0.3640    2.5540    8.2880 cx        1 O8A      0.000500
     25 C16        -0.5300    3.6940    7.3060 cx        1 O8A     -0.102400
     26 C17        -1.5030    3.5430    8.4340 cx        1 O8A     -0.102400
     27 H3         -1.8370    0.5990    3.3440 ha        1 O8A      0.133000
     28 HN3        -1.0700    0.6890    8.7000 hn        1 O8A      0.451800
     29 H4         -3.6530    1.1020    1.7050 ha        1 O8A      0.168000
     30 H6         -0.9760    0.4420   -1.6600 ha        1 O8A      0.191000
     31 H9          3.8130   -0.5410    0.5830 hc        1 O8A      0.082033
     32 H9A         3.6820   -0.0010    2.3130 hc        1 O8A      0.082033
     33 H9B         3.3080   -1.7340    1.8550 hc        1 O8A      0.082033
     34 H12         2.8070   -0.9700    6.5150 ha        1 O8A      0.194000
     35 H13         2.9450   -1.3180    3.9360 ha        1 O8A      0.195000
     36 H15         0.4790    2.5850    9.0210 hx        1 O8A      0.157700
     37 H16         0.2270    4.5030    7.3340 hc        1 O8A      0.109450
     38 H16A       -0.8690    3.4930    6.2720 hc        1 O8A      0.109450
     39 H17        -2.5410    3.2330    8.2110 hc        1 O8A      0.109450
     40 H17A       -1.4630    4.2400    9.2940 hc        1 O8A      0.109450
     41 H32        -1.2640    1.1250    7.1010 hn        1 O8A      0.451800
@<TRIPOS>BOND
     1    1    3 1   
     2    1    6 ar  
     3    1   15 ar  
     4    2   17 1   
     5    3   16 2   
     6    4   14 1   
     7    4   17 1   
     8    5   19 1   
     9    5   20 1   
    10    6    8 1   
    11    6   10 ar  
    12    7   17 1   
    13    8   16 1   
    14    8   19 1   
    15    9   23 2   
    16   10   13 ar  
    17   10   27 1   
    18   11   17 1   
    19   12   23 1   
    20   12   24 1   
    21   12   28 1   
    22   12   41 1   
    23   13   14 ar  
    24   13   29 1   
    25   14   15 ar  
    26   15   30 1   
    27   16   18 1   
    28   18   31 1   
    29   18   32 1   
    30   18   33 1   
    31   19   22 2   
    32   20   21 2   
    33   20   23 1   
    34   21   22 1   
    35   21   34 1   
    36   22   35 1   
    37   24   25 1   
    38   24   26 1   
    39   24   36 1   
    40   25   26 1   
    41   25   37 1   
    42   25   38 1   
    43   26   39 1   
    44   26   40 1   
@<TRIPOS>SUBSTRUCTURE
     1 O8A         1 TEMP              0 ****  ****    0 ROOT
