@<TRIPOS>MOLECULE
O8A
   41    44     1     0     0
SMALL
bcc


@<TRIPOS>ATOM
      1 C1         -0.1170    0.2240    0.3330 ca        1 O8A      0.100400
      2 F1         -5.2530    0.2660   -0.0000 f         1 O8A     -0.207300
      3 N1          1.2410   -0.1080    0.0980 nc        1 O8A     -0.510100
      4 O1         -3.3880    1.2120   -0.9120 os        1 O8A     -0.367900
      5 S1          0.0370    0.6310    4.8580 ss        1 O8A      0.001200
      6 C2         -0.3650    0.2650    1.7590 ca        1 O8A     -0.088200
      7 F2         -4.1110   -0.8810   -1.5050 f         1 O8A     -0.207300
      8 N2          0.8710   -0.0600    2.3810 na        1 O8A     -0.095400
      9 O2          1.3590    0.1100    8.5600 o         1 O8A     -0.446100
     10 C3         -1.6270    0.5670    2.2690 ca        1 O8A     -0.125000
     11 F3         -5.2020    0.9560   -2.1040 f         1 O8A     -0.207300
     12 N3         -0.6180    1.1270    7.9040 n4        1 O8A     -0.644800
     13 C4         -2.6470    0.8360    1.3600 ca        1 O8A     -0.105000
     14 C5         -2.3990    0.7980   -0.0240 ca        1 O8A      0.092100
     15 C6         -1.1460    0.4890   -0.5700 ca        1 O8A     -0.036000
     16 C7          1.8130   -0.2710    1.2900 cd        1 O8A      0.471800
     17 C8         -4.4920    0.3610   -1.1200 c3        1 O8A      0.823700
     18 C9          3.2420   -0.6110    1.5170 c3        1 O8A     -0.133400
     19 C10         1.0910   -0.1070    3.7260 cc        1 O8A      0.167700
     20 C11         0.9550    0.1690    6.1930 cc        1 O8A     -0.317700
     21 C12         2.0950   -0.5500    5.7930 cd        1 O8A      0.033000
     22 C13         2.1700   -0.7150    4.4020 cd        1 O8A     -0.245000
     23 C14         0.6960    0.4080    7.5730 c         1 O8A      0.624700
     24 C15        -0.3750    2.5250    8.2950 cx        1 O8A      0.000500
     25 C16        -0.5600    3.6650    7.3160 cx        1 O8A     -0.102400
     26 C17        -1.5260    3.4970    8.4470 cx        1 O8A     -0.102400
     27 H3         -1.8350    0.5840    3.3490 ha        1 O8A      0.133000
     28 HN3        -1.2600    1.0860    7.1080 hn        1 O8A      0.451800
     29 H4         -3.6600    1.0780    1.7180 ha        1 O8A      0.168000
     30 H6         -0.9860    0.4690   -1.6590 ha        1 O8A      0.191000
     31 H9          3.6880    0.0530    2.2990 hc        1 O8A      0.082033
     32 H9A         3.8200   -0.4750    0.5650 hc        1 O8A      0.082033
     33 H9B         3.3320   -1.6810    1.8310 hc        1 O8A      0.082033
     34 H12         2.8370   -0.9510    6.4960 ha        1 O8A      0.194000
     35 H13         2.9710   -1.2810    3.9160 ha        1 O8A      0.195000
     36 H15         0.4700    2.5660    9.0250 hx        1 O8A      0.157700
     37 H16         0.1850    4.4840    7.3430 hc        1 O8A      0.109450
     38 H16A       -0.9000    3.4610    6.2830 hc        1 O8A      0.109450
     39 H17        -2.5610    3.1730    8.2270 hc        1 O8A      0.109450
     40 H17A       -1.4940    4.1930    9.3090 hc        1 O8A      0.109450
     41 H32        -1.0520    0.6480    8.7060 hn        1 O8A      0.451800
@<TRIPOS>BOND
     1    1    3 1   
     2    1    6 ar  
     3    1   15 ar  
     4    2   17 1   
     5    3   16 2   
     6    4   14 1   
     7    4   17 1   
     8    5   19 1   
     9    5   20 1   
    10    6    8 1   
    11    6   10 ar  
    12    7   17 1   
    13    8   16 1   
    14    8   19 1   
    15    9   23 2   
    16   10   13 ar  
    17   10   27 1   
    18   11   17 1   
    19   12   23 1   
    20   12   24 1   
    21   12   28 1   
    22   12   41 1   
    23   13   14 ar  
    24   13   29 1   
    25   14   15 ar  
    26   15   30 1   
    27   16   18 1   
    28   18   31 1   
    29   18   32 1   
    30   18   33 1   
    31   19   22 2   
    32   20   21 2   
    33   20   23 1   
    34   21   22 1   
    35   21   34 1   
    36   22   35 1   
    37   24   25 1   
    38   24   26 1   
    39   24   36 1   
    40   25   26 1   
    41   25   37 1   
    42   25   38 1   
    43   26   39 1   
    44   26   40 1   
@<TRIPOS>SUBSTRUCTURE
     1 O8A         1 TEMP              0 ****  ****    0 ROOT
