@<TRIPOS>MOLECULE
O8B
   48    51     1     0     0
SMALL
bcc


@<TRIPOS>ATOM
      1 C11        -4.8770    1.5790    1.8200 c3        1 O8B     -0.057800
      2 C10        -5.4320    0.4440    1.0480 ca        1 O8B     -0.092300
      3 C01        -5.9650   -0.6620    1.7210 ca        1 O8B     -0.111000
      4 C03        -6.5030   -1.7370    1.0180 ca        1 O8B     -0.137000
      5 C05        -6.5300   -1.7180   -0.3760 ca        1 O8B     -0.107000
      6 C07        -6.0140   -0.6270   -1.0720 ca        1 O8B     -0.162000
      7 C09        -5.4580    0.4430   -0.3600 ca        1 O8B      0.089100
      8 O15        -5.0060    1.6000   -0.9890 os        1 O8B     -0.336900
      9 C16        -4.2030    1.4200   -2.1470 c3        1 O8B      0.056400
     10 C19        -2.7510    1.0150   -1.8790 c         1 O8B      0.634100
     11 O22        -2.0500    0.6730   -2.8500 o         1 O8B     -0.589100
     12 N20        -2.2890    1.0850   -0.5800 n         1 O8B     -0.458100
     13 C23        -1.0020    0.7650   -0.1140 ca        1 O8B      0.063600
     14 C24         0.0360    0.3940   -0.9510 ca        1 O8B     -0.121000
     15 C28        -0.7980    0.8520    1.3220 ca        1 O8B     -0.157000
     16 C26         0.3990    0.5790    1.9130 ca        1 O8B     -0.057000
     17 C30         1.4910    0.1950    1.0910 ca        1 O8B     -0.135000
     18 N34         2.7940   -0.1390    1.3540 nc        1 O8B     -0.234400
     19 C31         1.2960    0.1030   -0.3680 ca        1 O8B     -0.087000
     20 N32         2.4950   -0.2830   -0.9110 nc        1 O8B     -0.241400
     21 N33         3.3250   -0.4060    0.1460 na        1 O8B      0.387000
     22 C35         4.7060   -0.8030   -0.0110 ca        1 O8B      0.008800
     23 C36         5.3900   -0.5140   -1.2080 ca        1 O8B     -0.104500
     24 C38         6.7180   -0.9040   -1.3490 ca        1 O8B     -0.129000
     25 C40         7.3880   -1.5720   -0.3180 ca        1 O8B     -0.065300
     26 C45         8.7970   -1.9920   -0.4860 c3        1 O8B     -0.057800
     27 C41         6.7010   -1.8500    0.8690 ca        1 O8B     -0.129000
     28 C43         5.3700   -1.4770    1.0320 ca        1 O8B     -0.104500
     29 H11        -4.7230    2.4770    1.1710 hc        1 O8B      0.050033
     30 H11A       -5.5720    1.8630    2.6500 hc        1 O8B      0.050033
     31 H11B       -3.8950    1.2920    2.2750 hc        1 O8B      0.050033
     32 H01        -5.9540   -0.6750    2.8210 ha        1 O8B      0.137000
     33 H03        -6.9110   -2.6000    1.5640 ha        1 O8B      0.137000
     34 H05        -6.9630   -2.5630   -0.9320 ha        1 O8B      0.138000
     35 H07        -6.0530   -0.6110   -2.1710 ha        1 O8B      0.142000
     36 H16        -4.6450    0.6730   -2.8560 h1        1 O8B      0.091700
     37 H16A       -4.1970    2.4420   -2.6200 h1        1 O8B      0.091700
     38 HN20       -2.9560    1.3430    0.1190 hn        1 O8B      0.331500
     39 H24        -0.0770    0.3140   -2.0450 ha        1 O8B      0.190000
     40 H28        -1.6500    1.1490    1.9570 ha        1 O8B      0.132000
     41 H26         0.5360    0.6500    3.0020 ha        1 O8B      0.149000
     42 H36         4.8910    0.0110   -2.0380 ha        1 O8B      0.160000
     43 H38         7.2480   -0.6780   -2.2870 ha        1 O8B      0.140500
     44 H45         9.3460   -1.2900   -1.1620 hc        1 O8B      0.048367
     45 H45A        9.3270   -2.0220    0.4970 hc        1 O8B      0.048367
     46 H45B        8.8370   -3.0160   -0.9380 hc        1 O8B      0.048367
     47 H41         7.2170   -2.3730    1.6880 ha        1 O8B      0.140500
     48 H43         4.8560   -1.7120    1.9780 ha        1 O8B      0.160000
@<TRIPOS>BOND
     1    1    2 1   
     2    1   29 1   
     3    1   30 1   
     4    1   31 1   
     5    2    3 ar  
     6    2    7 ar  
     7    3    4 ar  
     8    3   32 1   
     9    4    5 ar  
    10    4   33 1   
    11    5    6 ar  
    12    5   34 1   
    13    6    7 ar  
    14    6   35 1   
    15    7    8 1   
    16    8    9 1   
    17    9   10 1   
    18    9   36 1   
    19    9   37 1   
    20   10   11 2   
    21   10   12 1   
    22   12   13 1   
    23   12   38 1   
    24   13   14 ar  
    25   13   15 ar  
    26   14   19 ar  
    27   14   39 1   
    28   15   16 ar  
    29   15   40 1   
    30   16   17 ar  
    31   16   41 1   
    32   17   18 2   
    33   17   19 ar  
    34   18   21 1   
    35   19   20 2   
    36   20   21 1   
    37   21   22 1   
    38   22   23 ar  
    39   22   28 ar  
    40   23   24 ar  
    41   23   42 1   
    42   24   25 ar  
    43   24   43 1   
    44   25   26 1   
    45   25   27 ar  
    46   26   44 1   
    47   26   45 1   
    48   26   46 1   
    49   27   28 ar  
    50   27   47 1   
    51   28   48 1   
@<TRIPOS>SUBSTRUCTURE
     1 O8B         1 TEMP              0 ****  ****    0 ROOT
