@<TRIPOS>MOLECULE
O8B
   48    51     1     0     0
SMALL
bcc


@<TRIPOS>ATOM
      1 C11         0.5720   -0.4360   -1.5810 c3        1 O8B     -0.056800
      2 C10         1.9030   -0.3920   -0.9360 ca        1 O8B     -0.078300
      3 C01         2.0340   -0.6700    0.4310 ca        1 O8B     -0.123000
      4 C03         3.2830   -0.6550    1.0480 ca        1 O8B     -0.125000
      5 C05         4.4300   -0.3610    0.3090 ca        1 O8B     -0.127000
      6 C07         4.3280   -0.0740   -1.0490 ca        1 O8B     -0.129000
      7 C09         3.0680   -0.0930   -1.6630 ca        1 O8B      0.077100
      8 O15         3.0280    0.0860   -3.0450 os        1 O8B     -0.355900
      9 C16         2.6440    1.4020   -3.4510 c3        1 O8B      0.054400
     10 C19         1.5040    1.3340   -4.4740 c         1 O8B      0.645100
     11 O22         0.6350    2.2250   -4.4650 o         1 O8B     -0.589100
     12 N20         1.5490    0.3040   -5.3960 ns        1 O8B     -0.453100
     13 C23         0.6120    0.0310   -6.4080 ca        1 O8B      0.059600
     14 C24        -0.3780    0.9240   -6.7790 ca        1 O8B     -0.120000
     15 C28         0.7450   -1.2500   -7.0810 ca        1 O8B     -0.156000
     16 C26        -0.0800   -1.6340   -8.0960 ca        1 O8B     -0.057000
     17 C30        -1.1100   -0.7480   -8.5090 ca        1 O8B     -0.134000
     18 N34        -2.0850   -0.8220   -9.4690 nc        1 O8B     -0.234400
     19 C31        -1.2550    0.5530   -7.8300 ca        1 O8B     -0.088000
     20 N32        -2.3130    1.1990   -8.4180 nc        1 O8B     -0.242400
     21 N33        -2.7510    0.3430   -9.3650 na        1 O8B      0.387000
     22 C35        -3.8750    0.6600  -10.2180 ca        1 O8B      0.008800
     23 C36        -4.8850    1.5270   -9.7580 ca        1 O8B     -0.104500
     24 C38        -5.9600    1.8270  -10.5900 ca        1 O8B     -0.129000
     25 C40        -6.0560    1.2770  -11.8730 ca        1 O8B     -0.065300
     26 C45        -7.1980    1.6150  -12.7510 c3        1 O8B     -0.057800
     27 C41        -5.0490    0.4130  -12.3170 ca        1 O8B     -0.129000
     28 C43        -3.9610    0.1020  -11.5080 ca        1 O8B     -0.104500
     29 H11        -0.2420   -0.2590   -0.8360 hc        1 O8B      0.052033
     30 H11A        0.4100   -1.4400   -2.0490 hc        1 O8B      0.052033
     31 H11B        0.4920    0.3390   -2.3850 hc        1 O8B      0.052033
     32 H01         1.1340   -0.9040    1.0200 ha        1 O8B      0.138000
     33 H03         3.3650   -0.8770    2.1220 ha        1 O8B      0.136000
     34 H05         5.4150   -0.3530    0.7990 ha        1 O8B      0.137000
     35 H07         5.2210    0.1550   -1.6480 ha        1 O8B      0.145000
     36 H16         3.5430    1.8630   -3.9420 h1        1 O8B      0.081700
     37 H16A        2.3050    2.0340   -2.5900 h1        1 O8B      0.081700
     38 HN20        2.2360   -0.4030   -5.2350 hn        1 O8B      0.332500
     39 H24        -0.5120    1.9030   -6.2890 ha        1 O8B      0.188000
     40 H28         1.5450   -1.9350   -6.7570 ha        1 O8B      0.135000
     41 H26         0.0340   -2.6070   -8.5960 ha        1 O8B      0.150000
     42 H36        -4.8390    1.9760   -8.7530 ha        1 O8B      0.160000
     43 H38        -6.7460    2.5070  -10.2280 ha        1 O8B      0.140500
     44 H45        -8.1170    1.8230  -12.1500 hc        1 O8B      0.048367
     45 H45A       -6.9580    2.5290  -13.3520 hc        1 O8B      0.048367
     46 H45B       -7.4200    0.7790  -13.4600 hc        1 O8B      0.048367
     47 H41        -5.1140   -0.0290  -13.3240 ha        1 O8B      0.140500
     48 H43        -3.1830   -0.5800  -11.8880 ha        1 O8B      0.160000
@<TRIPOS>BOND
     1    1    2 1   
     2    1   29 1   
     3    1   30 1   
     4    1   31 1   
     5    2    3 ar  
     6    2    7 ar  
     7    3    4 ar  
     8    3   32 1   
     9    4    5 ar  
    10    4   33 1   
    11    5    6 ar  
    12    5   34 1   
    13    6    7 ar  
    14    6   35 1   
    15    7    8 1   
    16    8    9 1   
    17    9   10 1   
    18    9   36 1   
    19    9   37 1   
    20   10   11 2   
    21   10   12 1   
    22   12   13 1   
    23   12   38 1   
    24   13   14 ar  
    25   13   15 ar  
    26   14   19 ar  
    27   14   39 1   
    28   15   16 ar  
    29   15   40 1   
    30   16   17 ar  
    31   16   41 1   
    32   17   18 2   
    33   17   19 ar  
    34   18   21 1   
    35   19   20 2   
    36   20   21 1   
    37   21   22 1   
    38   22   23 ar  
    39   22   28 ar  
    40   23   24 ar  
    41   23   42 1   
    42   24   25 ar  
    43   24   43 1   
    44   25   26 1   
    45   25   27 ar  
    46   26   44 1   
    47   26   45 1   
    48   26   46 1   
    49   27   28 ar  
    50   27   47 1   
    51   28   48 1   
@<TRIPOS>SUBSTRUCTURE
     1 O8B         1 TEMP              0 ****  ****    0 ROOT
