@<TRIPOS>MOLECULE
O8B
   48    42     1     0     0
SMALL
bcc


@<TRIPOS>ATOM
      1 C11         5.2030   -3.2920    3.4260 c3        1 O8B     -0.182000
      2 C10         4.9130   -2.4020    4.6140 c2        1 O8B     -0.071000
      3 C01         5.7540   -2.4230    5.7170 c2        1 O8B     -0.123000
      4 C03         5.4490   -1.6630    6.8350 c1        1 O8B     -0.125000
      5 C05         4.3050   -0.8810    6.8520 c1        1 O8B     -0.122000
      6 C07         3.4640   -0.8590    5.7500 c1        1 O8B     -0.122000
      7 C09         3.7680   -1.6200    4.6310 c1        1 O8B      0.031000
      8 O15         2.8830   -1.6480    3.5390 os        1 O8B     -0.238000
      9 C16         2.6360   -0.3820    2.9710 c3        1 O8B     -0.046000
     10 C19         1.9240   -0.5540    1.6460 c2        1 O8B      0.293000
     11 O22         1.8130   -1.6590    1.1540 o         1 O8B     -0.353000
     12 N20         1.3800    0.5780    0.9800 n         1 O8B     -0.309000
     13 C23         0.7060    0.4160   -0.2620 c2        1 O8B      0.085000
     14 C24        -0.5500    0.9980   -0.3350 c2        1 O8B     -0.156000
     15 C28         1.2400   -0.2240   -1.3700 c1        1 O8B     -0.136000
     16 C26         0.5170   -0.2820   -2.5520 c1        1 O8B     -0.063000
     17 C30        -0.7590    0.3090   -2.6270 c1        1 O8B     -0.128000
     18 N34        -1.6650    0.3910   -3.6340 n1        1 O8B     -0.063000
     19 C31        -1.2840    0.9390   -1.5350 c1        1 O8B     -0.087000
     20 N32        -2.5130    1.4080   -1.8740 n1        1 O8B     -0.063000
     21 N33        -2.7500    1.0710   -3.1700 n3        1 O8B     -0.016000
     22 C35        -3.8780    1.3710   -3.8380 c1        1 O8B      0.055000
     23 C36        -3.9430    2.5230   -4.6050 c1        1 O8B     -0.122000
     24 C38        -5.0940    2.8150   -5.3230 c1        1 O8B     -0.122000
     25 C40        -6.1790    1.9530   -5.2730 c1        1 O8B     -0.058000
     26 C45        -7.4110    2.2400   -6.1030 c3        1 O8B     -0.183000
     27 C41        -6.1130    0.7990   -4.5060 c1        1 O8B     -0.129000
     28 C43        -4.9630    0.5080   -3.7890 c1        1 O8B     -0.105000
     29 H11         5.3720   -2.7370    2.6360 hc        1 O8B      0.091333
     30 H11A        5.9930   -3.8420    3.6150 hc        1 O8B      0.091333
     31 H11B        4.4320   -3.8740    3.2580 hc        1 O8B      0.091333
     32 H01         6.5590   -2.9740    5.7050 ha        1 O8B      0.138000
     33 H03         6.0410   -1.6780    7.6110 ha        1 O8B      0.136000
     34 H05         4.0910   -0.3460    7.6380 ha        1 O8B      0.145500
     35 H07         2.6580   -0.3090    5.7610 ha        1 O8B      0.145500
     36 H16         3.4850    0.0820    2.8280 h1        1 O8B      0.121500
     37 H16A        2.0740    0.1430    3.5770 h1        1 O8B      0.121500
     38 HN20        1.4680    1.4080    1.3460 hn        1 O8B      0.246000
     39 H24        -0.9140    1.4700    0.4370 ha        1 O8B      0.150000
     40 H28         2.1410   -0.5970   -1.3310 ha        1 O8B      0.174000
     41 H26         0.8920   -0.7320   -3.3320 ha        1 O8B      0.153000
     42 H36        -3.1800    3.1300   -4.6400 ha        1 O8B      0.145500
     43 H38        -5.1400    3.6280   -5.8630 ha        1 O8B      0.145500
     44 H45        -8.1580    1.6950   -5.7770 hc        1 O8B      0.087667
     45 H45A       -7.2320    2.0220   -7.0400 hc        1 O8B      0.087667
     46 H45B       -7.6420    3.1880   -6.0260 hc        1 O8B      0.087667
     47 H41        -6.8760    0.1930   -4.4720 ha        1 O8B      0.140000
     48 H43        -4.9170   -0.3030   -3.2490 ha        1 O8B      0.160000
@<TRIPOS>BOND
     1    1    2 1   
     2    1   29 1   
     3    1   30 1   
     4    1   31 1   
     5    2    3 1   
     6    2    7 1   
     7    3    4 1   
     8    3   32 1   
     9    4   33 1   
    10    5    6 1   
    11    5   34 1   
    12    6   35 1   
    13    7    8 1   
    14    8    9 1   
    15    9   10 1   
    16    9   36 1   
    17    9   37 1   
    18   10   11 1   
    19   10   12 1   
    20   12   13 1   
    21   12   38 1   
    22   13   14 1   
    23   13   15 1   
    24   14   19 1   
    25   14   39 1   
    26   15   40 1   
    27   16   17 1   
    28   16   41 1   
    29   18   21 1   
    30   20   21 1   
    31   21   22 1   
    32   22   28 1   
    33   23   24 1   
    34   23   42 1   
    35   24   43 1   
    36   25   26 1   
    37   25   27 1   
    38   26   44 1   
    39   26   45 1   
    40   26   46 1   
    41   27   47 1   
    42   28   48 1   
@<TRIPOS>SUBSTRUCTURE
     1 O8B         1 TEMP              0 ****  ****    0 ROOT
