@<TRIPOS>MOLECULE
O8B
   48    51     1     0     0
SMALL
bcc


@<TRIPOS>ATOM
      1 C11         2.9970   -2.2480   -3.1070 c3        1 O8B     -0.057800
      2 C10         2.5780   -1.3080   -2.0430 ca        1 O8B     -0.092300
      3 C01         1.8470   -1.7780   -0.9450 ca        1 O8B     -0.111000
      4 C03         1.4510   -0.9160    0.0750 ca        1 O8B     -0.137000
      5 C05         1.7920    0.4360    0.0190 ca        1 O8B     -0.107000
      6 C07         2.5250    0.9300   -1.0570 ca        1 O8B     -0.162000
      7 C09         2.9050    0.0620   -2.0880 ca        1 O8B      0.089100
      8 O15         3.7120    0.4720   -3.1460 os        1 O8B     -0.336900
      9 C16         3.3740    1.7080   -3.7580 c3        1 O8B      0.056400
     10 C19         2.1750    1.6600   -4.7090 c         1 O8B      0.634100
     11 O22         1.7220    2.7390   -5.1360 o         1 O8B     -0.589100
     12 N20         1.6830    0.4210   -5.0680 n         1 O8B     -0.458100
     13 C23         0.6000    0.1470   -5.9220 ca        1 O8B      0.063600
     14 C24        -0.0970    1.1320   -6.6010 ca        1 O8B     -0.121000
     15 C28         0.2400   -1.2520   -6.0750 ca        1 O8B     -0.157000
     16 C26        -0.7820   -1.6650   -6.8770 ca        1 O8B     -0.057000
     17 C30        -1.5240   -0.6870   -7.5910 ca        1 O8B     -0.135000
     18 N34        -2.5820   -0.7590   -8.4600 nc        1 O8B     -0.234400
     19 C31        -1.1670    0.7360   -7.4440 ca        1 O8B     -0.087000
     20 N32        -2.0310    1.4520   -8.2330 nc        1 O8B     -0.241400
     21 N33        -2.8290    0.5200   -8.7970 na        1 O8B      0.387000
     22 C35        -3.8890    0.8790   -9.7130 ca        1 O8B      0.008800
     23 C36        -3.7820    2.0480  -10.4900 ca        1 O8B     -0.104500
     24 C38        -4.8100    2.3840  -11.3660 ca        1 O8B     -0.129000
     25 C40        -5.9450    1.5750  -11.4900 ca        1 O8B     -0.065300
     26 C45        -7.0370    1.9520  -12.4160 c3        1 O8B     -0.057800
     27 C41        -6.0390    0.4140  -10.7160 ca        1 O8B     -0.129000
     28 C43        -5.0280    0.0590   -9.8290 ca        1 O8B     -0.104500
     29 H11         3.7690   -1.7910   -3.7740 hc        1 O8B      0.050033
     30 H11A        2.1140   -2.5430   -3.7290 hc        1 O8B      0.050033
     31 H11B        3.4280   -3.1770   -2.6570 hc        1 O8B      0.050033
     32 H01         1.5860   -2.8460   -0.8940 ha        1 O8B      0.137000
     33 H03         0.8720   -1.3020    0.9260 ha        1 O8B      0.137000
     34 H05         1.4860    1.1160    0.8290 ha        1 O8B      0.138000
     35 H07         2.8040    1.9930   -1.0870 ha        1 O8B      0.142000
     36 H16         3.1860    2.5150   -3.0050 h1        1 O8B      0.091700
     37 H16A        4.2890    1.9550   -4.3670 h1        1 O8B      0.091700
     38 HN20        2.1090   -0.3730   -4.6350 hn        1 O8B      0.331500
     39 H24         0.1430    2.2040   -6.5110 ha        1 O8B      0.190000
     40 H28         0.8180   -2.0080   -5.5170 ha        1 O8B      0.132000
     41 H26        -1.0420   -2.7290   -6.9820 ha        1 O8B      0.149000
     42 H36        -2.9010    2.7050  -10.4160 ha        1 O8B      0.160000
     43 H38        -4.7240    3.3000  -11.9710 ha        1 O8B      0.140500
     44 H45        -6.6400    2.5180  -13.2950 hc        1 O8B      0.048367
     45 H45A       -7.7780    2.6020  -11.8860 hc        1 O8B      0.048367
     46 H45B       -7.5740    1.0460  -12.7930 hc        1 O8B      0.048367
     47 H41        -6.9260   -0.2320  -10.8060 ha        1 O8B      0.140500
     48 H43        -5.1330   -0.8600   -9.2310 ha        1 O8B      0.160000
@<TRIPOS>BOND
     1    1    2 1   
     2    1   29 1   
     3    1   30 1   
     4    1   31 1   
     5    2    3 ar  
     6    2    7 ar  
     7    3    4 ar  
     8    3   32 1   
     9    4    5 ar  
    10    4   33 1   
    11    5    6 ar  
    12    5   34 1   
    13    6    7 ar  
    14    6   35 1   
    15    7    8 1   
    16    8    9 1   
    17    9   10 1   
    18    9   36 1   
    19    9   37 1   
    20   10   11 2   
    21   10   12 1   
    22   12   13 1   
    23   12   38 1   
    24   13   14 ar  
    25   13   15 ar  
    26   14   19 ar  
    27   14   39 1   
    28   15   16 ar  
    29   15   40 1   
    30   16   17 ar  
    31   16   41 1   
    32   17   18 2   
    33   17   19 ar  
    34   18   21 1   
    35   19   20 2   
    36   20   21 1   
    37   21   22 1   
    38   22   23 ar  
    39   22   28 ar  
    40   23   24 ar  
    41   23   42 1   
    42   24   25 ar  
    43   24   43 1   
    44   25   26 1   
    45   25   27 ar  
    46   26   44 1   
    47   26   45 1   
    48   26   46 1   
    49   27   28 ar  
    50   27   47 1   
    51   28   48 1   
@<TRIPOS>SUBSTRUCTURE
     1 O8B         1 TEMP              0 ****  ****    0 ROOT
