@<TRIPOS>MOLECULE
O8B
   49    52     1     0     0
SMALL
bcc


@<TRIPOS>ATOM
      1 C11        -0.4570    0.7320   -1.0980 c3        1 O8B     -0.058800
      2 C10         1.0090    0.5900   -0.9640 ca        1 O8B     -0.051300
      3 C01         1.6700    1.0490    0.1840 ca        1 O8B     -0.103000
      4 C03         3.0510    0.9260    0.3160 ca        1 O8B     -0.112000
      5 C05         3.8070    0.3390   -0.7010 ca        1 O8B     -0.098000
      6 C07         3.1810   -0.1210   -1.8570 ca        1 O8B     -0.185000
      7 C09         1.7930    0.0150   -1.9780 ca        1 O8B      0.040100
      8 O15         1.1210   -0.3560   -3.1510 os        1 O8B     -0.341900
      9 C16         1.5620   -1.5570   -3.7500 c3        1 O8B      0.071400
     10 C19         2.5260   -1.2760   -4.8920 c         1 O8B      0.516100
     11 O22         3.4100   -2.0060   -5.3060 o         1 O8B     -0.407100
     12 N20         2.3570    0.0510   -5.6060 n4        1 O8B     -0.540200
     13 C23         1.4110   -0.0560   -6.7230 ca        1 O8B     -0.065400
     14 C24         0.1580    0.5240   -6.6150 ca        1 O8B     -0.009000
     15 C28         1.8510   -0.7540   -7.8990 ca        1 O8B     -0.150000
     16 C26         1.0390   -0.8750   -8.9950 ca        1 O8B     -0.019000
     17 C30        -0.2540   -0.2950   -8.9470 ca        1 O8B     -0.099000
     18 N34        -1.2910   -0.2330   -9.8470 nc        1 O8B     -0.214400
     19 C31        -0.6960    0.4110   -7.7320 ca        1 O8B     -0.143000
     20 N32        -1.9790    0.8650   -7.9710 nc        1 O8B     -0.207400
     21 N33        -2.2560    0.4550   -9.2120 na        1 O8B      0.453000
     22 C35        -3.5340    0.7390   -9.8480 ca        1 O8B     -0.039200
     23 C36        -4.6970    0.8420   -9.0620 ca        1 O8B     -0.086000
     24 C38        -5.9120    1.1130   -9.6840 ca        1 O8B     -0.129000
     25 C40        -5.9920    1.2820  -11.0720 ca        1 O8B     -0.030300
     26 C45        -7.2880    1.5830  -11.7190 c3        1 O8B     -0.069800
     27 C41        -4.8250    1.1730  -11.8390 ca        1 O8B     -0.129000
     28 C43        -3.5960    0.9050  -11.2440 ca        1 O8B     -0.086000
     29 H11        -0.9560    0.6410   -0.1010 hc        1 O8B      0.058367
     30 H11A       -0.7070    1.7360   -1.5240 hc        1 O8B      0.058367
     31 H11B       -0.8740   -0.0510   -1.7790 hc        1 O8B      0.058367
     32 H01         1.0780    1.5060    0.9940 ha        1 O8B      0.157000
     33 H03         3.5490    1.2880    1.2290 ha        1 O8B      0.157000
     34 H05         4.8980    0.2350   -0.5900 ha        1 O8B      0.153000
     35 H07         3.7700   -0.5980   -2.6520 ha        1 O8B      0.120000
     36 H16         0.6380   -2.0370   -4.1850 h1        1 O8B      0.131200
     37 H16A        2.0680   -2.2540   -3.0270 h1        1 O8B      0.131200
     38 HN20        3.2630    0.3600   -5.9800 hn        1 O8B      0.469800
     39 H24        -0.1880    1.0580   -5.7140 ha        1 O8B      0.173000
     40 H28         2.8580   -1.2050   -7.9140 ha        1 O8B      0.161000
     41 H26         1.3710   -1.4080   -9.9020 ha        1 O8B      0.182000
     42 H36        -4.6690    0.7120   -7.9690 ha        1 O8B      0.161000
     43 H38        -6.8240    1.1940   -9.0710 ha        1 O8B      0.154500
     44 H45        -7.3290    1.1590  -12.7530 hc        1 O8B      0.060367
     45 H45A       -7.4260    2.6930  -11.7900 hc        1 O8B      0.060367
     46 H45B       -8.1390    1.1620  -11.1290 hc        1 O8B      0.060367
     47 H41        -4.8770    1.3020  -12.9330 ha        1 O8B      0.154500
     48 H43        -2.6960    0.8280  -11.8750 ha        1 O8B      0.161000
     49 H202        2.0100    0.7430   -4.9240 hn        1 O8B      0.469800
@<TRIPOS>BOND
     1    1    2 1   
     2    1   29 1   
     3    1   30 1   
     4    1   31 1   
     5    2    3 ar  
     6    2    7 ar  
     7    3    4 ar  
     8    3   32 1   
     9    4    5 ar  
    10    4   33 1   
    11    5    6 ar  
    12    5   34 1   
    13    6    7 ar  
    14    6   35 1   
    15    7    8 1   
    16    8    9 1   
    17    9   10 1   
    18    9   36 1   
    19    9   37 1   
    20   10   11 2   
    21   10   12 1   
    22   12   13 1   
    23   12   38 1   
    24   12   49 1   
    25   13   14 ar  
    26   13   15 ar  
    27   14   19 ar  
    28   14   39 1   
    29   15   16 ar  
    30   15   40 1   
    31   16   17 ar  
    32   16   41 1   
    33   17   18 2   
    34   17   19 ar  
    35   18   21 1   
    36   19   20 2   
    37   20   21 1   
    38   21   22 1   
    39   22   23 ar  
    40   22   28 ar  
    41   23   24 ar  
    42   23   42 1   
    43   24   25 ar  
    44   24   43 1   
    45   25   26 1   
    46   25   27 ar  
    47   26   44 1   
    48   26   45 1   
    49   26   46 1   
    50   27   28 ar  
    51   27   47 1   
    52   28   48 1   
@<TRIPOS>SUBSTRUCTURE
     1 O8B         1 TEMP              0 ****  ****    0 ROOT
