@<TRIPOS>MOLECULE
O8G
   36    35     1     0     0
SMALL
bcc


@<TRIPOS>ATOM
      1 C1          0.7070    0.4910   -1.3350 c3        1 O8G     -0.181000
      2 C4          2.1460    0.7460   -1.2670 c3        1 O8G     -0.033500
      3 N7          2.6520    0.8260    0.1710 n         1 O8G     -0.317000
      4 C8          2.2130   -0.2460    1.0100 c3        1 O8G     -0.033500
      5 C11         0.7980   -0.5180    0.9230 c3        1 O8G     -0.181000
      6 C14         0.2870   -0.6280   -0.5080 c3        1 O8G     -0.035000
      7 C16         3.8070    1.7700    0.5260 c2        1 O8G      0.279000
      8 O17         4.1350    2.4780   -0.2470 o         1 O8G     -0.368000
      9 C18         4.5430    1.6900    1.8080 c3        1 O8G     -0.086000
     10 N21        -2.2200   -1.3610   -0.6790 n2        1 O8G     -0.162000
     11 C22        -1.3010   -0.5020   -0.3700 c2        1 O8G      0.021000
     12 O23        -1.9760    0.7350    0.0370 os        1 O8G     -0.086000
     13 N24        -3.2870    0.5620   -0.0400 n2        1 O8G     -0.027000
     14 C25        -3.5350   -0.6700   -0.4600 c2        1 O8G     -0.009000
     15 C26        -4.7360   -1.1740   -0.7120 c2        1 O8G     -0.356000
     16 C27        -5.5440   -0.8940   -1.8910 c1        1 O8G     -0.108000
     17 C29        -6.8420   -1.8840   -1.8840 c1        1 O8G     -0.165000
     18 C31        -6.7750   -2.6760   -0.7720 c1        1 O8G     -0.450000
     19 S33        -5.4330   -2.2870    0.0580 ss        1 O8G      0.659000
     20 N34         5.6100    2.3020    1.7950 n2        1 O8G     -0.286000
     21 N36         6.5050    2.2500    2.9770 n2        1 O8G      0.232000
     22 N37         7.3490    2.2020    4.0910 n1        1 O8G     -0.018000
     23 H1          0.3500    1.0700   -1.1420 hc        1 O8G      0.107250
     24 H1A         0.4760    0.2590   -2.3090 hc        1 O8G      0.107250
     25 H4          2.4780    0.3170   -1.5900 h1        1 O8G      0.104000
     26 H4A         2.3190    1.8280   -1.7570 h1        1 O8G      0.104000
     27 H8          2.7380   -1.0310    0.8610 h1        1 O8G      0.104000
     28 H8A         2.3610    0.0570    1.9170 h1        1 O8G      0.104000
     29 H11         0.6540   -1.4340    1.3800 hc        1 O8G      0.107250
     30 H11A        0.3640    0.0640    1.3380 hc        1 O8G      0.107250
     31 H14         0.5460   -1.4740   -0.8810 hc        1 O8G      0.124000
     32 H18         4.0010    2.0440    2.5160 h1        1 O8G      0.120000
     33 H18A        4.8130    0.4680    2.1060 h1        1 O8G      0.120000
     34 H27        -5.3190   -0.1520   -2.6270 DU        1 O8G      0.167333
     35 H29        -7.5090   -1.8990   -2.5180 DU        1 O8G      0.167333
     36 H31        -7.3750   -3.3300   -0.5220 DU        1 O8G      0.167333
@<TRIPOS>BOND
     1    1    2 1   
     2    1    6 1   
     3    1   23 1   
     4    1   24 1   
     5    2    3 1   
     6    2   25 1   
     7    2   26 1   
     8    3    4 1   
     9    3    7 1   
    10    4    5 1   
    11    4   27 1   
    12    4   28 1   
    13    5    6 1   
    14    5   29 1   
    15    5   30 1   
    16    6   11 1   
    17    6   31 1   
    18    7    8 1   
    19    7    9 1   
    20    9   20 1   
    21    9   32 1   
    22    9   33 1   
    23   10   11 1   
    24   10   14 1   
    25   11   12 1   
    26   12   13 1   
    27   13   14 1   
    28   14   15 1   
    29   15   16 1   
    30   15   19 1   
    31   16   17 1   
    32   17   18 1   
    33   18   19 1   
    34   20   21 1   
    35   21   22 1   
@<TRIPOS>SUBSTRUCTURE
     1 O8G         1 TEMP              0 ****  ****    0 ROOT
