@<TRIPOS>MOLECULE
O8G
   36    40     1     0     0
SMALL
bcc


@<TRIPOS>ATOM
      1 C1          0.0000    0.0000    0.0000 c3        1 O8G     -0.146000
      2 C4          1.5320    0.0000    0.0000 c3        1 O8G     -0.068500
      3 N7          2.0050    0.0000    1.3910 n         1 O8G     -0.008000
      4 C8          1.5080   -1.0380    2.3050 c3        1 O8G     -0.068500
      5 C11        -0.0230   -1.0270    2.2800 c3        1 O8G     -0.146000
      6 C14        -0.5060   -1.1790    0.8350 c3        1 O8G      0.028000
      7 C16         2.8770    0.9330    1.8210 c2        1 O8G      0.241000
      8 O17         3.2790    1.7840    1.0570 o         1 O8G     -0.429000
      9 C18         3.3520    0.9180    3.2510 c3        1 O8G     -0.377000
     10 N21        -2.7670   -2.1760    0.3630 n2        1 O8G     -0.099000
     11 C22        -2.0130   -1.2020    0.8090 c2        1 O8G     -0.086000
     12 O23        -2.8290   -0.2340    1.2370 os        1 O8G      0.048000
     13 N24        -3.9850   -0.5630    1.0780 n2        1 O8G      0.002000
     14 C25        -4.0410   -1.7570    0.5390 c2        1 O8G     -0.069000
     15 C26        -5.2670   -2.5050    0.1910 c2        1 O8G     -0.147000
     16 C27        -6.5280   -2.0620    0.3720 c2        1 O8G     -0.120000
     17 C29        -7.5110   -2.9400   -0.0310 c2        1 O8G     -0.140000
     18 C31        -7.0660   -4.0940   -0.5400 c2        1 O8G     -0.265000
     19 S33        -5.3080   -4.1080   -0.5320 ss        1 O8G      0.293000
     20 N34         4.2870    2.0260    3.4660 n7        1 O8G     -0.361000
     21 N36         4.0560    2.8160    4.2320 n7        1 O8G      0.779000
     22 N37         3.8070    3.6080    4.9890 n1        1 O8G     -0.383000
     23 H1         -0.4970    0.6060    0.7480 hc        1 O8G      0.076500
     24 H1A        -0.2250    0.2500   -1.0300 hc        1 O8G      0.076500
     25 H4          1.6460    0.9380   -0.5300 h1        1 O8G      0.083750
     26 H4A         1.9230   -0.7610   -0.6640 h1        1 O8G      0.083750
     27 H8          1.7770   -1.9030    1.7110 h1        1 O8G      0.083750
     28 H8A         2.0780   -0.7470    3.1800 h1        1 O8G      0.083750
     29 H11        -0.4040   -0.1380    2.7670 hc        1 O8G      0.076500
     30 H11A       -0.4510   -1.7140    3.0000 hc        1 O8G      0.076500
     31 H14        -0.1190   -2.1030    0.4230 hc        1 O8G      0.091000
     32 H18         3.7760    1.8390    3.6330 DU        1 O8G      0.286000
     33 H18A        4.0780    0.1360    3.4350 h1        1 O8G      0.089000
     34 H27        -7.0130   -1.6750    1.2590 ha        1 O8G      0.143000
     35 H29        -8.5700   -2.7400    0.0830 ha        1 O8G      0.123000
     36 H31        -7.5410   -4.9530   -0.9990 h4        1 O8G      0.151000
@<TRIPOS>BOND
     1    1    2 1   
     2    1    6 1   
     3    1   23 1   
     4    1   24 1   
     5    2    3 1   
     6    2   25 1   
     7    2   26 1   
     8    3    4 1   
     9    3    7 1   
    10    4    5 1   
    11    4   27 1   
    12    4   28 1   
    13    5    6 1   
    14    5   29 1   
    15    5   30 1   
    16    6   11 1   
    17    6   31 1   
    18    7    8 1   
    19    7    9 1   
    20    9   20 1   
    21    9   32 1   
    22    9   33 1   
    23   10   11 1   
    24   10   14 1   
    25   11   12 1   
    26   12   13 1   
    27   13   14 1   
    28   14   15 1   
    29   15   16 1   
    30   15   19 1   
    31   16   17 1   
    32   16   34 1   
    33   17   18 1   
    34   17   35 1   
    35   18   19 1   
    36   18   36 1   
    37   20   21 1   
    38   20   32 1   
    39   21   22 1   
    40   21   32 1   
@<TRIPOS>SUBSTRUCTURE
     1 O8G         1 TEMP              0 ****  ****    0 ROOT
