@<TRIPOS>MOLECULE
O8G
   36    38     1     0     0
SMALL
bcc


@<TRIPOS>ATOM
      1 C1          0.0520   -0.0810    0.0270 c3        1 O8G     -0.105400
      2 C4          1.5730    0.0610    0.0930 c3        1 O8G      0.084000
      3 N7          2.1190   -0.0360    1.4340 n         1 O8G     -0.459800
      4 C8          1.6600   -1.1830    2.1820 c3        1 O8G      0.084000
      5 C11         0.1390   -1.3630    2.1770 c3        1 O8G     -0.105400
      6 C14        -0.3960   -1.3470    0.7500 c3        1 O8G     -0.090000
      7 C16         2.6610    1.0940    2.0380 c         1 O8G      0.635100
      8 O17         2.7670    2.1600    1.3990 o         1 O8G     -0.606100
      9 C18         3.1760    0.9890    3.4780 c3        1 O8G      0.101800
     10 N21        -2.7340   -2.2760    0.1820 nc        1 O8G     -0.688000
     11 C22        -1.8790   -1.4360    0.7550 cd        1 O8G      0.507700
     12 O23        -2.5990   -0.4520    1.5000 os        1 O8G     -0.143100
     13 N24        -3.8850   -0.6900    1.3830 nd        1 O8G     -0.363300
     14 C25        -4.0190   -1.7900    0.5900 cc        1 O8G      0.625500
     15 C26        -5.2500   -2.4150    0.1870 cc        1 O8G     -0.193600
     16 C27        -6.5220   -1.9900    0.5520 cd        1 O8G     -0.108000
     17 C29        -7.5270   -2.8250   -0.0140 cd        1 O8G     -0.165000
     18 C31        -6.9740   -3.8370   -0.7760 cc        1 O8G     -0.181100
     19 S33        -5.3180   -3.7720   -0.8000 ss        1 O8G      0.120200
     20 N34         4.1730    1.9470    3.8890 n2        1 O8G     -0.444200
     21 N36         4.0210    3.1870    3.7290 n1        1 O8G      0.232000
     22 N37         4.0820    4.3160    3.6620 n1        1 O8G     -0.018000
     23 H1         -0.4430    0.8120    0.4900 hc        1 O8G      0.067700
     24 H1A        -0.2540   -0.1270   -1.0490 hc        1 O8G      0.067700
     25 H4          2.0430   -0.7630   -0.5170 h1        1 O8G      0.064450
     26 H4A         1.8670    1.0500   -0.3610 h1        1 O8G      0.064450
     27 H8          2.1300   -2.0970    1.7140 h1        1 O8G      0.064450
     28 H8A         2.0030   -1.1300    3.2510 h1        1 O8G      0.064450
     29 H11        -0.1040   -2.3410    2.6660 hc        1 O8G      0.067700
     30 H11A       -0.3530   -0.5490    2.7710 hc        1 O8G      0.067700
     31 H14         0.0100   -2.2440    0.1980 hc        1 O8G      0.088700
     32 H18         2.2680    1.0100    4.1510 h1        1 O8G      0.081200
     33 H18A        3.7210    0.0120    3.6290 h1        1 O8G      0.081200
     34 H27        -6.7350   -1.1280    1.1890 ha        1 O8G      0.169000
     35 H29        -8.5960   -2.6690    0.1460 ha        1 O8G      0.158000
     36 H31        -7.5440   -4.5990   -1.3080 h4        1 O8G      0.175000
@<TRIPOS>BOND
     1    1    2 1   
     2    1    6 1   
     3    1   23 1   
     4    1   24 1   
     5    2    3 1   
     6    2   25 1   
     7    2   26 1   
     8    3    4 1   
     9    3    7 1   
    10    4    5 1   
    11    4   27 1   
    12    4   28 1   
    13    5    6 1   
    14    5   29 1   
    15    5   30 1   
    16    6   11 1   
    17    6   31 1   
    18    7    8 2   
    19    7    9 1   
    20    9   20 1   
    21    9   32 1   
    22    9   33 1   
    23   10   11 2   
    24   10   14 1   
    25   11   12 1   
    26   12   13 1   
    27   13   14 2   
    28   14   15 1   
    29   15   16 2   
    30   15   19 1   
    31   16   17 1   
    32   16   34 1   
    33   17   18 2   
    34   17   35 1   
    35   18   19 1   
    36   18   36 1   
    37   20   21 1   
    38   21   22 3   
@<TRIPOS>SUBSTRUCTURE
     1 O8G         1 TEMP              0 ****  ****    0 ROOT
