@<TRIPOS>MOLECULE
O8G
   36    38     1     0     0
SMALL
bcc


@<TRIPOS>ATOM
      1 C1         -0.9160   -1.0510    1.0920 c3        1 O8G     -0.105400
      2 C4         -2.2910   -1.6940    0.9090 c3        1 O8G      0.083500
      3 N7         -3.0860   -1.0970   -0.1470 n         1 O8G     -0.459800
      4 C8         -2.3940   -0.9550   -1.4060 c3        1 O8G      0.083500
      5 C11        -1.0190   -0.2900   -1.2910 c3        1 O8G     -0.105400
      6 C14        -0.1730   -0.9940   -0.2380 c3        1 O8G     -0.090000
      7 C16        -4.2200   -0.3600    0.1810 c         1 O8G      0.635100
      8 O17        -4.6070   -0.2920    1.3650 o         1 O8G     -0.606100
      9 C18        -5.0140    0.3170   -0.9430 c3        1 O8G      0.101800
     10 N21         2.3890   -0.6990   -0.1570 nc        1 O8G     -0.688000
     11 C22         1.1270   -0.2930   -0.0690 cd        1 O8G      0.507700
     12 O23         1.0910    1.0960    0.2600 os        1 O8G     -0.143100
     13 N24         2.3240    1.5360    0.3710 nd        1 O8G     -0.363300
     14 C25         3.1500    0.4800    0.1270 cc        1 O8G      0.625500
     15 C26         4.5880    0.4930    0.1400 cc        1 O8G     -0.193600
     16 C27         5.3780    1.6050    0.4070 cd        1 O8G     -0.108000
     17 C29         6.7630    1.2820    0.3410 cd        1 O8G     -0.165000
     18 C31         6.9580   -0.0510    0.0300 cc        1 O8G     -0.181100
     19 S33         5.5270   -0.8640   -0.1710 ss        1 O8G      0.120200
     20 N34        -6.4040    0.6020   -0.6830 n2        1 O8G     -0.444200
     21 N36        -6.7830    1.2200    0.3480 n1        1 O8G      0.232000
     22 N37        -7.3190    1.7360    1.2020 n1        1 O8G     -0.018000
     23 H1         -1.0220   -0.0160    1.5090 hc        1 O8G      0.067700
     24 H1A        -0.3340   -1.6610    1.8300 hc        1 O8G      0.067700
     25 H4         -2.1520   -2.7830    0.6450 h1        1 O8G      0.064450
     26 H4A        -2.8540   -1.6350    1.8830 h1        1 O8G      0.064450
     27 H8         -2.2550   -1.9930   -1.8310 h1        1 O8G      0.064450
     28 H8A        -3.0090   -0.3640   -2.1400 h1        1 O8G      0.064450
     29 H11        -0.5130   -0.3450   -2.2890 hc        1 O8G      0.067700
     30 H11A       -1.1300    0.7930   -1.0200 hc        1 O8G      0.067700
     31 H14         0.0370   -2.0480   -0.5830 hc        1 O8G      0.088700
     32 H18        -4.4400    1.2460   -1.2330 h1        1 O8G      0.081200
     33 H18A       -5.0840   -0.3660   -1.8390 h1        1 O8G      0.081200
     34 H27         4.9970    2.6030    0.6390 ha        1 O8G      0.169000
     35 H29         7.5580    2.0100    0.5180 ha        1 O8G      0.158000
     36 H31         7.9310   -0.5300   -0.0750 h4        1 O8G      0.175000
@<TRIPOS>BOND
     1    1    2 1   
     2    1    6 1   
     3    1   23 1   
     4    1   24 1   
     5    2    3 1   
     6    2   25 1   
     7    2   26 1   
     8    3    4 1   
     9    3    7 1   
    10    4    5 1   
    11    4   27 1   
    12    4   28 1   
    13    5    6 1   
    14    5   29 1   
    15    5   30 1   
    16    6   11 1   
    17    6   31 1   
    18    7    8 2   
    19    7    9 1   
    20    9   20 1   
    21    9   32 1   
    22    9   33 1   
    23   10   11 2   
    24   10   14 1   
    25   11   12 1   
    26   12   13 1   
    27   13   14 2   
    28   14   15 1   
    29   15   16 2   
    30   15   19 1   
    31   16   17 1   
    32   16   34 1   
    33   17   18 2   
    34   17   35 1   
    35   18   19 1   
    36   18   36 1   
    37   20   21 1   
    38   21   22 3   
@<TRIPOS>SUBSTRUCTURE
     1 O8G         1 TEMP              0 ****  ****    0 ROOT
