@<TRIPOS>MOLECULE
O8H
   59    63     1     0     0
SMALL
bcc


@<TRIPOS>ATOM
      1 C07        -2.8940    0.4380    0.6290 ca        1 O8H      0.007500
      2 C05        -2.7560    1.0780   -0.5950 ca        1 O8H     -0.120000
      3 C04        -1.4990    1.1710   -1.2030 ca        1 O8H      0.128900
      4 I01        -1.2970    2.1010   -2.9820 i         1 O8H     -0.039900
      5 C02        -0.3830    0.6180   -0.5650 ca        1 O8H     -0.120000
      6 C10        -0.5240   -0.0210    0.6590 ca        1 O8H      0.007500
      7 C09        -1.7830   -0.1330    1.2860 ca        1 O8H     -0.527500
      8 S12        -1.9330   -0.8080    2.7390 sy        1 O8H      1.479200
      9 O13        -0.7530   -0.9260    3.4450 o         1 O8H     -0.571800
     10 O16        -3.1290   -0.5380    3.3770 o         1 O8H     -0.571800
     11 N14        -2.2470   -2.5810    2.1550 ny        1 O8H     -0.710900
     12 C17        -1.4780   -3.5980    2.9260 c3        1 O8H      0.132500
     13 C20        -1.6990   -4.9650    2.4240 cc        1 O8H      0.121600
     14 C24        -1.9730   -6.1500    3.1360 cd        1 O8H     -0.101600
     15 N21        -1.6160   -5.3210    1.0510 nc        1 O8H     -0.359000
     16 N22        -1.8200   -6.5620    0.9200 nd        1 O8H     -0.126800
     17 N23        -2.0270   -7.1300    2.1430 na        1 O8H      0.065400
     18 C26        -2.3150   -8.5370    2.3460 c3        1 O8H     -0.032700
     19 C29        -3.4300   -8.8000    3.3760 c         1 O8H      0.643100
     20 O31        -3.8780   -7.8690    4.0770 o         1 O8H     -0.613100
     21 N30        -3.8380  -10.1070    3.5760 n         1 O8H     -0.434800
     22 C43        -3.5060  -11.1930    2.6780 c3        1 O8H      0.074500
     23 C40        -4.6610  -11.6130    1.7680 c3        1 O8H     -0.107900
     24 C32        -5.0330  -10.3600    4.3690 c3        1 O8H      0.074500
     25 C35        -6.2450  -10.7640    3.5310 c3        1 O8H     -0.107900
     26 C38        -5.9050  -11.9210    2.5960 c3        1 O8H     -0.087000
     27 C46        -7.0540  -12.1960    1.6960 cc        1 O8H      0.496700
     28 N50        -7.8580  -13.2420    1.5510 nd        1 O8H     -0.676000
     29 O47        -7.4280  -11.1690    0.7760 os        1 O8H     -0.152100
     30 N48        -8.4560  -11.5880    0.0710 nc        1 O8H     -0.365300
     31 C49        -8.7560  -12.8440    0.5060 cd        1 O8H      0.638500
     32 C51        -9.8090  -13.6930    0.0220 cd        1 O8H     -0.209600
     33 C52       -10.7050  -13.3600   -0.9890 cc        1 O8H     -0.102000
     34 C54       -11.6260  -14.4180   -1.2320 cc        1 O8H     -0.165000
     35 C56       -11.3870  -15.4970   -0.4000 cd        1 O8H     -0.173100
     36 S58       -10.1100  -15.2330    0.6210 ss        1 O8H      0.128200
     37 H07        -3.8910    0.3910    1.1090 ha        1 O8H      0.170500
     38 H05        -3.6470    1.5180   -1.0790 ha        1 O8H      0.183000
     39 H02         0.6190    0.6900   -1.0260 ha        1 O8H      0.183000
     40 H10         0.3710   -0.4350    1.1630 ha        1 O8H      0.170500
     41 HN14       -2.0160   -2.6870    1.1660 hn        1 O8H      0.458800
     42 H17        -0.3820   -3.3230    2.8510 hx        1 O8H      0.111700
     43 H17A       -1.7930   -3.5330    4.0090 hx        1 O8H      0.111700
     44 H24        -2.1510   -6.3600    4.1950 h4        1 O8H      0.233000
     45 H26        -1.3690   -9.0370    2.7100 h1        1 O8H      0.107700
     46 H26A       -2.6120   -8.9830    1.3510 h1        1 O8H      0.107700
     47 H43        -3.2200  -12.0730    3.3290 h1        1 O8H      0.071950
     48 H43A       -2.6110  -10.9410    2.0480 h1        1 O8H      0.071950
     49 H40        -4.3510  -12.5240    1.1950 hc        1 O8H      0.073200
     50 H40A       -4.8930  -10.8030    1.0280 hc        1 O8H      0.073200
     51 H32        -5.2890   -9.4410    4.9700 h1        1 O8H      0.071950
     52 H32A       -4.7790  -11.1940    5.0850 h1        1 O8H      0.071950
     53 H35        -6.6100   -9.8910    2.9290 hc        1 O8H      0.073200
     54 H35A       -7.0690  -11.0690    4.2270 hc        1 O8H      0.073200
     55 H38        -5.7090  -12.8440    3.2160 hc        1 O8H      0.092700
     56 H52       -10.7120  -12.4120   -1.5320 ha        1 O8H      0.168000
     57 H54       -12.4150  -14.3660   -1.9850 ha        1 O8H      0.162000
     58 H56       -11.9630  -16.4230   -0.4020 h4        1 O8H      0.180000
     59 H142       -3.2410   -2.8030    2.2450 hn        1 O8H      0.458800
@<TRIPOS>BOND
     1    1    2 ar  
     2    1    7 ar  
     3    1   37 1   
     4    2    3 ar  
     5    2   38 1   
     6    3    4 1   
     7    3    5 ar  
     8    5    6 ar  
     9    5   39 1   
    10    6    7 ar  
    11    6   40 1   
    12    7    8 1   
    13    8    9 2   
    14    8   10 2   
    15    8   11 1   
    16   11   12 1   
    17   11   41 1   
    18   11   59 1   
    19   12   13 1   
    20   12   42 1   
    21   12   43 1   
    22   13   14 2   
    23   13   15 1   
    24   14   17 1   
    25   14   44 1   
    26   15   16 2   
    27   16   17 1   
    28   17   18 1   
    29   18   19 1   
    30   18   45 1   
    31   18   46 1   
    32   19   20 2   
    33   19   21 1   
    34   21   22 1   
    35   21   24 1   
    36   22   23 1   
    37   22   47 1   
    38   22   48 1   
    39   23   26 1   
    40   23   49 1   
    41   23   50 1   
    42   24   25 1   
    43   24   51 1   
    44   24   52 1   
    45   25   26 1   
    46   25   53 1   
    47   25   54 1   
    48   26   27 1   
    49   26   55 1   
    50   27   28 2   
    51   27   29 1   
    52   28   31 1   
    53   29   30 1   
    54   30   31 2   
    55   31   32 1   
    56   32   33 2   
    57   32   36 1   
    58   33   34 1   
    59   33   56 1   
    60   34   35 2   
    61   34   57 1   
    62   35   36 1   
    63   35   58 1   
@<TRIPOS>SUBSTRUCTURE
     1 O8H         1 TEMP              0 ****  ****    0 ROOT
