@<TRIPOS>MOLECULE
O8H
   59    63     1     0     0
SMALL
bcc


@<TRIPOS>ATOM
      1 C07        -2.8260    0.4230    0.6550 ca        1 O8H      0.007500
      2 C05        -2.6600    1.0600   -0.5670 ca        1 O8H     -0.120000
      3 C04        -1.3910    1.1430   -1.1510 ca        1 O8H      0.128900
      4 I01        -1.1490    2.0670   -2.9280 i         1 O8H     -0.039900
      5 C02        -0.2910    0.5840   -0.4910 ca        1 O8H     -0.120000
      6 C10        -0.4590   -0.0510    0.7310 ca        1 O8H      0.007500
      7 C09        -1.7310   -0.1530    1.3340 ca        1 O8H     -0.527500
      8 S12        -1.9140   -0.8240    2.7860 sy        1 O8H      1.479200
      9 O13        -0.7480   -0.9480    3.5150 o         1 O8H     -0.571800
     10 O16        -3.1190   -0.5440    3.4010 o         1 O8H     -0.571800
     11 N14        -2.2270   -2.5960    2.2010 n4        1 O8H     -0.710900
     12 C17        -1.4820   -3.6160    2.9900 c3        1 O8H      0.132500
     13 C20        -1.7000   -4.9830    2.4860 cc        1 O8H      0.121600
     14 C24        -1.9990   -6.1650    3.1940 cd        1 O8H     -0.101600
     15 N21        -1.5870   -5.3430    1.1160 nc        1 O8H     -0.359000
     16 N22        -1.7960   -6.5820    0.9830 nd        1 O8H     -0.126800
     17 N23        -2.0360   -7.1460    2.2010 na        1 O8H      0.065400
     18 C26        -2.3380   -8.5510    2.4010 c3        1 O8H     -0.032700
     19 C29        -3.4790   -8.8050    3.4040 c         1 O8H      0.643100
     20 O31        -3.9370   -7.8680    4.0920 o         1 O8H     -0.613100
     21 N30        -3.9010  -10.1070    3.5980 n         1 O8H     -0.434800
     22 C43        -3.5550  -11.1980    2.7100 c3        1 O8H      0.074500
     23 C40        -4.6910  -11.6110    1.7730 c3        1 O8H     -0.107900
     24 C32        -5.1170  -10.3500    4.3620 c3        1 O8H      0.074500
     25 C35        -6.3110  -10.7480    3.4940 c3        1 O8H     -0.107900
     26 C38        -5.9560  -11.9080    2.5710 c3        1 O8H     -0.087000
     27 C46        -7.0850  -12.1770    1.6420 cc        1 O8H      0.496700
     28 N50        -7.8930  -13.2170    1.4790 nd        1 O8H     -0.676000
     29 O47        -7.4290  -11.1480    0.7120 os        1 O8H     -0.152100
     30 N48        -8.4430  -11.5610   -0.0170 nc        1 O8H     -0.365300
     31 C49        -8.7620  -12.8150    0.4120 cd        1 O8H      0.638500
     32 C51        -9.8090  -13.6560   -0.0970 cd        1 O8H     -0.209600
     33 C52       -10.6780  -13.3180   -1.1290 cc        1 O8H     -0.102000
     34 C54       -11.6000  -14.3700   -1.3940 cc        1 O8H     -0.165000
     35 C56       -11.3890  -15.4500   -0.5550 cd        1 O8H     -0.173100
     36 S58       -10.1350  -15.1940    0.4970 ss        1 O8H      0.128200
     37 H07        -3.8320    0.3840    1.1160 ha        1 O8H      0.170500
     38 H05        -3.5380    1.5040   -1.0700 ha        1 O8H      0.183000
     39 H02         0.7200    0.6490   -0.9330 ha        1 O8H      0.183000
     40 H10         0.4230   -0.4690    1.2530 ha        1 O8H      0.170500
     41 HN14       -3.2240   -2.8110    2.2700 hn        1 O8H      0.458800
     42 H17        -0.3830   -3.3490    2.9400 hx        1 O8H      0.111700
     43 H17A       -1.8210   -3.5470    4.0660 hx        1 O8H      0.111700
     44 H24        -2.2030   -6.3710    4.2490 h4        1 O8H      0.233000
     45 H26        -2.6140   -8.9980    1.4010 h1        1 O8H      0.107700
     46 H26A       -1.4050   -9.0560    2.7890 h1        1 O8H      0.107700
     47 H43        -2.6430  -10.9530    2.1010 h1        1 O8H      0.071950
     48 H43A       -3.2920  -12.0790    3.3680 h1        1 O8H      0.071950
     49 H40        -4.8980  -10.8000    1.0260 hc        1 O8H      0.073200
     50 H40A       -4.3730  -12.5250    1.2080 hc        1 O8H      0.073200
     51 H32        -4.8860  -11.1850    5.0850 h1        1 O8H      0.071950
     52 H32A       -5.3800   -9.4290    4.9550 h1        1 O8H      0.071950
     53 H35        -7.1540  -11.0450    4.1700 hc        1 O8H      0.073200
     54 H35A       -6.6550   -9.8720    2.8820 hc        1 O8H      0.073200
     55 H38        -5.7830  -12.8320    3.1960 hc        1 O8H      0.092700
     56 H52       -10.6650  -12.3710   -1.6740 ha        1 O8H      0.168000
     57 H54       -12.3700  -14.3140   -2.1660 ha        1 O8H      0.162000
     58 H56       -11.9720  -16.3720   -0.5700 h4        1 O8H      0.180000
     59 H142       -1.9750   -2.7060    1.2160 hn        1 O8H      0.458800
@<TRIPOS>BOND
     1    1    2 ar  
     2    1    7 ar  
     3    1   37 1   
     4    2    3 ar  
     5    2   38 1   
     6    3    4 1   
     7    3    5 ar  
     8    5    6 ar  
     9    5   39 1   
    10    6    7 ar  
    11    6   40 1   
    12    7    8 1   
    13    8    9 2   
    14    8   10 2   
    15    8   11 1   
    16   11   12 1   
    17   11   41 1   
    18   11   59 1   
    19   12   13 1   
    20   12   42 1   
    21   12   43 1   
    22   13   14 2   
    23   13   15 1   
    24   14   17 1   
    25   14   44 1   
    26   15   16 2   
    27   16   17 1   
    28   17   18 1   
    29   18   19 1   
    30   18   45 1   
    31   18   46 1   
    32   19   20 2   
    33   19   21 1   
    34   21   22 1   
    35   21   24 1   
    36   22   23 1   
    37   22   47 1   
    38   22   48 1   
    39   23   26 1   
    40   23   49 1   
    41   23   50 1   
    42   24   25 1   
    43   24   51 1   
    44   24   52 1   
    45   25   26 1   
    46   25   53 1   
    47   25   54 1   
    48   26   27 1   
    49   26   55 1   
    50   27   28 2   
    51   27   29 1   
    52   28   31 1   
    53   29   30 1   
    54   30   31 2   
    55   31   32 1   
    56   32   33 2   
    57   32   36 1   
    58   33   34 1   
    59   33   56 1   
    60   34   35 2   
    61   34   57 1   
    62   35   36 1   
    63   35   58 1   
@<TRIPOS>SUBSTRUCTURE
     1 O8H         1 TEMP              0 ****  ****    0 ROOT
