@<TRIPOS>MOLECULE
O8H
   58    53     1     0     0
SMALL
bcc


@<TRIPOS>ATOM
      1 C07         4.1390    6.8090    4.1250 c1        1 O8H     -0.023000
      2 C05         4.7840    7.2680    5.2770 c1        1 O8H     -0.124000
      3 C04         4.2980    8.3770    5.9450 c1        1 O8H     -0.207000
      4 I01         5.2860    9.0850    7.6700 i         1 O8H      0.157000
      5 C02         3.1710    9.0350    5.4720 c1        1 O8H     -0.074000
      6 C10         2.5300    8.5780    4.3250 c1        1 O8H     -0.074000
      7 C09         3.0170    7.4630    3.6530 c1        1 O8H     -0.799000
      8 S12         2.2300    6.9150    2.1250 s4        1 O8H      2.068800
      9 O13         1.4390    7.9690    1.5350 o         1 O8H     -0.539400
     10 O16         3.2060    6.6820    1.0880 o         1 O8H     -0.539400
     11 N14         1.3040    5.5450    2.4070 n2        1 O8H     -0.891000
     12 C17         0.2380    5.2000    1.5030 c3        1 O8H      0.080000
     13 C20         0.4510    3.7710    0.9790 c2        1 O8H     -0.212000
     14 C24        -0.5390    2.8480    0.7170 c1        1 O8H     -0.073000
     15 N21         1.6330    3.2040    0.6910 n2        1 O8H     -0.081000
     16 N22         1.3950    1.9340    0.2510 n2        1 O8H      0.003000
     17 N23         0.0470    1.7260    0.2710 n2        1 O8H     -0.175000
     18 C26        -0.6490    0.4960   -0.1560 c2        1 O8H     -0.023000
     19 C29         0.3310   -0.4260   -0.8390 c2        1 O8H      0.287000
     20 O31         1.2630    0.0350   -1.4600 o         1 O8H     -0.350000
     21 N30         0.1130   -1.8470   -0.8200 n         1 O8H     -0.314000
     22 C43         0.9720   -2.7890   -1.5240 c3        1 O8H     -0.034500
     23 C40         0.1800   -3.7390   -2.4170 c3        1 O8H     -0.184000
     24 C32        -0.9930   -2.4780   -0.0890 c3        1 O8H     -0.034500
     25 C35        -1.8010   -3.4220   -0.9670 c3        1 O8H     -0.184000
     26 C38        -0.9370   -4.4060   -1.6820 c3        1 O8H     -0.035000
     27 C46        -1.8150   -5.2050   -2.7050 c2        1 O8H      0.019000
     28 N50        -2.0030   -6.5450   -2.7130 n2        1 O8H     -0.160000
     29 O47        -2.5950   -4.6700   -3.6640 os        1 O8H     -0.087000
     30 N48        -3.2720   -5.6880   -4.2730 n2        1 O8H     -0.027000
     31 C49        -2.9070   -6.8370   -3.6880 c2        1 O8H     -0.007000
     32 C51        -3.3250   -8.1080   -4.0560 c2        1 O8H     -0.358000
     33 C52        -4.7010   -8.5570   -4.1580 c1        1 O8H     -0.107000
     34 C54        -4.6960  -10.0870   -4.6130 c1        1 O8H     -0.165000
     35 C56        -3.3190  -10.5100   -4.7710 c1        1 O8H     -0.450000
     36 S58        -2.4040   -9.2990   -4.4320 ss        1 O8H      0.661000
     37 H07         4.4820    6.0250    3.6540 ha        1 O8H      0.158000
     38 H05         5.5750    6.8050    5.6100 ha        1 O8H      0.152000
     39 H02         2.8270    9.8210    5.9450 ha        1 O8H      0.154500
     40 H10         1.7380    9.0400    3.9920 ha        1 O8H      0.154500
     41 HN14        1.4230    5.0660    3.1750 hn        1 O8H      0.257000
     42 H17         0.2330    5.8190    0.7590 h1        1 O8H      0.105000
     43 H17A       -0.6180    5.2510    1.9740 h1        1 O8H      0.105000
     44 H24        -1.4930    2.9860    0.8330 DU        1 O8H      0.180750
     45 H26        -1.3660    0.7270   -0.7780 ha        1 O8H      0.130500
     46 H26A       -1.0290    0.0460    0.6270 ha        1 O8H      0.130500
     47 H43         1.4720   -3.3140   -0.8670 h1        1 O8H      0.106750
     48 H43A        1.6100   -2.2840   -2.0810 h1        1 O8H      0.106750
     49 H40         0.7830   -4.4240   -2.7660 hc        1 O8H      0.108500
     50 H40A       -0.1920   -3.2330   -3.1670 hc        1 O8H      0.108500
     51 H32        -0.6270   -2.9840    0.6670 h1        1 O8H      0.106750
     52 H32A       -1.5880   -1.7780    0.2550 h1        1 O8H      0.106750
     53 H35        -2.4420   -3.9120   -0.4030 hc        1 O8H      0.108500
     54 H35A       -2.2950   -2.8970   -1.6270 hc        1 O8H      0.108500
     55 H38        -0.5610   -5.0300   -1.0300 hc        1 O8H      0.129000
     56 H52        -5.5010   -8.0120   -3.9780 DU        1 O8H      0.180750
     57 H54        -5.4850  -10.6420   -4.7600 DU        1 O8H      0.180750
     58 H56        -3.0190  -11.4000   -5.0420 DU        1 O8H      0.180750
@<TRIPOS>BOND
     1    1    7 1   
     2    1   37 1   
     3    2    3 1   
     4    2   38 1   
     5    3    4 1   
     6    5    6 1   
     7    5   39 1   
     8    6   40 1   
     9    7    8 1   
    10    8    9 1   
    11    8   10 1   
    12   11   12 1   
    13   11   41 1   
    14   12   13 1   
    15   12   42 1   
    16   12   43 1   
    17   13   14 1   
    18   13   15 1   
    19   14   17 1   
    20   15   16 1   
    21   16   17 1   
    22   18   19 1   
    23   18   45 1   
    24   18   46 1   
    25   19   20 1   
    26   19   21 1   
    27   21   22 1   
    28   21   24 1   
    29   22   23 1   
    30   22   47 1   
    31   22   48 1   
    32   23   26 1   
    33   23   49 1   
    34   23   50 1   
    35   24   25 1   
    36   24   51 1   
    37   24   52 1   
    38   25   26 1   
    39   25   53 1   
    40   25   54 1   
    41   26   27 1   
    42   26   55 1   
    43   27   28 1   
    44   27   29 1   
    45   28   31 1   
    46   29   30 1   
    47   30   31 1   
    48   31   32 1   
    49   32   33 1   
    50   32   36 1   
    51   33   34 1   
    52   34   35 1   
    53   35   36 1   
@<TRIPOS>SUBSTRUCTURE
     1 O8H         1 TEMP              0 ****  ****    0 ROOT
