@<TRIPOS>MOLECULE
O8H
   58    62     1     0     0
SMALL
bcc


@<TRIPOS>ATOM
      1 C07         5.4760    1.2010   -1.5840 ca        1 O8H     -0.020000
      2 C05         5.5320   -0.0820   -2.1270 ca        1 O8H     -0.125000
      3 C04         5.3160   -1.1910   -1.3080 ca        1 O8H      0.078900
      4 I01         5.3880   -3.0560   -2.0880 i         1 O8H     -0.132900
      5 C02         5.0540   -1.0120    0.0500 ca        1 O8H     -0.125000
      6 C10         4.9980    0.2750    0.5830 ca        1 O8H     -0.020000
      7 C09         5.2030    1.3970   -0.2270 ca        1 O8H     -0.357500
      8 S12         5.1570    2.9610    0.4310 sy        1 O8H      1.508200
      9 O13         5.2050    2.8450    1.8390 o         1 O8H     -0.651300
     10 O16         6.1670    3.7240   -0.1930 o         1 O8H     -0.651300
     11 N14         3.7200    3.5290   -0.0320 n3        1 O8H     -0.906100
     12 C17         2.5100    3.4240    0.7260 c3        1 O8H      0.218500
     13 C20         1.4950    2.4980    0.1530 cc        1 O8H      0.206600
     14 C24         0.6640    1.5830    0.8240 cd        1 O8H     -0.170600
     15 N21         1.1670    2.4130   -1.2240 nc        1 O8H     -0.343000
     16 N22         0.2470    1.5620   -1.3980 nd        1 O8H     -0.165800
     17 N23        -0.1100    1.0160   -0.2000 na        1 O8H      0.040400
     18 C26        -1.1100   -0.0150   -0.0560 c3        1 O8H     -0.015700
     19 C29        -2.0050    0.1320    1.1850 c         1 O8H      0.642100
     20 O31        -1.7700    0.9820    2.0650 o         1 O8H     -0.591100
     21 N30        -3.0350   -0.7870    1.3570 n         1 O8H     -0.453800
     22 C43        -3.4930   -1.6770    0.3130 c3        1 O8H      0.079500
     23 C40        -4.8400   -1.2800   -0.2930 c3        1 O8H     -0.106900
     24 C32        -4.0200   -0.5570    2.4000 c3        1 O8H      0.079500
     25 C35        -5.3910   -0.1360    1.8700 c3        1 O8H     -0.106900
     26 C38        -5.8820   -1.1140    0.8070 c3        1 O8H     -0.089000
     27 C46        -7.1660   -0.6390    0.2300 cc        1 O8H      0.504700
     28 N50        -8.4010   -1.1290    0.2530 nd        1 O8H     -0.686000
     29 O47        -7.1480    0.5850   -0.5070 os        1 O8H     -0.143100
     30 N48        -8.3650    0.8400   -0.9310 nc        1 O8H     -0.360300
     31 C49        -9.1640   -0.1740   -0.4940 cd        1 O8H      0.626500
     32 C51       -10.5760   -0.3140   -0.7220 cd        1 O8H     -0.195600
     33 C52       -11.3650    0.5780   -1.4400 cc        1 O8H     -0.107000
     34 C54       -12.7230    0.1490   -1.4800 cc        1 O8H     -0.165000
     35 C56       -12.8990   -1.0390   -0.7950 cd        1 O8H     -0.179100
     36 S58       -11.4840   -1.6010   -0.1390 ss        1 O8H      0.119200
     37 H07         5.6670    2.0750   -2.2320 ha        1 O8H      0.157000
     38 H05         5.7480   -0.2080   -3.1990 ha        1 O8H      0.151500
     39 H02         4.8940   -1.8780    0.7110 ha        1 O8H      0.151500
     40 H10         4.8050    0.4140    1.6620 ha        1 O8H      0.157000
     41 HN14        3.5860    3.9250   -0.9340 hn        1 O8H      0.459800
     42 H17         2.7590    3.0800    1.7740 h1        1 O8H      0.072700
     43 H17A        2.0370    4.4500    0.8020 h1        1 O8H      0.072700
     44 H24         0.5300    1.3340    1.8770 h4        1 O8H      0.215000
     45 H26        -1.7610   -0.0060   -0.9790 h1        1 O8H      0.092200
     46 H26A       -0.5820   -1.0120    0.0150 h1        1 O8H      0.092200
     47 H43        -2.7330   -1.7650   -0.5100 h1        1 O8H      0.067200
     48 H43A       -3.5990   -2.7010    0.7810 h1        1 O8H      0.067200
     49 H40        -4.7450   -0.3240   -0.8710 hc        1 O8H      0.070450
     50 H40A       -5.1620   -2.0830   -1.0060 hc        1 O8H      0.070450
     51 H32        -4.1270   -1.5230    2.9720 h1        1 O8H      0.067200
     52 H32A       -3.6420    0.2340    3.1080 h1        1 O8H      0.067200
     53 H35        -6.1110   -0.1130    2.7280 hc        1 O8H      0.070450
     54 H35A       -5.3400    0.8970    1.4350 hc        1 O8H      0.070450
     55 H38        -6.0630   -2.1170    1.2920 hc        1 O8H      0.088700
     56 H52       -11.0020    1.4920   -1.9150 ha        1 O8H      0.169000
     57 H54       -13.5110    0.7040   -1.9920 ha        1 O8H      0.159000
     58 H56       -13.8500   -1.5610   -0.6880 h4        1 O8H      0.175000
@<TRIPOS>BOND
     1    1    2 ar  
     2    1    7 ar  
     3    1   37 1   
     4    2    3 ar  
     5    2   38 1   
     6    3    4 1   
     7    3    5 ar  
     8    5    6 ar  
     9    5   39 1   
    10    6    7 ar  
    11    6   40 1   
    12    7    8 1   
    13    8    9 2   
    14    8   10 2   
    15    8   11 1   
    16   11   12 1   
    17   11   41 1   
    18   12   13 1   
    19   12   42 1   
    20   12   43 1   
    21   13   14 2   
    22   13   15 1   
    23   14   17 1   
    24   14   44 1   
    25   15   16 2   
    26   16   17 1   
    27   17   18 1   
    28   18   19 1   
    29   18   45 1   
    30   18   46 1   
    31   19   20 2   
    32   19   21 1   
    33   21   22 1   
    34   21   24 1   
    35   22   23 1   
    36   22   47 1   
    37   22   48 1   
    38   23   26 1   
    39   23   49 1   
    40   23   50 1   
    41   24   25 1   
    42   24   51 1   
    43   24   52 1   
    44   25   26 1   
    45   25   53 1   
    46   25   54 1   
    47   26   27 1   
    48   26   55 1   
    49   27   28 2   
    50   27   29 1   
    51   28   31 1   
    52   29   30 1   
    53   30   31 2   
    54   31   32 1   
    55   32   33 2   
    56   32   36 1   
    57   33   34 1   
    58   33   56 1   
    59   34   35 2   
    60   34   57 1   
    61   35   36 1   
    62   35   58 1   
@<TRIPOS>SUBSTRUCTURE
     1 O8H         1 TEMP              0 ****  ****    0 ROOT
