@<TRIPOS>MOLECULE
O8K
   48    48     1     0     0
SMALL
bcc


@<TRIPOS>ATOM
      1 C1          0.0680    0.7470   -0.3790 c3        1 O8K     -0.058900
      2 C2          1.5230    0.4570   -0.2820 c2        1 O8K     -0.124400
      3 C3          2.1060    0.2580    0.9090 c2        1 O8K     -0.158200
      4 C4          3.5480   -0.0190    1.1600 c3        1 O8K     -0.024500
      5 C5          4.1560    1.1180    1.9580 c3        1 O8K     -0.088100
      6 C6          3.6870   -1.3670    1.8850 c3        1 O8K      0.159100
      7 O7          3.0220   -1.2650    3.1350 oh        1 O8K     -0.601800
      8 C8          5.1640   -1.7590    2.1230 c3        1 O8K      0.134300
      9 O9          5.0840   -3.0460    2.7500 os        1 O8K     -0.435600
     10 C10         6.2810   -3.4270    3.4070 c3        1 O8K      0.115700
     11 C11         5.9490   -1.7800    0.8550 c2        1 O8K     -0.211200
     12 C12         6.2020   -2.8770    0.1370 c2        1 O8K     -0.144200
     13 C13         6.9620   -2.8700   -1.1370 c3        1 O8K     -0.053200
     14 C14         6.0430   -3.0690   -2.3310 c3        1 O8K     -0.072400
     15 C15         5.1860   -1.8440   -2.5730 c3        1 O8K     -0.077400
     16 C16         4.0360   -2.1410   -3.5130 c3        1 O8K     -0.182400
     17 C17         3.0030   -1.0460   -3.4610 c         1 O8K      0.567100
     18 O18         2.8230   -0.2760   -4.4090 o         1 O8K     -0.531100
     19 C19         2.1920   -0.9710   -2.1960 c3        1 O8K     -0.178400
     20 C20         2.2350    0.4210   -1.5910 c3        1 O8K     -0.036200
     21 H1         -0.4160    0.0420   -1.1010 hc        1 O8K      0.042033
     22 H1A        -0.4410    0.6450    0.6110 hc        1 O8K      0.042033
     23 H1B        -0.0880    1.7900   -0.7510 hc        1 O8K      0.042033
     24 H3          1.5040    0.2960    1.8360 ha        1 O8K      0.140000
     25 H4          4.1070   -0.1230    0.1860 hc        1 O8K      0.053700
     26 H5          5.2660    1.0060    2.0090 hc        1 O8K      0.041033
     27 H5A         3.7470    1.1200    2.9980 hc        1 O8K      0.041033
     28 H5B         3.9190    2.0970    1.4760 hc        1 O8K      0.041033
     29 H6          3.1980   -2.1730    1.2670 h1        1 O8K      0.048700
     30 HO7         3.1350   -2.1180    3.5750 ho        1 O8K      0.417000
     31 H8          5.6290   -1.0280    2.8450 h1        1 O8K      0.059700
     32 H10         6.0590   -4.4420    3.8210 h1        1 O8K      0.036700
     33 H10A        7.1290   -3.4740    2.6790 h1        1 O8K      0.036700
     34 H10B        6.5220   -2.7110    4.2310 h1        1 O8K      0.036700
     35 H11         6.3090   -0.7870    0.5360 ha        1 O8K      0.128000
     36 H12         5.8320   -3.8630    0.4680 ha        1 O8K      0.134000
     37 H13         7.7180   -3.7000   -1.1150 hc        1 O8K      0.048700
     38 H13A        7.5260   -1.9070   -1.2590 hc        1 O8K      0.048700
     39 H14         6.6610   -3.2810   -3.2420 hc        1 O8K      0.044700
     40 H14A        5.3920   -3.9650   -2.1520 hc        1 O8K      0.044700
     41 H15         4.7870   -1.4750   -1.5880 hc        1 O8K      0.050200
     42 H15A        5.8160   -1.0210   -3.0020 hc        1 O8K      0.050200
     43 H16         3.5400   -3.1060   -3.2260 hc        1 O8K      0.065700
     44 H16A        4.4190   -2.2510   -4.5610 hc        1 O8K      0.065700
     45 H19         1.1300   -1.2410   -2.4420 hc        1 O8K      0.066700
     46 H19A        2.5670   -1.7190   -1.4490 hc        1 O8K      0.066700
     47 H20         1.7570    1.1440   -2.3070 hc        1 O8K      0.056200
     48 H20A        3.3030    0.7440   -1.4710 hc        1 O8K      0.056200
@<TRIPOS>BOND
     1    1    2 1   
     2    1   21 1   
     3    1   22 1   
     4    1   23 1   
     5    2    3 2   
     6    2   20 1   
     7    3    4 1   
     8    3   24 1   
     9    4    5 1   
    10    4    6 1   
    11    4   25 1   
    12    5   26 1   
    13    5   27 1   
    14    5   28 1   
    15    6    7 1   
    16    6    8 1   
    17    6   29 1   
    18    7   30 1   
    19    8    9 1   
    20    8   11 1   
    21    8   31 1   
    22    9   10 1   
    23   10   32 1   
    24   10   33 1   
    25   10   34 1   
    26   11   12 2   
    27   11   35 1   
    28   12   13 1   
    29   12   36 1   
    30   13   14 1   
    31   13   37 1   
    32   13   38 1   
    33   14   15 1   
    34   14   39 1   
    35   14   40 1   
    36   15   16 1   
    37   15   41 1   
    38   15   42 1   
    39   16   17 1   
    40   16   43 1   
    41   16   44 1   
    42   17   18 2   
    43   17   19 1   
    44   19   20 1   
    45   19   45 1   
    46   19   46 1   
    47   20   47 1   
    48   20   48 1   
@<TRIPOS>SUBSTRUCTURE
     1 O8K         1 TEMP              0 ****  ****    0 ROOT
