@<TRIPOS>MOLECULE
O8K
   48    46     1     0     0
SMALL
bcc


@<TRIPOS>ATOM
      1 C1         -2.2330   -1.8460   -1.6620 c3        1 O8K     -0.193000
      2 C2         -0.7200   -1.8460   -1.6620 c2        1 O8K     -0.099000
      3 C3          0.0500   -1.8460   -0.3230 c1        1 O8K     -0.175000
      4 C4         -0.7230   -1.8450    1.0080 c2        1 O8K     -0.108000
      5 C5         -0.9860   -3.2590    1.4360 c3        1 O8K     -0.199000
      6 C6          0.0950   -1.1470    2.0590 c3        1 O8K      0.050000
      7 O7          0.0600   -1.8960    3.2630 oh        1 O8K     -0.319000
      8 C8         -0.4740    0.2280    2.3050 c3        1 O8K      0.015000
      9 O9         -1.4690    0.1550    3.3060 os        1 O8K     -0.290000
     10 C10        -1.9960    1.3970    3.6710 c3        1 O8K     -0.070000
     11 C11         0.6340    1.1640    2.7590 c2        1 O8K     -0.197000
     12 C12         1.1680    2.2650    1.7930 c1        1 O8K     -0.150000
     13 C13         0.5210    2.4540    0.4020 c2        1 O8K     -0.142000
     14 C14         1.6110    2.8480   -0.6270 c3        1 O8K     -0.156000
     15 C15         1.0400    2.7310   -2.0620 c3        1 O8K     -0.154000
     16 C16         1.7420    1.5720   -2.8030 c3        1 O8K     -0.211000
     17 C17         0.6830    0.5200   -3.2400 c2        1 O8K      0.229000
     18 O18        -0.0140    0.7270   -4.2170 o         1 O8K     -0.297000
     19 C19         1.2250   -0.8970   -2.9680 c3        1 O8K     -0.208000
     20 C20         0.0550   -1.9120   -3.0000 c3        1 O8K     -0.126000
     21 H1         -2.5580   -1.8740   -2.5820 hc        1 O8K      0.089667
     22 H1A        -2.5580   -2.6290   -1.1770 hc        1 O8K      0.089667
     23 H1B        -2.5580   -1.0360   -1.2260 hc        1 O8K      0.089667
     24 H3          1.0260   -1.8460   -0.3210 ha        1 O8K      0.117000
     25 H4         -1.5720   -1.3770    0.8920 ha        1 O8K      0.104000
     26 H5         -1.6180   -3.2610    2.1800 hc        1 O8K      0.078000
     27 H5A        -0.1490   -3.6750    1.7180 hc        1 O8K      0.078000
     28 H5B        -1.3630   -3.7600    0.6880 hc        1 O8K      0.078000
     29 H6          1.0180   -1.0670    1.7520 h1        1 O8K      0.117000
     30 HO7         0.8870   -2.0120    3.5630 ho        1 O8K      0.214000
     31 H8         -0.8690    0.5690    1.4790 h1        1 O8K      0.099000
     32 H10        -1.3290    1.8960    4.1790 h1        1 O8K      0.075000
     33 H10A       -2.2350    1.8980    2.8680 h1        1 O8K      0.075000
     34 H10B       -2.7910    1.2640    4.2210 h1        1 O8K      0.075000
     35 H11         1.0430    1.0450    3.6370 ha        1 O8K      0.142000
     36 H12         1.8800    2.8660    2.0850 ha        1 O8K      0.124000
     37 H13         0.0980    1.6190    0.1240 ha        1 O8K      0.093000
     38 H13A       -0.1520    3.1590    0.4490 ha        1 O8K      0.093000
     39 H14         1.8940    3.7690   -0.4640 hc        1 O8K      0.082000
     40 H14A        2.3780    2.2520   -0.5330 hc        1 O8K      0.082000
     41 H15         1.1950    3.5660   -2.5440 hc        1 O8K      0.094500
     42 H15A        0.0810    2.5550   -2.0170 hc        1 O8K      0.094500
     43 H16         2.2000    1.9190   -3.5910 hc        1 O8K      0.102500
     44 H16A        2.3910    1.1510   -2.2070 hc        1 O8K      0.102500
     45 H19         1.6530   -0.9190   -2.0910 hc        1 O8K      0.107000
     46 H19A        1.8790   -1.1320   -3.6540 hc        1 O8K      0.107000
     47 H20         0.4090   -2.8130   -3.1270 hc        1 O8K      0.097500
     48 H20A       -0.5470   -1.6930   -3.7360 hc        1 O8K      0.097500
@<TRIPOS>BOND
     1    1    2 1   
     2    1   21 1   
     3    1   22 1   
     4    1   23 1   
     5    2    3 1   
     6    2   20 1   
     7    3   24 1   
     8    4    5 1   
     9    4    6 1   
    10    4   25 1   
    11    5   26 1   
    12    5   27 1   
    13    5   28 1   
    14    6    7 1   
    15    6    8 1   
    16    6   29 1   
    17    7   30 1   
    18    8    9 1   
    19    8   11 1   
    20    8   31 1   
    21    9   10 1   
    22   10   32 1   
    23   10   33 1   
    24   10   34 1   
    25   11   12 1   
    26   11   35 1   
    27   12   36 1   
    28   13   14 1   
    29   13   37 1   
    30   13   38 1   
    31   14   15 1   
    32   14   39 1   
    33   14   40 1   
    34   15   16 1   
    35   15   41 1   
    36   15   42 1   
    37   16   17 1   
    38   16   43 1   
    39   16   44 1   
    40   17   18 1   
    41   17   19 1   
    42   19   20 1   
    43   19   45 1   
    44   19   46 1   
    45   20   47 1   
    46   20   48 1   
@<TRIPOS>SUBSTRUCTURE
     1 O8K         1 TEMP              0 ****  ****    0 ROOT
