@<TRIPOS>MOLECULE
O8K
   48    48     1     0     0
SMALL
bcc


@<TRIPOS>ATOM
      1 C1         -1.2980    4.1860    0.3710 c3        1 O8K     -0.058900
      2 C2         -0.8250    2.8700   -0.1330 c2        1 O8K     -0.124400
      3 C3          0.4800    2.5610   -0.1250 c2        1 O8K     -0.158200
      4 C4          1.0980    1.2960   -0.6140 c3        1 O8K     -0.024500
      5 C5          2.0020    1.5940   -1.7960 c3        1 O8K     -0.088100
      6 C6          1.8630    0.6270    0.5380 c3        1 O8K      0.159100
      7 O7          2.8980    1.5070    0.9500 oh        1 O8K     -0.601800
      8 C8          2.4810   -0.7300    0.1260 c3        1 O8K      0.134300
      9 O9          3.0930   -1.2110    1.3300 os        1 O8K     -0.435600
     10 C10         4.0430   -2.2390    1.1060 c3        1 O8K      0.115700
     11 C11         1.4580   -1.6680   -0.4180 c2        1 O8K     -0.211200
     12 C12         0.8520   -2.6240    0.2890 c2        1 O8K     -0.144200
     13 C13        -0.1850   -3.5290   -0.2670 c3        1 O8K     -0.053200
     14 C14        -1.5700   -3.1600    0.2360 c3        1 O8K     -0.072400
     15 C15        -2.0500   -1.8630   -0.3800 c3        1 O8K     -0.077400
     16 C16        -3.2470   -1.3000    0.3570 c3        1 O8K     -0.182400
     17 C17        -3.4850    0.1380   -0.0220 c         1 O8K      0.567100
     18 O18        -4.4620    0.4810   -0.6930 o         1 O8K     -0.531100
     19 C19        -2.4730    1.1250    0.4910 c3        1 O8K     -0.178400
     20 C20        -1.9060    1.9740   -0.6330 c3        1 O8K     -0.036200
     21 H1         -0.4710    4.7700    0.8430 hc        1 O8K      0.042033
     22 H1A        -1.7190    4.7880   -0.4730 hc        1 O8K      0.042033
     23 H1B        -2.1060    4.0380    1.1310 hc        1 O8K      0.042033
     24 H3          1.2200    3.2810    0.2690 ha        1 O8K      0.140000
     25 H4          0.3040    0.5640   -0.9360 hc        1 O8K      0.053700
     26 H5          2.9010    2.1640   -1.4580 hc        1 O8K      0.041033
     27 H5A         2.3380    0.6420   -2.2740 hc        1 O8K      0.041033
     28 H5B         1.4540    2.2000   -2.5560 hc        1 O8K      0.041033
     29 H6          1.1570    0.4520    1.3990 h1        1 O8K      0.048700
     30 HO7         3.3710    1.0590    1.6640 ho        1 O8K      0.417000
     31 H8          3.2830   -0.5520   -0.6470 h1        1 O8K      0.059700
     32 H10         3.5590   -3.1190    0.6150 h1        1 O8K      0.036700
     33 H10A        4.8860   -1.8640    0.4740 h1        1 O8K      0.036700
     34 H10B        4.4070   -2.5090    2.1280 h1        1 O8K      0.036700
     35 H11         1.2210   -1.5020   -1.4830 ha        1 O8K      0.128000
     36 H12         1.0970   -2.7760    1.3550 ha        1 O8K      0.134000
     37 H13        -0.1780   -3.5010   -1.3900 hc        1 O8K      0.048700
     38 H13A        0.0480   -4.5840    0.0420 hc        1 O8K      0.048700
     39 H14        -2.2870   -3.9850   -0.0170 hc        1 O8K      0.044700
     40 H14A       -1.5450   -3.0690    1.3540 hc        1 O8K      0.044700
     41 H15        -1.2080   -1.1160   -0.3640 hc        1 O8K      0.050200
     42 H15A       -2.3180   -2.0330   -1.4560 hc        1 O8K      0.050200
     43 H16        -4.1590   -1.9100    0.1230 hc        1 O8K      0.065700
     44 H16A       -3.0780   -1.3480    1.4660 hc        1 O8K      0.065700
     45 H19        -2.9790    1.7880    1.2440 hc        1 O8K      0.066700
     46 H19A       -1.6400    0.5900    1.0180 hc        1 O8K      0.066700
     47 H20        -2.7350    2.5870   -1.0800 hc        1 O8K      0.056200
     48 H20A       -1.5220    1.3060   -1.4490 hc        1 O8K      0.056200
@<TRIPOS>BOND
     1    1    2 1   
     2    1   21 1   
     3    1   22 1   
     4    1   23 1   
     5    2    3 2   
     6    2   20 1   
     7    3    4 1   
     8    3   24 1   
     9    4    5 1   
    10    4    6 1   
    11    4   25 1   
    12    5   26 1   
    13    5   27 1   
    14    5   28 1   
    15    6    7 1   
    16    6    8 1   
    17    6   29 1   
    18    7   30 1   
    19    8    9 1   
    20    8   11 1   
    21    8   31 1   
    22    9   10 1   
    23   10   32 1   
    24   10   33 1   
    25   10   34 1   
    26   11   12 2   
    27   11   35 1   
    28   12   13 1   
    29   12   36 1   
    30   13   14 1   
    31   13   37 1   
    32   13   38 1   
    33   14   15 1   
    34   14   39 1   
    35   14   40 1   
    36   15   16 1   
    37   15   41 1   
    38   15   42 1   
    39   16   17 1   
    40   16   43 1   
    41   16   44 1   
    42   17   18 2   
    43   17   19 1   
    44   19   20 1   
    45   19   45 1   
    46   19   46 1   
    47   20   47 1   
    48   20   48 1   
@<TRIPOS>SUBSTRUCTURE
     1 O8K         1 TEMP              0 ****  ****    0 ROOT
