@<TRIPOS>MOLECULE
O8K
   48    48     1     0     0
SMALL
bcc


@<TRIPOS>ATOM
      1 C1          0.1450    0.7850   -0.3320 c3        1 O8K     -0.062900
      2 C2          1.5880    0.4380   -0.2430 c2        1 O8K     -0.107400
      3 C3          2.1770    0.2540    0.9480 c2        1 O8K     -0.177200
      4 C4          3.6080   -0.0790    1.1950 c3        1 O8K     -0.063500
      5 C5          4.2780    1.0650    1.9330 c3        1 O8K     -0.085100
      6 C6          3.7050   -1.3920    1.9910 c3        1 O8K      0.152100
      7 O7          3.2230   -1.2190    3.3180 oh        1 O8K     -0.594800
      8 C8          5.1550   -1.9020    2.1570 c3        1 O8K      0.176300
      9 O9          5.0130   -3.2750    2.5390 os        1 O8K     -0.417600
     10 C10         6.0950   -3.7550    3.3190 c3        1 O8K      0.116700
     11 C11         5.9570   -1.7620    0.9040 c2        1 O8K     -0.212200
     12 C12         6.2410   -2.7710    0.0770 c2        1 O8K     -0.145200
     13 C13         7.0260   -2.6200   -1.1730 c3        1 O8K     -0.053200
     14 C14         6.1600   -2.8620   -2.3980 c3        1 O8K     -0.072400
     15 C15         5.1640   -1.7390   -2.5950 c3        1 O8K     -0.077400
     16 C16         4.0260   -2.1490   -3.5050 c3        1 O8K     -0.181400
     17 C17         2.9040   -1.1470   -3.4550 c         1 O8K      0.567100
     18 O18         2.5990   -0.4610   -4.4360 o         1 O8K     -0.531100
     19 C19         2.1580   -1.0520   -2.1510 c3        1 O8K     -0.178400
     20 C20         2.2820    0.3410   -1.5580 c3        1 O8K     -0.038200
     21 H1          0.0290    1.8260   -0.7270 hc        1 O8K      0.043700
     22 H1A        -0.3740    0.0860   -1.0350 hc        1 O8K      0.043700
     23 H1B        -0.3580    0.7270    0.6630 hc        1 O8K      0.043700
     24 H3          1.5830    0.3780    1.8710 ha        1 O8K      0.118000
     25 H4          4.1400   -0.2450    0.2150 hc        1 O8K      0.061700
     26 H5          3.8450    1.1670    2.9580 hc        1 O8K      0.040700
     27 H5A         5.3730    0.8690    2.0300 hc        1 O8K      0.040700
     28 H5B         4.1320    2.0230    1.3800 hc        1 O8K      0.040700
     29 H6          3.1040   -2.1870    1.4650 h1        1 O8K      0.053700
     30 HO7         2.2630   -1.1460    3.2570 ho        1 O8K      0.402000
     31 H8          5.6480   -1.3200    2.9880 h1        1 O8K      0.064700
     32 H10         7.0510   -3.6890    2.7440 h1        1 O8K      0.034033
     33 H10A        5.8330   -4.8220    3.5280 h1        1 O8K      0.034033
     34 H10B        6.1800   -3.1790    4.2740 h1        1 O8K      0.034033
     35 H11         6.3130   -0.7370    0.7080 ha        1 O8K      0.126000
     36 H12         5.8800   -3.7920    0.2920 ha        1 O8K      0.136000
     37 H13         7.8670   -3.3660   -1.1670 hc        1 O8K      0.048200
     38 H13A        7.4850   -1.5980   -1.2380 hc        1 O8K      0.048200
     39 H14         6.8150   -2.9480   -3.3040 hc        1 O8K      0.044700
     40 H14A        5.6200   -3.8390   -2.2820 hc        1 O8K      0.044700
     41 H15         4.7540   -1.4330   -1.5930 hc        1 O8K      0.049700
     42 H15A        5.6850   -0.8440   -3.0250 hc        1 O8K      0.049700
     43 H16         3.6180   -3.1470   -3.1900 hc        1 O8K      0.067200
     44 H16A        4.3970   -2.2490   -4.5590 hc        1 O8K      0.067200
     45 H19         1.0760   -1.2830   -2.3420 hc        1 O8K      0.066700
     46 H19A        2.5460   -1.8110   -1.4230 hc        1 O8K      0.066700
     47 H20         3.3680    0.6070   -1.4540 hc        1 O8K      0.057700
     48 H20A        1.8340    1.0820   -2.2760 hc        1 O8K      0.057700
@<TRIPOS>BOND
     1    1    2 1   
     2    1   21 1   
     3    1   22 1   
     4    1   23 1   
     5    2    3 2   
     6    2   20 1   
     7    3    4 1   
     8    3   24 1   
     9    4    5 1   
    10    4    6 1   
    11    4   25 1   
    12    5   26 1   
    13    5   27 1   
    14    5   28 1   
    15    6    7 1   
    16    6    8 1   
    17    6   29 1   
    18    7   30 1   
    19    8    9 1   
    20    8   11 1   
    21    8   31 1   
    22    9   10 1   
    23   10   32 1   
    24   10   33 1   
    25   10   34 1   
    26   11   12 2   
    27   11   35 1   
    28   12   13 1   
    29   12   36 1   
    30   13   14 1   
    31   13   37 1   
    32   13   38 1   
    33   14   15 1   
    34   14   39 1   
    35   14   40 1   
    36   15   16 1   
    37   15   41 1   
    38   15   42 1   
    39   16   17 1   
    40   16   43 1   
    41   16   44 1   
    42   17   18 2   
    43   17   19 1   
    44   19   20 1   
    45   19   45 1   
    46   19   46 1   
    47   20   47 1   
    48   20   48 1   
@<TRIPOS>SUBSTRUCTURE
     1 O8K         1 TEMP              0 ****  ****    0 ROOT
