@<TRIPOS>MOLECULE
O8M
   49    51     1     0     0
SMALL
bcc


@<TRIPOS>ATOM
      1 O2         -0.3140    0.0240   -0.3470 o         1 O8M     -0.344100
      2 C4          0.8620    0.3220   -0.2150 c         1 O8M      0.511100
      3 C5          1.6660    0.2330    1.0760 c3        1 O8M      0.031800
      4 N2          0.8140   -0.0330    2.2790 n4        1 O8M     -0.679400
      5 C6          0.0200    1.1750    2.6450 c3        1 O8M      0.067100
      6 C5'         1.7000   -0.4940    3.4160 c3        1 O8M      0.116800
      7 C4'         0.9440   -0.7320    4.7210 c3        1 O8M      0.070100
      8 O4'         0.0580   -1.8410    4.5700 os        1 O8M     -0.454600
      9 C1'        -0.1630   -2.4210    5.8980 c3        1 O8M      0.240800
     10 N5         -0.4100   -3.8310    5.7960 na        1 O8M     -0.282000
     11 C11        -1.6570   -4.4230    6.0940 ca        1 O8M      0.462800
     12 N4         -2.8560   -3.8820    6.4210 nb        1 O8M     -0.632000
     13 C10        -3.8280   -4.8000    6.6660 ca        1 O8M      0.694900
     14 N3         -3.7370   -6.1610    6.6270 nb        1 O8M     -0.655000
     15 C9         -2.5340   -6.6920    6.2980 ca        1 O8M      0.544200
     16 N7         -2.3800   -8.1580    6.2740 n4        1 O8M     -0.819300
     17 C12        -1.4250   -5.8740    5.9970 ca        1 O8M     -0.131200
     18 N6         -0.1000   -6.1250    5.6280 nc        1 O8M     -0.557100
     19 C7          0.4850   -4.9120    5.5150 cd        1 O8M      0.499800
     20 C2'         1.0730   -2.0080    6.7790 c3        1 O8M      0.085100
     21 O2'         0.5590   -1.2350    7.8380 oh        1 O8M     -0.584800
     22 C3'         1.9240   -1.0870    5.8730 c3        1 O8M      0.125100
     23 O3'         2.4090    0.0740    6.4750 oh        1 O8M     -0.565800
     24 C8          1.9140   -4.7030    5.1550 c3        1 O8M     -0.134400
     25 N1          1.5870    0.7980   -1.4340 n4        1 O8M     -0.743400
     26 H5          2.4170   -0.6120    0.9660 hx        1 O8M      0.158700
     27 H5A         2.2350    1.1970    1.2540 hx        1 O8M      0.158700
     28 H6         -0.5020    1.5720    1.7320 hx        1 O8M      0.125700
     29 H6A         0.6920    1.9610    3.0850 hx        1 O8M      0.125700
     30 H6B        -0.7620    0.8830    3.4030 hx        1 O8M      0.125700
     31 H5'         2.1960   -1.4520    3.0870 hx        1 O8M      0.124700
     32 H5'A        2.4770    0.3020    3.6130 hx        1 O8M      0.124700
     33 H4'         0.3460    0.1740    5.0240 h1        1 O8M      0.095700
     34 H1'        -1.0950   -1.9150    6.3070 h2        1 O8M      0.149700
     35 H10        -4.8340   -4.3960    6.9430 h5        1 O8M      0.118100
     36 HN7        -1.8880   -8.4540    7.1290 hn        1 O8M      0.488467
     37 HN7A       -1.8220   -8.4250    5.4520 hn        1 O8M      0.488467
     38 H2'         1.6700   -2.8870    7.1330 h1        1 O8M      0.099700
     39 HO2'        0.8790   -1.6020    8.6760 ho        1 O8M      0.460000
     40 H3'         2.8290   -1.6320    5.4840 h1        1 O8M      0.096700
     41 HO3'        1.8150    0.3410    7.1990 ho        1 O8M      0.456000
     42 H8          2.0840   -3.6670    4.7730 hc        1 O8M      0.084367
     43 H8A         2.5550   -4.8770    6.0590 hc        1 O8M      0.084367
     44 H8B         2.2200   -5.4400    4.3670 hc        1 O8M      0.084367
     45 HN1         2.4060    0.2050   -1.6340 hn        1 O8M      0.503133
     46 HN1A        1.9030    1.7730   -1.3180 hn        1 O8M      0.503133
     47 H21         0.1500   -0.7990    2.0710 hn        1 O8M      0.482800
     48 H73        -3.2990   -8.6270    6.2370 hn        1 O8M      0.488467
     49 H13         0.9490    0.7600   -2.2530 hn        1 O8M      0.503133
@<TRIPOS>BOND
     1    1    2 2   
     2    2    3 1   
     3    2   25 1   
     4    3    4 1   
     5    3   26 1   
     6    3   27 1   
     7    4    5 1   
     8    4    6 1   
     9    4   47 1   
    10    5   28 1   
    11    5   29 1   
    12    5   30 1   
    13    6    7 1   
    14    6   31 1   
    15    6   32 1   
    16    7    8 1   
    17    7   22 1   
    18    7   33 1   
    19    8    9 1   
    20    9   10 1   
    21    9   20 1   
    22    9   34 1   
    23   10   11 1   
    24   10   19 1   
    25   11   12 ar  
    26   11   17 ar  
    27   12   13 ar  
    28   13   14 ar  
    29   13   35 1   
    30   14   15 ar  
    31   15   16 1   
    32   15   17 ar  
    33   16   36 1   
    34   16   37 1   
    35   16   48 1   
    36   17   18 1   
    37   18   19 2   
    38   19   24 1   
    39   20   21 1   
    40   20   22 1   
    41   20   38 1   
    42   21   39 1   
    43   22   23 1   
    44   22   40 1   
    45   23   41 1   
    46   24   42 1   
    47   24   43 1   
    48   24   44 1   
    49   25   45 1   
    50   25   46 1   
    51   25   49 1   
@<TRIPOS>SUBSTRUCTURE
     1 O8M         1 TEMP              0 ****  ****    0 ROOT
