@<TRIPOS>MOLECULE
O8M
   46    42     1     0     0
SMALL
bcc


@<TRIPOS>ATOM
      1 O2          0.3050    2.3610   -4.4190 o         1 O8M     -0.384000
      2 C4          1.5170    2.1160   -4.4710 c1        1 O8M      0.300000
      3 C5          2.2340    1.6190   -3.2550 c2        1 O8M     -0.102000
      4 N2          1.5770    2.1470   -2.0450 n3        1 O8M     -0.269000
      5 C6          2.0150    3.4930   -1.8200 c3        1 O8M     -0.125000
      6 C5'         1.9350    1.3250   -0.9050 c3        1 O8M     -0.062000
      7 C4'         0.8310    1.4180    0.1680 c3        1 O8M     -0.012000
      8 O4'        -0.0510    0.4850   -0.0140 os        1 O8M     -0.282000
      9 C1'        -0.5510    0.0550    1.4290 c3        1 O8M      0.126000
     10 N5         -1.0640   -1.2370    1.3880 n3        1 O8M     -0.195000
     11 C11        -2.4150   -1.3930    1.5070 c1        1 O8M      0.076000
     12 N4         -3.4230   -0.4970    1.8190 n1        1 O8M     -0.215000
     13 C10        -4.6920   -0.9450    2.0340 c1        1 O8M      0.027000
     14 N3         -4.9710   -2.2800    1.9420 n1        1 O8M     -0.264000
     15 C9         -3.9840   -3.1640    1.6360 c1        1 O8M      0.238000
     16 N7         -4.7090   -4.3830    1.5200 n2        1 O8M     -0.351000
     17 C12        -2.6910   -2.7120    1.4160 c1        1 O8M     -0.235000
     18 N6         -1.5100   -3.3780    1.2410 n1        1 O8M     -0.113000
     19 C7         -0.5130   -2.4670    1.2240 c1        1 O8M      0.016000
     20 C2'         0.5280    0.1060    2.2350 c3        1 O8M     -0.039000
     21 O2'         0.1350    0.5350    3.5730 oh        1 O8M     -0.321000
     22 C3'         1.4400    1.1400    1.5990 c3        1 O8M      0.015000
     23 O3'         1.4480    2.2680    2.3280 oh        1 O8M     -0.299000
     24 C8          0.5490   -3.5710    0.9670 c2        1 O8M     -0.158000
     25 N1          2.2200    2.2050   -5.7370 n3        1 O8M     -0.422000
     26 H5          3.1840    1.9310   -3.2790 h4        1 O8M      0.117000
     27 H5A         2.2120    0.6270   -3.2400 h4        1 O8M      0.117000
     28 H6          2.1380    3.9540   -2.6990 h1        1 O8M      0.079000
     29 H6A         2.8670    3.4820   -1.3360 h1        1 O8M      0.079000
     30 H6B         1.3340    3.9800   -1.2830 h1        1 O8M      0.079000
     31 H5'         2.0320    0.4040   -1.1910 h1        1 O8M      0.089000
     32 H5'A        2.7950    1.6450   -0.5230 h1        1 O8M      0.089000
     33 H4'         0.3970    2.3120    0.1450 h1        1 O8M      0.117000
     34 H1'        -1.2580    0.6970    1.7560 h2        1 O8M      0.155000
     35 H10        -5.4200   -0.2980    2.2580 ha        1 O8M      0.191000
     36 HN7        -5.5860   -4.3730    1.2570 hn        1 O8M      0.243000
     37 HN7A       -4.3150   -5.1640    1.7440 hn        1 O8M      0.243000
     38 H2'         0.9740   -0.7720    2.2720 h1        1 O8M      0.112000
     39 HO2'        0.6300    0.0880    4.1950 ho        1 O8M      0.225000
     40 H3'         2.3580    0.7830    1.5140 h1        1 O8M      0.128000
     41 HO3'        2.2740    2.4530    2.5700 ho        1 O8M      0.225000
     42 H8          0.3430   -4.3510    1.5100 ha        1 O8M      0.102667
     43 H8A         0.5390   -3.8170    0.0310 ha        1 O8M      0.102667
     44 H8B         1.4460   -3.2300    1.2070 ha        1 O8M      0.102667
     45 HN1         1.7650    2.3880   -6.4910 hn        1 O8M      0.228000
     46 HN1A        3.1320    2.0140   -5.7780 hn        1 O8M      0.228000
@<TRIPOS>BOND
     1    1    2 1   
     2    2   25 1   
     3    3    4 1   
     4    3   26 1   
     5    3   27 1   
     6    4    5 1   
     7    4    6 1   
     8    5   28 1   
     9    5   29 1   
    10    5   30 1   
    11    6    7 1   
    12    6   31 1   
    13    6   32 1   
    14    7    8 1   
    15    7   22 1   
    16    7   33 1   
    17    8    9 1   
    18    9   10 1   
    19    9   20 1   
    20    9   34 1   
    21   10   11 1   
    22   10   19 1   
    23   11   17 1   
    24   12   13 1   
    25   13   35 1   
    26   14   15 1   
    27   15   17 1   
    28   16   36 1   
    29   16   37 1   
    30   18   19 1   
    31   20   21 1   
    32   20   22 1   
    33   20   38 1   
    34   21   39 1   
    35   22   23 1   
    36   22   40 1   
    37   23   41 1   
    38   24   42 1   
    39   24   43 1   
    40   24   44 1   
    41   25   45 1   
    42   25   46 1   
@<TRIPOS>SUBSTRUCTURE
     1 O8M         1 TEMP              0 ****  ****    0 ROOT
