@<TRIPOS>MOLECULE
O8M
   48    50     1     0     0
SMALL
bcc


@<TRIPOS>ATOM
      1 O2          3.0750    1.4470    0.1830 o         1 O8M     -0.379100
      2 C4          1.9190    1.3060    0.5340 c         1 O8M      0.530100
      3 C5          1.4200    1.0300    1.9470 c3        1 O8M      0.092800
      4 N2          0.1330    0.3750    1.9910 n3        1 O8M     -0.778600
      5 C6         -0.9450    1.2280    2.4540 c3        1 O8M      0.141100
      6 C5'         0.1440   -0.9510    2.5830 c3        1 O8M      0.178800
      7 C4'         0.6210   -1.0430    4.0420 c3        1 O8M      0.070100
      8 O4'        -0.2370   -1.9780    4.7250 os        1 O8M     -0.438600
      9 C1'         0.4890   -2.5000    5.8620 c3        1 O8M      0.245800
     10 N5         -0.0330   -3.7910    6.2340 na        1 O8M     -0.207500
     11 C11        -0.8520   -4.6570    5.5170 cc        1 O8M      0.081700
     12 N4         -1.4140   -4.5860    4.2570 na        1 O8M     -0.325900
     13 C10        -2.2120   -5.6630    3.8910 cc        1 O8M      0.625400
     14 N3         -2.4710   -6.7430    4.6050 nd        1 O8M     -0.728000
     15 C9         -1.9300   -6.8720    5.8980 cd        1 O8M      0.820200
     16 N7         -2.1880   -7.9530    6.6480 nh        1 O8M     -0.847500
     17 C12        -1.0940   -5.7970    6.3770 cc        1 O8M     -0.137900
     18 N6         -0.4430   -5.6120    7.6000 nc        1 O8M     -0.499100
     19 C7          0.1740   -4.4190    7.5190 cd        1 O8M      0.463800
     20 C2'         2.0030   -2.4890    5.4510 c3        1 O8M      0.074100
     21 O2'         2.6920   -1.9040    6.5350 oh        1 O8M     -0.591800
     22 C3'         2.0640   -1.5670    4.2120 c3        1 O8M      0.086100
     23 O3'         2.9750   -0.5060    4.3460 oh        1 O8M     -0.587800
     24 C8          0.9610   -3.7580    8.5930 c3        1 O8M     -0.138400
     25 N1          0.8860    1.4680   -0.5600 n4        1 O8M     -0.751400
     26 H5          2.2370    0.4120    2.4400 h1        1 O8M      0.133200
     27 H5A         1.4130    2.0410    2.4600 h1        1 O8M      0.133200
     28 H6         -1.9190    0.6870    2.3180 h1        1 O8M      0.060033
     29 H6A        -0.9630    2.1630    1.8330 h1        1 O8M      0.060033
     30 H6B        -0.8440    1.5210    3.5340 h1        1 O8M      0.060033
     31 H5'         0.8000   -1.6040    1.9400 h1        1 O8M      0.076700
     32 H5'A       -0.9090   -1.3530    2.5300 h1        1 O8M      0.076700
     33 H4'         0.5150   -0.0510    4.5690 h1        1 O8M      0.080700
     34 H1'         0.3270   -1.7990    6.7400 h2        1 O8M      0.124700
     35 H10        -2.6760   -5.6090    2.8750 h5        1 O8M      0.097100
     36 HN7        -1.7970   -8.0250    7.5660 hn        1 O8M      0.491300
     37 HN7A       -2.7720   -8.6940    6.3160 hn        1 O8M      0.491300
     38 H2'         2.3980   -3.5110    5.2160 h1        1 O8M      0.091700
     39 HO2'        3.6310   -2.1190    6.4380 ho        1 O8M      0.449000
     40 H3'         2.4130   -2.1350    3.3070 h1        1 O8M      0.101700
     41 HO3'        2.9240   -0.1600    5.2520 ho        1 O8M      0.440000
     42 H8          1.2410   -4.5070    9.3790 hc        1 O8M      0.094033
     43 H8A         0.3380   -2.9570    9.0700 hc        1 O8M      0.094033
     44 H8B         1.8940   -3.2970    8.1800 hc        1 O8M      0.094033
     45 HN1         0.1800    2.1520   -0.2740 hn        1 O8M      0.472467
     46 HN1A        0.4200    0.5700   -0.7260 hn        1 O8M      0.472467
     47 H21        -1.3150   -3.7680    3.6920 hn        1 O8M      0.337700
     48 H13         1.3320    1.7810   -1.4330 hn        1 O8M      0.472467
@<TRIPOS>BOND
     1    1    2 2   
     2    2    3 1   
     3    2   25 1   
     4    3    4 1   
     5    3   26 1   
     6    3   27 1   
     7    4    5 1   
     8    4    6 1   
     9    5   28 1   
    10    5   29 1   
    11    5   30 1   
    12    6    7 1   
    13    6   31 1   
    14    6   32 1   
    15    7    8 1   
    16    7   22 1   
    17    7   33 1   
    18    8    9 1   
    19    9   10 1   
    20    9   20 1   
    21    9   34 1   
    22   10   11 2   
    23   10   19 1   
    24   11   12 1   
    25   11   17 1   
    26   12   13 1   
    27   12   47 1   
    28   13   14 2   
    29   13   35 1   
    30   14   15 1   
    31   15   16 1   
    32   15   17 2   
    33   16   36 1   
    34   16   37 1   
    35   17   18 1   
    36   18   19 2   
    37   19   24 1   
    38   20   21 1   
    39   20   22 1   
    40   20   38 1   
    41   21   39 1   
    42   22   23 1   
    43   22   40 1   
    44   23   41 1   
    45   24   42 1   
    46   24   43 1   
    47   24   44 1   
    48   25   45 1   
    49   25   46 1   
    50   25   48 1   
@<TRIPOS>SUBSTRUCTURE
     1 O8M         1 TEMP              0 ****  ****    0 ROOT
