@<TRIPOS>MOLECULE
O8M
   48    50     1     0     0
SMALL
bcc


@<TRIPOS>ATOM
      1 O2          1.8360   -1.9570    1.5470 o         1 O8M     -0.640100
      2 C4          2.2950   -0.9680    0.9310 c         1 O8M      0.655100
      3 C5          1.9930    0.4540    1.4440 c3        1 O8M      0.014800
      4 N2          1.0990    0.4450    2.6450 nx        1 O8M     -0.665400
      5 C6          0.4720    1.7780    2.8300 c3        1 O8M      0.081100
      6 C5'         1.8550    0.0010    3.8630 c3        1 O8M      0.101800
      7 C4'         0.9610   -0.2510    5.0800 c3        1 O8M      0.080100
      8 O4'        -0.0760   -1.1670    4.7170 os        1 O8M     -0.444600
      9 C1'        -0.3490   -2.0710    5.8150 c3        1 O8M      0.254800
     10 N5         -0.6350   -3.3900    5.3060 na        1 O8M     -0.275000
     11 C11        -1.8630   -4.0510    5.5110 ca        1 O8M      0.463800
     12 N4         -2.9940   -3.6790    6.1570 nb        1 O8M     -0.623000
     13 C10        -3.9710   -4.6250    6.1510 ca        1 O8M      0.682900
     14 N3         -3.9460   -5.8690    5.5910 nb        1 O8M     -0.664000
     15 C9         -2.8080   -6.2290    4.9470 ca        1 O8M      0.524200
     16 N7         -2.7190   -7.5680    4.3370 nz        1 O8M     -0.816300
     17 C12        -1.7020   -5.3620    4.8520 ca        1 O8M     -0.124200
     18 N6         -0.4410   -5.4550    4.2630 nc        1 O8M     -0.581100
     19 C7          0.1750   -4.2780    4.5340 cd        1 O8M      0.520800
     20 C2'         0.8670   -1.9900    6.7970 c3        1 O8M      0.078100
     21 O2'         0.3190   -1.6070    8.0390 oh        1 O8M     -0.581800
     22 C3'         1.7700   -0.8630    6.2470 c3        1 O8M      0.103100
     23 O3'         2.0950    0.1050    7.2050 oh        1 O8M     -0.560800
     24 C8          1.5440   -3.9310    4.0690 c3        1 O8M     -0.139400
     25 N1          3.0590   -1.0810   -0.1810 nt        1 O8M     -0.614000
     26 H5          1.4780    1.0390    0.6260 hx        1 O8M      0.128700
     27 H5A         2.9560    0.9760    1.7150 hx        1 O8M      0.128700
     28 H6         -0.2470    1.7290    3.6930 hx        1 O8M      0.111033
     29 H6A         1.2640    2.5450    3.0410 hx        1 O8M      0.111033
     30 H6B        -0.0910    2.0620    1.9000 hx        1 O8M      0.111033
     31 H5'         2.3860   -0.9580    3.5830 hx        1 O8M      0.122700
     32 H5'A        2.6100    0.7930    4.1350 hx        1 O8M      0.122700
     33 H4'         0.4660    0.7040    5.4200 h1        1 O8M      0.092700
     34 H1'        -1.2820   -1.6770    6.3320 h2        1 O8M      0.149700
     35 H10        -4.9210   -4.3550    6.6740 h5        1 O8M      0.111100
     36 HN7        -2.0630   -8.1380    4.8880 hn        1 O8M      0.482800
     37 HN7A       -3.6400   -8.0300    4.3180 hn        1 O8M      0.482800
     38 H2'         1.4300   -2.9560    6.8750 h1        1 O8M      0.088700
     39 HO2'        0.9510   -1.8530    8.7310 ho        1 O8M      0.450000
     40 H3'         2.7610   -1.2680    5.8990 h1        1 O8M      0.105700
     41 HO3'        1.3010    0.3170    7.7230 ho        1 O8M      0.438000
     42 H8          2.2490   -4.7720    4.2990 hc        1 O8M      0.090033
     43 H8A         1.5270   -3.7730    2.9560 hc        1 O8M      0.090033
     44 H8B         1.9140   -2.9950    4.5560 hc        1 O8M      0.090033
     45 HN1         3.4080   -0.2890   -0.6640 hn        1 O8M      0.350000
     46 HN1A        3.2630   -1.9870   -0.5410 hn        1 O8M      0.350000
     47 H21         0.3570   -0.2630    2.4860 hn        1 O8M      0.479800
     48 H13        -2.3600   -7.4710    3.3780 hn        1 O8M      0.482800
@<TRIPOS>BOND
     1    1    2 2   
     2    2    3 1   
     3    2   25 1   
     4    3    4 1   
     5    3   26 1   
     6    3   27 1   
     7    4    5 1   
     8    4    6 1   
     9    4   47 1   
    10    5   28 1   
    11    5   29 1   
    12    5   30 1   
    13    6    7 1   
    14    6   31 1   
    15    6   32 1   
    16    7    8 1   
    17    7   22 1   
    18    7   33 1   
    19    8    9 1   
    20    9   10 1   
    21    9   20 1   
    22    9   34 1   
    23   10   11 1   
    24   10   19 1   
    25   11   12 ar  
    26   11   17 ar  
    27   12   13 ar  
    28   13   14 ar  
    29   13   35 1   
    30   14   15 ar  
    31   15   16 1   
    32   15   17 ar  
    33   16   36 1   
    34   16   37 1   
    35   16   48 1   
    36   17   18 1   
    37   18   19 2   
    38   19   24 1   
    39   20   21 1   
    40   20   22 1   
    41   20   38 1   
    42   21   39 1   
    43   22   23 1   
    44   22   40 1   
    45   23   41 1   
    46   24   42 1   
    47   24   43 1   
    48   24   44 1   
    49   25   45 1   
    50   25   46 1   
@<TRIPOS>SUBSTRUCTURE
     1 O8M         1 TEMP              0 ****  ****    0 ROOT
