@<TRIPOS>MOLECULE
O8M
   46    48     1     0     0
SMALL
bcc


@<TRIPOS>ATOM
      1 O2          6.2990   -2.2340   -0.3690 o         1 O8M     -0.621100
      2 C4          5.0940   -1.9640   -0.1830 c         1 O8M      0.652100
      3 C5          4.7040   -0.5870    0.3670 c3        1 O8M      0.092800
      4 N2          3.4860   -0.0470   -0.2180 n3        1 O8M     -0.739600
      5 C6          3.6490    0.3510   -1.5980 c3        1 O8M      0.145100
      6 C5'         2.8880    0.9630    0.6390 c3        1 O8M      0.171800
      7 C4'         1.7370    1.7660    0.0190 c3        1 O8M      0.106100
      8 O4'         0.7380    0.8890   -0.5110 os        1 O8M     -0.407600
      9 C1'        -0.5890    1.3260   -0.1530 c3        1 O8M      0.256800
     10 N5         -1.3880    0.2020    0.2550 na        1 O8M     -0.275000
     11 C11        -2.6040   -0.1650   -0.3500 ca        1 O8M      0.470800
     12 N4         -3.3250    0.4330   -1.3460 nb        1 O8M     -0.734000
     13 C10        -4.4670   -0.2340   -1.6350 ca        1 O8M      0.686900
     14 N3         -4.9810   -1.3700   -1.0930 nb        1 O8M     -0.793000
     15 C9         -4.2660   -1.9720   -0.0840 ca        1 O8M      0.759200
     16 N7         -4.7370   -3.0980    0.5400 nh        1 O8M     -0.958500
     17 C12        -3.0220   -1.3840    0.3260 ca        1 O8M     -0.227200
     18 N6         -2.0720   -1.7520    1.2880 nc        1 O8M     -0.547100
     19 C7         -1.1080   -0.8130    1.2240 cd        1 O8M      0.420800
     20 C2'        -0.4380    2.4360    0.9360 c3        1 O8M      0.069100
     21 O2'        -1.0770    3.5850    0.4140 oh        1 O8M     -0.584800
     22 C3'         1.0790    2.6820    1.0710 c3        1 O8M      0.082100
     23 O3'         1.4020    4.0390    0.8750 oh        1 O8M     -0.584800
     24 C8          0.1380   -0.8120    2.0340 c3        1 O8M     -0.114400
     25 N1          4.1220   -2.9050   -0.3900 n         1 O8M     -0.657000
     26 H5          4.5590   -0.7120    1.4780 h1        1 O8M      0.065200
     27 H5A         5.5940    0.0890    0.2060 h1        1 O8M      0.065200
     28 H6          4.1900   -0.4610   -2.1510 h1        1 O8M      0.043367
     29 H6A         2.6300    0.4790   -2.0500 h1        1 O8M      0.043367
     30 H6B         4.2270    1.3080   -1.7180 h1        1 O8M      0.043367
     31 H5'         2.5020    0.4220    1.5510 h1        1 O8M      0.042700
     32 H5'A        3.6470    1.7280    0.9820 h1        1 O8M      0.042700
     33 H4'         2.1160    2.3820   -0.8460 h1        1 O8M      0.069700
     34 H1'        -1.0490    1.7710   -1.0890 h2        1 O8M      0.129700
     35 H10        -5.0840    0.2130   -2.4450 h5        1 O8M      0.053100
     36 HN7        -5.5550   -3.5480    0.2120 hn        1 O8M      0.447800
     37 HN7A       -4.1540   -3.5570    1.1940 hn        1 O8M      0.447800
     38 H2'        -0.8920    2.1450    1.9180 h1        1 O8M      0.073700
     39 HO2'       -1.0520    4.2570    1.1080 ho        1 O8M      0.422000
     40 H3'         1.4420    2.4530    2.1100 h1        1 O8M      0.094700
     41 HO3'        1.0510    4.3060    0.0130 ho        1 O8M      0.420000
     42 H8          0.3390    0.2100    2.4420 hc        1 O8M      0.064033
     43 H8A         0.0520   -1.5330    2.8840 hc        1 O8M      0.064033
     44 H8B         0.9970   -1.1130    1.3800 hc        1 O8M      0.064033
     45 HN1         4.3730   -3.7810   -0.7760 hn        1 O8M      0.316500
     46 HN1A        3.1650   -2.6600   -0.3560 hn        1 O8M      0.316500
@<TRIPOS>BOND
     1    1    2 2   
     2    2    3 1   
     3    2   25 1   
     4    3    4 1   
     5    3   26 1   
     6    3   27 1   
     7    4    5 1   
     8    4    6 1   
     9    5   28 1   
    10    5   29 1   
    11    5   30 1   
    12    6    7 1   
    13    6   31 1   
    14    6   32 1   
    15    7    8 1   
    16    7   22 1   
    17    7   33 1   
    18    8    9 1   
    19    9   10 1   
    20    9   20 1   
    21    9   34 1   
    22   10   11 1   
    23   10   19 1   
    24   11   12 ar  
    25   11   17 ar  
    26   12   13 ar  
    27   13   14 ar  
    28   13   35 1   
    29   14   15 ar  
    30   15   16 1   
    31   15   17 ar  
    32   16   36 1   
    33   16   37 1   
    34   17   18 1   
    35   18   19 2   
    36   19   24 1   
    37   20   21 1   
    38   20   22 1   
    39   20   38 1   
    40   21   39 1   
    41   22   23 1   
    42   22   40 1   
    43   23   41 1   
    44   24   42 1   
    45   24   43 1   
    46   24   44 1   
    47   25   45 1   
    48   25   46 1   
@<TRIPOS>SUBSTRUCTURE
     1 O8M         1 TEMP              0 ****  ****    0 ROOT
