@<TRIPOS>MOLECULE
O90
   52    54     1     0     0
SMALL
bcc


@<TRIPOS>ATOM
      1 C1          0.4390   -0.1260   -0.1120 ca        1 O90     -0.001300
      2 C2          1.8090   -0.2120    0.1640 ca        1 O90     -0.137000
      3 C4          2.2690   -0.0930    1.4760 ca        1 O90      0.026400
      4 C5          1.3840    0.1080    2.5450 ca        1 O90     -0.033100
      5 C6          0.0160    0.1870    2.2570 ca        1 O90     -0.141000
      6 C8         -0.4530    0.0710    0.9560 ca        1 O90     -0.109000
      7 S10         2.0610    0.2480    4.1010 ss        1 O90     -0.186000
      8 C11         0.6740    0.2190    5.1940 c3        1 O90     -0.045300
      9 C14         1.2280    0.1670    6.5940 c3        1 O90     -0.073400
     10 C17         0.0860    0.1070    7.5950 c3        1 O90      0.126400
     11 O20         0.7080    0.1410    8.8910 os        1 O90     -0.319900
     12 C21        -0.1270    0.0500    9.9780 ca        1 O90      0.175100
     13 C22         0.5430    0.0190   11.2280 ca        1 O90     -0.091300
     14 C23        -0.2970   -0.0710   12.3270 ca        1 O90      0.072100
     15 C24        -1.7240   -0.1310   12.2520 ca        1 O90     -0.235900
     16 C25        -2.3410   -0.0970   11.0080 ca        1 O90     -0.024000
     17 C27        -1.5340   -0.0070    9.8770 ca        1 O90     -0.216000
     18 C29        -2.1210   -0.2230   13.6550 cc        1 O90      0.281900
     19 N30        -1.0280   -0.2160   14.4340 nd        1 O90     -0.334200
     20 O31         0.0650   -0.1290   13.6970 os        1 O90      0.003400
     21 C32        -3.5360   -0.3120   14.1970 c3        1 O90      0.647600
     22 F33        -3.8770    0.7180   15.0360 f         1 O90     -0.225967
     23 F34        -4.5090   -0.3040   13.2290 f         1 O90     -0.225967
     24 F35        -3.7830   -1.4500   14.9230 f         1 O90     -0.225967
     25 C36         2.0210    0.0650   11.3450 c3        1 O90     -0.023100
     26 C39         2.5620    1.4700   11.1460 c3        1 O90     -0.076400
     27 C42         4.0640    1.4940   11.2650 c3        1 O90     -0.092100
     28 CL46        3.9490   -0.1890    1.7820 cl        1 O90     -0.125400
     29 C47        -0.0630   -0.2200   -1.5010 c3        1 O90     -0.183100
     30 C50        -1.3060   -1.1340   -1.6500 c         1 O90      0.919600
     31 O51        -2.3730   -0.7870   -1.0670 o         1 O90     -0.835300
     32 O52        -1.1870   -2.1550   -2.3780 o         1 O90     -0.835300
     33 H2          2.5230   -0.3810   -0.6560 ha        1 O90      0.141000
     34 H6         -0.7090    0.3400    3.0710 ha        1 O90      0.116000
     35 H8         -1.5370    0.0980    0.7270 ha        1 O90      0.199000
     36 H11         0.0280   -0.6710    4.9910 h1        1 O90      0.067200
     37 H11A        0.0410    1.1310    5.0580 h1        1 O90      0.067200
     38 H14         1.8840   -0.7350    6.7230 hc        1 O90      0.070200
     39 H14A        1.8580    1.0720    6.8010 hc        1 O90      0.070200
     40 H17        -0.5930    0.9940    7.4880 h1        1 O90      0.047200
     41 H17A       -0.5000   -0.8420    7.4840 h1        1 O90      0.047200
     42 H25        -3.4370   -0.1410   10.9210 ha        1 O90      0.158000
     43 H27        -2.0160    0.0190    8.8880 ha        1 O90      0.154000
     44 H36         2.3280   -0.3160   12.3560 hc        1 O90      0.061200
     45 H36A        2.4690   -0.6140   10.5690 hc        1 O90      0.061200
     46 H39         2.2540    1.8390   10.1320 hc        1 O90      0.047200
     47 H39A        2.1110    2.1580   11.9070 hc        1 O90      0.047200
     48 H42         4.4460    2.5330   11.1140 hc        1 O90      0.033700
     49 H42A        4.3870    1.1420   12.2740 hc        1 O90      0.033700
     50 H42B        4.5310    0.8320   10.4960 hc        1 O90      0.033700
     51 H47        -0.3680    0.8040   -1.8430 hc        1 O90      0.044200
     52 H47A        0.7400   -0.5960   -2.1850 hc        1 O90      0.044200
@<TRIPOS>BOND
     1    1    2 ar  
     2    1    6 ar  
     3    1   29 1   
     4    2    3 ar  
     5    2   33 1   
     6    3    4 ar  
     7    3   28 1   
     8    4    5 ar  
     9    4    7 1   
    10    5    6 ar  
    11    5   34 1   
    12    6   35 1   
    13    7    8 1   
    14    8    9 1   
    15    8   36 1   
    16    8   37 1   
    17    9   10 1   
    18    9   38 1   
    19    9   39 1   
    20   10   11 1   
    21   10   40 1   
    22   10   41 1   
    23   11   12 1   
    24   12   13 ar  
    25   12   17 ar  
    26   13   14 ar  
    27   13   25 1   
    28   14   15 ar  
    29   14   20 1   
    30   15   16 ar  
    31   15   18 1   
    32   16   17 ar  
    33   16   42 1   
    34   17   43 1   
    35   18   19 2   
    36   18   21 1   
    37   19   20 1   
    38   21   22 1   
    39   21   23 1   
    40   21   24 1   
    41   25   26 1   
    42   25   44 1   
    43   25   45 1   
    44   26   27 1   
    45   26   46 1   
    46   26   47 1   
    47   27   48 1   
    48   27   49 1   
    49   27   50 1   
    50   29   30 1   
    51   29   51 1   
    52   29   52 1   
    53   30   31 1   
    54   30   32 1   
@<TRIPOS>SUBSTRUCTURE
     1 O90         1 TEMP              0 ****  ****    0 ROOT
