@<TRIPOS>MOLECULE
O90
   52    54     1     0     0
SMALL
bcc


@<TRIPOS>ATOM
      1 C1         -7.0540    0.7710   -0.4790 ca        1 O90     -0.001300
      2 C2         -7.0410   -0.5880   -0.1420 ca        1 O90     -0.137000
      3 C4         -5.8320   -1.2810   -0.0700 ca        1 O90      0.026400
      4 C5         -4.6090   -0.6450   -0.3250 ca        1 O90     -0.033100
      5 C6         -4.6340    0.7160   -0.6550 ca        1 O90     -0.141000
      6 C8         -5.8310    1.4150   -0.7300 ca        1 O90     -0.109000
      7 S10        -3.2000   -1.5940   -0.2170 ss        1 O90     -0.186000
      8 C11        -1.8720   -0.4340   -0.3260 c3        1 O90     -0.045300
      9 C14        -0.6040   -1.2040   -0.0620 c3        1 O90     -0.073400
     10 C17         0.5870   -0.2590   -0.1100 c3        1 O90      0.126400
     11 O20         1.7450   -1.0910    0.0720 os        1 O90     -0.319900
     12 C21         2.9610   -0.4540    0.1140 ca        1 O90      0.175100
     13 C22         4.0630   -1.3130    0.3630 ca        1 O90     -0.091300
     14 C23         5.2910   -0.6730    0.4050 ca        1 O90      0.072100
     15 C24         5.4780    0.7330    0.2190 ca        1 O90     -0.235900
     16 C25         4.3730    1.5380   -0.0230 ca        1 O90     -0.024000
     17 C27         3.1200    0.9360   -0.0730 ca        1 O90     -0.216000
     18 C29         6.9240    0.8910    0.3620 cc        1 O90      0.281900
     19 N30         7.4860   -0.3030    0.6050 nd        1 O90     -0.334200
     20 O31         6.5660   -1.2500    0.6380 os        1 O90      0.003400
     21 C32         7.7120    2.1840    0.2610 c3        1 O90      0.647600
     22 F33         8.6540    2.1850   -0.7370 f         1 O90     -0.225967
     23 F34         6.9430    3.2920    0.0070 f         1 O90     -0.225967
     24 F35         8.4100    2.5020    1.3980 f         1 O90     -0.225967
     25 C36         3.9070   -2.7730    0.5740 c3        1 O90     -0.023100
     26 C39         3.6860   -3.5150   -0.7320 c3        1 O90     -0.076400
     27 C42         3.5260   -4.9940   -0.4950 c3        1 O90     -0.092100
     28 CL46       -5.8480   -2.9440    0.3300 cl        1 O90     -0.125400
     29 C47        -8.3290    1.5140   -0.5880 c3        1 O90     -0.183100
     30 C50        -8.2940    2.9070    0.0900 c         1 O90      0.919600
     31 O51        -7.5070    3.7780   -0.3790 o         1 O90     -0.835300
     32 O52        -9.0860    3.1010    1.0510 o         1 O90     -0.835300
     33 H2         -7.9870   -1.1080    0.0730 ha        1 O90      0.141000
     34 H6         -3.6940    1.2500   -0.8560 ha        1 O90      0.116000
     35 H8         -5.8530    2.5000   -0.9560 ha        1 O90      0.199000
     36 H11        -1.8400    0.0390   -1.3390 h1        1 O90      0.067200
     37 H11A       -2.0000    0.3860    0.4230 h1        1 O90      0.067200
     38 H14        -0.6470   -1.6990    0.9440 hc        1 O90      0.070200
     39 H14A       -0.4680   -2.0120   -0.8290 hc        1 O90      0.070200
     40 H17         0.6550    0.2570   -1.1030 h1        1 O90      0.047200
     41 H17A        0.5350    0.4980    0.7150 h1        1 O90      0.047200
     42 H25         4.4880    2.6230   -0.1700 ha        1 O90      0.158000
     43 H27         2.2400    1.5690   -0.2630 ha        1 O90      0.154000
     44 H36         4.8220   -3.1760    1.0850 hc        1 O90      0.061200
     45 H36A        3.0260   -2.9510    1.2500 hc        1 O90      0.061200
     46 H39         2.7680   -3.1070   -1.2320 hc        1 O90      0.047200
     47 H39A        4.5540   -3.3330   -1.4200 hc        1 O90      0.047200
     48 H42         3.3630   -5.5240   -1.4650 hc        1 O90      0.033700
     49 H42A        4.4390   -5.4180   -0.0100 hc        1 O90      0.033700
     50 H42B        2.6510   -5.1950    0.1680 hc        1 O90      0.033700
     51 H47        -8.5540    1.6850   -1.6740 hc        1 O90      0.044200
     52 H47A       -9.1690    0.9210   -0.1430 hc        1 O90      0.044200
@<TRIPOS>BOND
     1    1    2 ar  
     2    1    6 ar  
     3    1   29 1   
     4    2    3 ar  
     5    2   33 1   
     6    3    4 ar  
     7    3   28 1   
     8    4    5 ar  
     9    4    7 1   
    10    5    6 ar  
    11    5   34 1   
    12    6   35 1   
    13    7    8 1   
    14    8    9 1   
    15    8   36 1   
    16    8   37 1   
    17    9   10 1   
    18    9   38 1   
    19    9   39 1   
    20   10   11 1   
    21   10   40 1   
    22   10   41 1   
    23   11   12 1   
    24   12   13 ar  
    25   12   17 ar  
    26   13   14 ar  
    27   13   25 1   
    28   14   15 ar  
    29   14   20 1   
    30   15   16 ar  
    31   15   18 1   
    32   16   17 ar  
    33   16   42 1   
    34   17   43 1   
    35   18   19 2   
    36   18   21 1   
    37   19   20 1   
    38   21   22 1   
    39   21   23 1   
    40   21   24 1   
    41   25   26 1   
    42   25   44 1   
    43   25   45 1   
    44   26   27 1   
    45   26   46 1   
    46   26   47 1   
    47   27   48 1   
    48   27   49 1   
    49   27   50 1   
    50   29   30 1   
    51   29   51 1   
    52   29   52 1   
    53   30   31 1   
    54   30   32 1   
@<TRIPOS>SUBSTRUCTURE
     1 O90         1 TEMP              0 ****  ****    0 ROOT
