@<TRIPOS>MOLECULE
O90
   52    46     1     0     0
SMALL
bcc


@<TRIPOS>ATOM
      1 C1          5.3490    3.9850    0.5290 c1        1 O90      0.039000
      2 C2          5.5950    2.9480   -0.3580 c2        1 O90     -0.130000
      3 C4          4.5740    2.0790   -0.7090 c1        1 O90     -0.020000
      4 C5          3.3060    2.2460   -0.1730 c1        1 O90     -0.303000
      5 C6          3.0600    3.2830    0.7130 c1        1 O90     -0.094000
      6 C8          4.0810    4.1520    1.0650 c1        1 O90     -0.167000
      7 S10         2.0330    1.0610   -0.5250 ss        1 O90      0.160000
      8 C11         0.9840    1.6830   -1.8140 c3        1 O90     -0.293000
      9 C14         0.2240    0.5350   -2.4440 c3        1 O90     -0.184000
     10 C17        -1.1810    0.4940   -1.8840 c3        1 O90     -0.032000
     11 O20        -1.6320   -0.8400   -1.8460 os        1 O90     -0.209000
     12 C21        -2.2690   -1.1900   -0.6440 c2        1 O90      0.129000
     13 C22        -3.4020   -1.8970   -0.2740 c2        1 O90     -0.092000
     14 C23        -3.4140   -2.6320    0.9250 c1        1 O90      0.023000
     15 C24        -2.3060   -2.6480    1.7270 c1        1 O90     -0.153000
     16 C25        -1.1560   -1.9310    1.3520 c1        1 O90     -0.023000
     17 C27        -1.1450   -1.2070    0.1690 c1        1 O90     -0.220000
     18 C29        -2.5910   -3.4450    2.8400 c1        1 O90     -0.163000
     19 N30        -3.8580   -3.9040    2.7110 n2        1 O90      0.043000
     20 O31        -4.3800   -3.4040    1.5210 o         1 O90     -0.054000
     21 C32        -1.9490   -3.8420    4.1510 c2        1 O90      0.509000
     22 F33        -0.8520   -4.5710    3.9080 f         1 O90     -0.155333
     23 F34        -1.6110   -2.7410    4.8340 f         1 O90     -0.155333
     24 F35        -2.8150   -4.5660    4.8710 f         1 O90     -0.155333
     25 C36        -4.2220   -1.9830   -1.5430 c3        1 O90     -0.109000
     26 C39        -5.6030   -2.5060   -1.2160 c3        1 O90     -0.159000
     27 C42        -5.9700   -3.6030   -2.1910 c3        1 O90     -0.209000
     28 CL46        4.8830    0.7770   -1.8270 cl        1 O90     -0.039000
     29 C47         6.4470    4.9720    0.8620 c2        1 O90     -0.230000
     30 C50         7.4820    4.3000    1.7390 c2        1 O90      0.341000
     31 O51         8.6060    3.9900    1.2620 o         1 O90     -0.563000
     32 O52         7.2380    4.0970    2.9580 o         1 O90     -0.563000
     33 H2          6.4870    2.8310   -0.7350 ha        1 O90      0.212000
     34 H6          2.1670    3.4030    1.0870 ha        1 O90      0.123000
     35 H8          3.9100    4.8760    1.6970 ha        1 O90      0.133000
     36 H11         0.3510    2.3260   -1.4370 h1        1 O90      0.118000
     37 H11A        1.5310    2.1240   -2.4940 h1        1 O90      0.118000
     38 H14         0.6790   -0.3070   -2.2430 hc        1 O90      0.094000
     39 H14A        0.1850    0.6620   -3.4130 hc        1 O90      0.094000
     40 H17        -1.7760    1.0230   -2.4550 h1        1 O90      0.115000
     41 H17A       -1.1830    0.8660   -0.9780 h1        1 O90      0.115000
     42 H25        -0.3650   -1.9430    1.9240 ha        1 O90      0.162000
     43 H27        -0.3400   -0.7280   -0.1020 ha        1 O90      0.187000
     44 H36        -3.7840   -2.5900   -2.1730 hc        1 O90      0.099000
     45 H36A       -4.2960   -1.0940   -1.9440 hc        1 O90      0.099000
     46 H39        -6.2520   -1.7770   -1.2860 hc        1 O90      0.088000
     47 H39A       -5.6090   -2.8630   -0.3060 hc        1 O90      0.088000
     48 H42        -5.2590   -4.2770   -2.2070 hc        1 O90      0.070333
     49 H42A       -6.8100   -4.0210   -1.9100 hc        1 O90      0.070333
     50 H42B       -6.0780   -3.2210   -3.0870 hc        1 O90      0.070333
     51 H47         6.8700    5.2800    0.0360 ha        1 O90      0.086500
     52 H47A        6.0650    5.7370    1.3370 ha        1 O90      0.086500
@<TRIPOS>BOND
     1    1    2 1   
     2    1    6 1   
     3    2    3 1   
     4    2   33 1   
     5    3   28 1   
     6    4    5 1   
     7    4    7 1   
     8    5   34 1   
     9    6   35 1   
    10    7    8 1   
    11    8    9 1   
    12    8   36 1   
    13    8   37 1   
    14    9   10 1   
    15    9   38 1   
    16    9   39 1   
    17   10   11 1   
    18   10   40 1   
    19   10   41 1   
    20   11   12 1   
    21   12   13 1   
    22   12   17 1   
    23   13   14 1   
    24   13   25 1   
    25   15   16 1   
    26   16   42 1   
    27   17   43 1   
    28   18   19 1   
    29   19   20 1   
    30   21   22 1   
    31   21   23 1   
    32   21   24 1   
    33   25   26 1   
    34   25   44 1   
    35   25   45 1   
    36   26   27 1   
    37   26   46 1   
    38   26   47 1   
    39   27   48 1   
    40   27   49 1   
    41   27   50 1   
    42   29   30 1   
    43   29   51 1   
    44   29   52 1   
    45   30   31 1   
    46   30   32 1   
@<TRIPOS>SUBSTRUCTURE
     1 O90         1 TEMP              0 ****  ****    0 ROOT
