@<TRIPOS>MOLECULE
O90
   52    54     1     0     0
SMALL
bcc


@<TRIPOS>ATOM
      1 C1          0.4180   -0.1300   -0.1120 ca        1 O90     -0.001300
      2 C2          1.7880   -0.2260    0.1600 ca        1 O90     -0.137000
      3 C4          2.2520   -0.1110    1.4710 ca        1 O90      0.026400
      4 C5          1.3720    0.0950    2.5420 ca        1 O90     -0.033100
      5 C6          0.0030    0.1830    2.2590 ca        1 O90     -0.141000
      6 C8         -0.4690    0.0720    0.9580 ca        1 O90     -0.109000
      7 S10         2.0530    0.2290    4.0960 ss        1 O90     -0.186000
      8 C11         0.6690    0.2110    5.1930 c3        1 O90     -0.045300
      9 C14         1.2270    0.1560    6.5920 c3        1 O90     -0.073400
     10 C17         0.0870    0.1060    7.5960 c3        1 O90      0.126400
     11 O20         0.7130    0.1360    8.8900 os        1 O90     -0.319900
     12 C21        -0.1200    0.0540    9.9790 ca        1 O90      0.175100
     13 C22         0.5530    0.0200   11.2280 ca        1 O90     -0.091300
     14 C23        -0.2850   -0.0620   12.3290 ca        1 O90      0.072100
     15 C24        -1.7120   -0.1110   12.2580 ca        1 O90     -0.235900
     16 C25        -2.3320   -0.0740   11.0150 ca        1 O90     -0.024000
     17 C27        -1.5280    0.0080    9.8830 ca        1 O90     -0.216000
     18 C29        -2.1070   -0.1970   13.6630 cc        1 O90      0.281900
     19 N30        -1.0120   -0.1980   14.4380 nd        1 O90     -0.334200
     20 O31         0.0800   -0.1200   13.6990 os        1 O90      0.003400
     21 C32        -3.5210   -0.2750   14.2080 c3        1 O90      0.647600
     22 F33        -3.8520    0.7590   15.0470 f         1 O90     -0.225967
     23 F34        -4.4960   -0.2600   13.2430 f         1 O90     -0.225967
     24 F35        -3.7750   -1.4090   14.9360 f         1 O90     -0.225967
     25 C36         2.0320    0.0540   11.3410 c3        1 O90     -0.023100
     26 C39         2.5840    1.4540   11.1380 c3        1 O90     -0.076400
     27 C42         4.0860    1.4660   11.2520 c3        1 O90     -0.092100
     28 Cl46        3.9320   -0.2190    1.7720 cl        1 O90     -0.125400
     29 C47        -0.0880   -0.2200   -1.5000 c3        1 O90     -0.183100
     30 C50        -1.3370   -1.1260   -1.6470 c         1 O90      0.919600
     31 O51        -2.4010   -0.7720   -1.0610 o         1 O90     -0.835300
     32 O52        -1.2270   -2.1460   -2.3770 o         1 O90     -0.835300
     33 H2          2.4990   -0.3990   -0.6630 ha        1 O90      0.141000
     34 H6         -0.7180    0.3400    3.0740 ha        1 O90      0.116000
     35 H8         -1.5540    0.1050    0.7320 ha        1 O90      0.199000
     36 H11         0.0170   -0.6750    4.9930 h1        1 O90      0.067200
     37 H11A        0.0430    1.1270    5.0570 h1        1 O90      0.067200
     38 H14         1.8760   -0.7510    6.7200 hc        1 O90      0.070200
     39 H14A        1.8650    1.0560    6.7960 hc        1 O90      0.070200
     40 H17        -0.5850    0.9980    7.4900 h1        1 O90      0.047200
     41 H17A       -0.5070   -0.8380    7.4880 h1        1 O90      0.047200
     42 H25        -3.4290   -0.1100   10.9310 ha        1 O90      0.158000
     43 H27        -2.0120    0.0360    8.8950 ha        1 O90      0.154000
     44 H36         2.3380   -0.3270   12.3520 hc        1 O90      0.061200
     45 H36A        2.4720   -0.6300   10.5650 hc        1 O90      0.061200
     46 H39         2.2750    1.8230   10.1240 hc        1 O90      0.047200
     47 H39A        2.1400    2.1480   11.8990 hc        1 O90      0.047200
     48 H42         4.4750    2.5020   11.0980 hc        1 O90      0.033700
     49 H42A        4.4090    1.1140   12.2620 hc        1 O90      0.033700
     50 H42B        4.5460    0.7990   10.4840 hc        1 O90      0.033700
     51 H47        -0.3880    0.8070   -1.8410 hc        1 O90      0.044200
     52 H47A        0.7110   -0.6000   -2.1870 hc        1 O90      0.044200
@<TRIPOS>BOND
     1    1    2 ar  
     2    1    6 ar  
     3    1   29 1   
     4    2    3 ar  
     5    2   33 1   
     6    3    4 ar  
     7    3   28 1   
     8    4    5 ar  
     9    4    7 1   
    10    5    6 ar  
    11    5   34 1   
    12    6   35 1   
    13    7    8 1   
    14    8    9 1   
    15    8   36 1   
    16    8   37 1   
    17    9   10 1   
    18    9   38 1   
    19    9   39 1   
    20   10   11 1   
    21   10   40 1   
    22   10   41 1   
    23   11   12 1   
    24   12   13 ar  
    25   12   17 ar  
    26   13   14 ar  
    27   13   25 1   
    28   14   15 ar  
    29   14   20 1   
    30   15   16 ar  
    31   15   18 1   
    32   16   17 ar  
    33   16   42 1   
    34   17   43 1   
    35   18   19 2   
    36   18   21 1   
    37   19   20 1   
    38   21   22 1   
    39   21   23 1   
    40   21   24 1   
    41   25   26 1   
    42   25   44 1   
    43   25   45 1   
    44   26   27 1   
    45   26   46 1   
    46   26   47 1   
    47   27   48 1   
    48   27   49 1   
    49   27   50 1   
    50   29   30 1   
    51   29   51 1   
    52   29   52 1   
    53   30   31 1   
    54   30   32 1   
@<TRIPOS>SUBSTRUCTURE
     1 O90         1 TEMP              0 ****  ****    0 ROOT
