@<TRIPOS>MOLECULE
O92
   44    39     1     0     0
SMALL
bcc


@<TRIPOS>ATOM
      1 C12        -0.0290   -6.9060   -1.7050 c3        1 O92     -0.082000
      2 N3         -0.6880   -5.7390   -1.2450 n         1 O92     -0.353000
      3 C6         -1.2660   -4.8430   -2.1710 c2        1 O92      0.371000
      4 O1         -1.2470   -5.1000   -3.3560 o         1 O92     -0.397000
      5 C4         -1.9800   -3.5960   -1.6760 c2        1 O92     -0.185000
      6 N2         -1.3320   -2.4240   -1.6350 n2        1 O92     -0.057000
      7 C3         -3.3150   -3.6630   -1.3080 c1        1 O92      0.160000
      8 N4         -4.0020   -4.9080   -1.3470 n2        1 O92     -0.330000
      9 N1         -3.9580   -2.5550   -0.9120 n2        1 O92     -0.186000
     10 C2         -3.3120   -1.3830   -0.8720 c1        1 O92     -0.020000
     11 C1         -1.9750   -1.3150   -1.2390 c1        1 O92     -0.115000
     12 C5         -1.2730    0.0070   -1.2650 c2        1 O92     -0.036000
     13 C11        -0.6470    0.4780   -0.1280 c2        1 O92     -0.020000
     14 C7         -1.2930    0.7770   -2.4150 c1        1 O92     -0.030000
     15 C8         -0.6850    2.0190   -2.4250 c1        1 O92     -0.155000
     16 C9         -0.0590    2.4910   -1.2870 c1        1 O92      0.054000
     17 CL1         0.6500    4.0840   -1.2810 cl        1 O92      0.017000
     18 C10        -0.0390    1.7210   -0.1380 c2        1 O92     -0.820000
     19 S1          0.6710    2.3590    1.3310 s4        1 O92      2.073800
     20 O2          0.8640    1.3240    2.3100 o         1 O92     -0.528400
     21 O3         -0.2450    3.2260    2.0190 o         1 O92     -0.528400
     22 N5          2.0740    3.1250    0.9940 n2        1 O92     -0.816000
     23 C14         2.6410    3.9910    1.9380 c2        1 O92      0.092000
     24 C17         3.9580    4.3960    1.7980 c2        1 O92     -0.170000
     25 C18         4.5670    5.1260    2.8010 c1        1 O92     -0.087000
     26 C15         3.8610    5.4530    3.9450 c1        1 O92     -0.170000
     27 C16         2.5460    5.0500    4.0870 c1        1 O92      0.089000
     28 F2          1.8550    5.3920    5.1800 f         1 O92     -0.089000
     29 C13         1.9350    4.3190    3.0830 c2        1 O92      0.003000
     30 F1          0.6410    3.9930    3.1870 f         1 O92     -0.096000
     31 H121        0.5800   -6.6700   -2.4350 h1        1 O92      0.087333
     32 H122        0.4820   -7.3060   -0.9680 h1        1 O92      0.087333
     33 H123       -0.6940   -7.5490   -2.0290 h1        1 O92      0.087333
     34 H3         -0.7740   -5.5880   -0.3520 hn        1 O92      0.240000
     35 H41N       -4.7620   -5.0250   -0.8550 hn        1 O92      0.247000
     36 H42N       -3.6640   -5.6040   -1.8420 hn        1 O92      0.247000
     37 H2         -3.7820   -0.5730   -0.5820 ha        1 O92      0.180000
     38 H11        -0.6340   -0.0650    0.6830 ha        1 O92      0.173000
     39 H7         -1.7350    0.4440   -3.2180 ha        1 O92      0.160000
     40 H8         -0.6990    2.5600   -3.2330 ha        1 O92      0.159000
     41 H5          2.5240    2.9340    0.2230 hn        1 O92      0.257000
     42 H17         4.4570    4.1650    0.9880 ha        1 O92      0.183000
     43 H18         5.4930    5.4100    2.7020 ha        1 O92      0.149000
     44 H15         4.2920    5.9680    4.6530 ha        1 O92      0.157000
@<TRIPOS>BOND
     1    1    2 1   
     2    1   31 1   
     3    1   32 1   
     4    1   33 1   
     5    2    3 1   
     6    2   34 1   
     7    3    4 1   
     8    3    5 1   
     9    5    6 1   
    10    5    7 1   
    11    6   11 1   
    12    7    9 1   
    13    8   35 1   
    14    8   36 1   
    15    9   10 1   
    16   10   37 1   
    17   11   12 1   
    18   12   13 1   
    19   12   14 1   
    20   13   18 1   
    21   13   38 1   
    22   14   39 1   
    23   15   16 1   
    24   15   40 1   
    25   16   18 1   
    26   18   19 1   
    27   19   20 1   
    28   19   21 1   
    29   22   23 1   
    30   22   41 1   
    31   23   24 1   
    32   23   29 1   
    33   24   25 1   
    34   24   42 1   
    35   25   43 1   
    36   26   27 1   
    37   26   44 1   
    38   27   29 1   
    39   29   30 1   
@<TRIPOS>SUBSTRUCTURE
     1 O92         1 TEMP              0 ****  ****    0 ROOT
