@<TRIPOS>MOLECULE
O92
   47    49     1     0     0
SMALL
bcc


@<TRIPOS>ATOM
      1 C12        -0.3860    1.3400   -0.5220 c3        1 O92      0.077100
      2 N3          1.0690    1.0260   -0.4300 n4        1 O92     -0.636800
      3 C6          1.5940    1.0760    0.9680 c         1 O92      0.453600
      4 O1          0.8150    1.3610    1.8720 o         1 O92     -0.421100
      5 C4          3.0400    0.7740    1.1980 ca        1 O92      0.263500
      6 N2          3.8120    0.4560    0.1180 nb        1 O92     -0.640000
      7 C3          3.5980    0.8100    2.5100 ca        1 O92      0.424900
      8 N4          2.8240    1.1660    3.7120 n4        1 O92     -0.821300
      9 N1          4.9230    0.5170    2.7180 nb        1 O92     -0.581000
     10 C2          5.6630    0.2090    1.6570 ca        1 O92      0.394900
     11 C1          5.1170    0.1730    0.3130 cp        1 O92      0.458500
     12 C5          6.0090   -0.1380   -0.8100 cp        1 O92     -0.230500
     13 C11         7.0670   -1.0340   -0.6420 ca        1 O92      0.033000
     14 C7          5.8410    0.4980   -2.0580 ca        1 O92      0.019000
     15 C8          6.7300    0.2410   -3.0920 ca        1 O92     -0.130000
     16 C9          7.8060   -0.6400   -2.9040 ca        1 O92      0.164400
     17 CL1         8.8550   -0.9030   -4.1910 cl        1 O92      0.044600
     18 C10         8.0050   -1.2870   -1.6650 ca        1 O92     -0.460500
     19 S1          9.3520   -2.1860   -1.2460 sy        1 O92      1.438200
     20 O2         10.5270   -1.5800   -1.6070 o         1 O92     -0.534300
     21 O3          9.1410   -2.7560   -0.0000 o         1 O92     -0.534300
     22 N5          9.1330   -3.6320   -2.3910 n4        1 O92     -0.570300
     23 C14        10.3740   -4.3990   -2.4530 ca        1 O92     -0.113400
     24 C17        10.7660   -5.1970   -1.3610 ca        1 O92     -0.104000
     25 C18        11.9510   -5.9230   -1.4280 ca        1 O92     -0.080000
     26 C15        12.7550   -5.8930   -2.5650 ca        1 O92     -0.071000
     27 C16        12.3730   -5.1200   -3.6770 ca        1 O92      0.154900
     28 F2         13.1290   -5.0820   -4.7880 f         1 O92     -0.068900
     29 C13        11.1640   -4.3730   -3.6330 ca        1 O92      0.121900
     30 F1         10.7720   -3.6450   -4.7000 f         1 O92     -0.108900
     31 H121       -0.5770    2.3760   -0.1270 hx        1 O92      0.135367
     32 H122       -0.9740    0.5980    0.0850 hx        1 O92      0.135367
     33 H123       -0.6920    1.2800   -1.6050 hx        1 O92      0.135367
     34 H3          1.6000    1.7000   -1.0040 hn        1 O92      0.488300
     35 H41N        2.5520    2.1610    3.6630 hn        1 O92      0.501800
     36 H42N        1.9690    0.5900    3.7600 hn        1 O92      0.501800
     37 H2          6.7380   -0.0050    1.8590 h4        1 O92      0.108100
     38 H11         7.1880   -1.5660    0.3240 ha        1 O92      0.178000
     39 H7          5.0190    1.2160   -2.2200 ha        1 O92      0.168000
     40 H8          6.6000    0.7470   -4.0700 ha        1 O92      0.209000
     41 H5          8.3990   -4.2630   -2.0570 hn        1 O92      0.468300
     42 H17        10.1500   -5.2500   -0.4460 ha        1 O92      0.171000
     43 H18        12.2580   -6.5400   -0.5630 ha        1 O92      0.193000
     44 H15        13.6960   -6.4740   -2.6110 ha        1 O92      0.207000
     45 H32         1.2390    0.0810   -0.8120 hn        1 O92      0.488300
     46 H43         3.3840    1.0150    4.5730 hn        1 O92      0.501800
     47 H52         8.8860   -3.3560   -3.3480 hn        1 O92      0.468300
@<TRIPOS>BOND
     1    1    2 1   
     2    1   31 1   
     3    1   32 1   
     4    1   33 1   
     5    2    3 1   
     6    2   34 1   
     7    2   45 1   
     8    3    4 2   
     9    3    5 1   
    10    5    6 ar  
    11    5    7 ar  
    12    6   11 ar  
    13    7    8 1   
    14    7    9 ar  
    15    8   35 1   
    16    8   36 1   
    17    8   46 1   
    18    9   10 ar  
    19   10   11 ar  
    20   10   37 1   
    21   11   12 1   
    22   12   13 ar  
    23   12   14 ar  
    24   13   18 ar  
    25   13   38 1   
    26   14   15 ar  
    27   14   39 1   
    28   15   16 ar  
    29   15   40 1   
    30   16   17 1   
    31   16   18 ar  
    32   18   19 1   
    33   19   20 2   
    34   19   21 2   
    35   19   22 1   
    36   22   23 1   
    37   22   41 1   
    38   22   47 1   
    39   23   24 ar  
    40   23   29 ar  
    41   24   25 ar  
    42   24   42 1   
    43   25   26 ar  
    44   25   43 1   
    45   26   27 ar  
    46   26   44 1   
    47   27   28 1   
    48   27   29 ar  
    49   29   30 1   
@<TRIPOS>SUBSTRUCTURE
     1 O92         1 TEMP              0 ****  ****    0 ROOT
