@<TRIPOS>MOLECULE
O92
   45    47     1     0     0
SMALL
bcc


@<TRIPOS>ATOM
      1 C12         0.3170   -1.3340   -0.2080 c3        1 O92      0.084100
      2 N3          1.7190   -0.8690   -0.2540 n4        1 O92     -0.651800
      3 C6          2.1560   -0.1420    1.0110 c         1 O92      0.483600
      4 O1          1.2850   -0.0350    1.8740 o         1 O92     -0.493100
      5 C4          3.5300    0.3230    1.0420 ca        1 O92      0.048500
      6 N2          4.3120    0.1120   -0.0770 nb        1 O92     -0.629000
      7 C3          4.0610    0.9830    2.2200 ca        1 O92      0.683900
      8 N4          3.3390    1.2280    3.3340 nh        1 O92     -0.895500
      9 N1          5.4110    1.3940    2.2130 nb        1 O92     -0.682000
     10 C2          6.1190    1.1650    1.1350 ca        1 O92      0.425900
     11 C1          5.5730    0.5110   -0.0570 cp        1 O92      0.344500
     12 C5          6.4640    0.3210   -1.2090 cp        1 O92     -0.200500
     13 C11         7.7670   -0.1380   -1.0020 ca        1 O92     -0.005000
     14 C7          6.0300    0.6070   -2.5110 ca        1 O92     -0.035000
     15 C8          6.8980    0.4370   -3.5830 ca        1 O92     -0.148000
     16 C9          8.2050   -0.0200   -3.3600 ca        1 O92      0.145400
     17 CL1         9.2210   -0.2150   -4.6990 cl        1 O92     -0.031400
     18 C10         8.6610   -0.3080   -2.0660 ca        1 O92     -0.345500
     19 S1         10.2650   -0.7990   -1.6700 sy        1 O92      1.510200
     20 O2         11.1570    0.1620   -2.1620 o         1 O92     -0.631800
     21 O3         10.2730   -1.0240   -0.2790 o         1 O92     -0.631800
     22 N5         10.4480   -2.1730   -2.5060 nh        1 O92     -0.775500
     23 C14        10.0520   -3.4680   -2.1310 ca        1 O92      0.137600
     24 C17        10.1900   -3.9340   -0.8080 ca        1 O92     -0.151000
     25 C18         9.8080   -5.2270   -0.4670 ca        1 O92     -0.096000
     26 C15         9.2900   -6.1020   -1.4150 ca        1 O92     -0.153000
     27 C16         9.1450   -5.6730   -2.7430 ca        1 O92      0.116900
     28 F2          8.6420   -6.5060   -3.6810 f         1 O92     -0.117900
     29 C13         9.5200   -4.3560   -3.1120 ca        1 O92      0.056900
     30 F1          9.3860   -3.9640   -4.4010 f         1 O92     -0.123900
     31 H121        0.1820   -2.0380    0.6570 hx        1 O92      0.110033
     32 H122        0.0730   -1.8570   -1.1720 hx        1 O92      0.110033
     33 H123       -0.3670   -0.4540   -0.0640 hx        1 O92      0.110033
     34 H3          2.3470   -1.6710   -0.3920 hn        1 O92      0.467800
     35 H41N        2.3810    0.9630    3.3940 hn        1 O92      0.477800
     36 H42N        3.7550    1.6850    4.1190 hn        1 O92      0.477800
     37 H2          7.1790    1.4970    1.1460 h4        1 O92      0.077100
     38 H11         8.1090   -0.3770    0.0250 ha        1 O92      0.173000
     39 H7          5.0080    0.9760   -2.6900 ha        1 O92      0.143000
     40 H8          6.5620    0.6670   -4.6070 ha        1 O92      0.169000
     41 H5         10.8350   -2.1470   -3.4280 hn        1 O92      0.474800
     42 H17        10.6050   -3.2720   -0.0260 ha        1 O92      0.179000
     43 H18         9.9320   -5.5670    0.5740 ha        1 O92      0.154000
     44 H15         9.0000   -7.1290   -1.1450 ha        1 O92      0.164000
     45 H32         1.8480   -0.2300   -1.0480 hn        1 O92      0.467800
@<TRIPOS>BOND
     1    1    2 1   
     2    1   31 1   
     3    1   32 1   
     4    1   33 1   
     5    2    3 1   
     6    2   34 1   
     7    2   45 1   
     8    3    4 2   
     9    3    5 1   
    10    5    6 ar  
    11    5    7 ar  
    12    6   11 ar  
    13    7    8 1   
    14    7    9 ar  
    15    8   35 1   
    16    8   36 1   
    17    9   10 ar  
    18   10   11 ar  
    19   10   37 1   
    20   11   12 1   
    21   12   13 ar  
    22   12   14 ar  
    23   13   18 ar  
    24   13   38 1   
    25   14   15 ar  
    26   14   39 1   
    27   15   16 ar  
    28   15   40 1   
    29   16   17 1   
    30   16   18 ar  
    31   18   19 1   
    32   19   20 2   
    33   19   21 2   
    34   19   22 1   
    35   22   23 1   
    36   22   41 1   
    37   23   24 ar  
    38   23   29 ar  
    39   24   25 ar  
    40   24   42 1   
    41   25   26 ar  
    42   25   43 1   
    43   26   27 ar  
    44   26   44 1   
    45   27   28 1   
    46   27   29 ar  
    47   29   30 1   
@<TRIPOS>SUBSTRUCTURE
     1 O92         1 TEMP              0 ****  ****    0 ROOT
