@<TRIPOS>MOLECULE
O92
   44    46     1     0     0
SMALL
bcc


@<TRIPOS>ATOM
      1 C12         6.6970    0.1380   -3.1000 c3        1 O92      0.072300
      2 N3          5.8670   -0.1620   -1.9740 n         1 O92     -0.542900
      3 C6          5.7090    0.7180   -0.9290 c         1 O92      0.587600
      4 O1          6.3870    1.7670   -0.8510 o         1 O92     -0.635100
      5 C4          4.7250    0.3570    0.1510 ca        1 O92      0.166500
      6 N2          3.5660   -0.2270   -0.2080 nb        1 O92     -0.582000
      7 C3          5.0220    0.6840    1.5370 ca        1 O92      0.615900
      8 N4          6.2350    1.1960    1.9170 nh        1 O92     -0.931500
      9 N1          4.0780    0.4040    2.5150 nb        1 O92     -0.712000
     10 C2          2.9420   -0.1650    2.1220 ca        1 O92      0.378900
     11 C1          2.6590   -0.4940    0.7580 cp        1 O92      0.256500
     12 C5          1.3780   -1.1210    0.4130 cp        1 O92     -0.141500
     13 C11         0.2090   -0.7170    1.0630 ca        1 O92     -0.016000
     14 C7          1.3070   -2.1230   -0.5640 ca        1 O92     -0.032000
     15 C8          0.0830   -2.7110   -0.8710 ca        1 O92     -0.152000
     16 C9         -1.0750   -2.3000   -0.2040 ca        1 O92      0.131400
     17 CL1        -2.5450   -3.0430   -0.6200 cl        1 O92     -0.067400
     18 C10        -1.0340   -1.3010    0.7790 ca        1 O92     -0.371500
     19 S1         -2.3720   -0.7700    1.6870 sy        1 O92      1.514200
     20 O2         -2.9740   -1.8620    2.3340 o         1 O92     -0.639800
     21 O3         -1.9310    0.2770    2.5210 o         1 O92     -0.639800
     22 N5         -3.4100   -0.2310    0.5500 nh        1 O92     -0.766500
     23 C14        -3.3830    0.9700   -0.1700 ca        1 O92      0.166600
     24 C17        -2.7640    2.1330    0.3350 ca        1 O92     -0.173000
     25 C18        -2.7480    3.3100   -0.4060 ca        1 O92     -0.087000
     26 C15        -3.3520    3.3890   -1.6550 ca        1 O92     -0.167000
     27 C16        -3.9910    2.2570   -2.1820 ca        1 O92      0.122900
     28 F2         -4.5920    2.3110   -3.3920 f         1 O92     -0.123900
     29 C13        -4.0100    1.0420   -1.4500 ca        1 O92      0.042900
     30 F1         -4.6400   -0.0360   -1.9740 f         1 O92     -0.128900
     31 H121        7.4160    0.9630   -2.8450 h1        1 O92      0.048367
     32 H122        7.2760   -0.7810   -3.3840 h1        1 O92      0.048367
     33 H123        6.0770    0.4610   -3.9800 h1        1 O92      0.048367
     34 H3          5.2360   -0.9220   -2.0690 hn        1 O92      0.323500
     35 H41N        6.8070    1.6100    1.2140 hn        1 O92      0.451800
     36 H42N        6.3560    1.5040    2.8530 hn        1 O92      0.451800
     37 H2          2.2070   -0.3810    2.9210 h4        1 O92      0.042100
     38 H11         0.2580    0.0880    1.8220 ha        1 O92      0.171000
     39 H7          2.2160   -2.4490   -1.0930 ha        1 O92      0.155000
     40 H8          0.0290   -3.4990   -1.6390 ha        1 O92      0.159000
     41 H5         -4.1420   -0.8420    0.2440 hn        1 O92      0.467800
     42 H17        -2.2890    2.1240    1.3330 ha        1 O92      0.180000
     43 H18        -2.2520    4.2000    0.0130 ha        1 O92      0.149000
     44 H15        -3.3400    4.3230   -2.2360 ha        1 O92      0.158000
@<TRIPOS>BOND
     1    1    2 1   
     2    1   31 1   
     3    1   32 1   
     4    1   33 1   
     5    2    3 1   
     6    2   34 1   
     7    3    4 2   
     8    3    5 1   
     9    5    6 ar  
    10    5    7 ar  
    11    6   11 ar  
    12    7    8 1   
    13    7    9 ar  
    14    8   35 1   
    15    8   36 1   
    16    9   10 ar  
    17   10   11 ar  
    18   10   37 1   
    19   11   12 1   
    20   12   13 ar  
    21   12   14 ar  
    22   13   18 ar  
    23   13   38 1   
    24   14   15 ar  
    25   14   39 1   
    26   15   16 ar  
    27   15   40 1   
    28   16   17 1   
    29   16   18 ar  
    30   18   19 1   
    31   19   20 2   
    32   19   21 2   
    33   19   22 1   
    34   22   23 1   
    35   22   41 1   
    36   23   24 ar  
    37   23   29 ar  
    38   24   25 ar  
    39   24   42 1   
    40   25   26 ar  
    41   25   43 1   
    42   26   27 ar  
    43   26   44 1   
    44   27   28 1   
    45   27   29 ar  
    46   29   30 1   
@<TRIPOS>SUBSTRUCTURE
     1 O92         1 TEMP              0 ****  ****    0 ROOT
