@<TRIPOS>MOLECULE
O92
   45    47     1     0     0
SMALL
bcc


@<TRIPOS>ATOM
      1 C12         0.3120   -1.3340   -0.2490 c3        1 O92      0.084100
      2 N3          1.7150   -0.8690   -0.2860 ny        1 O92     -0.651800
      3 C6          2.1430   -0.1390    0.9800 c         1 O92      0.483600
      4 O1          1.2670   -0.0310    1.8370 o         1 O92     -0.493100
      5 C4          3.5170    0.3260    1.0200 ca        1 O92      0.048500
      6 N2          4.3070    0.1120   -0.0940 nb        1 O92     -0.629000
      7 C3          4.0400    0.9880    2.2000 ca        1 O92      0.683900
      8 N4          3.3100    1.2360    3.3090 nv        1 O92     -0.895500
      9 N1          5.3900    1.3990    2.2010 nb        1 O92     -0.682000
     10 C2          6.1050    1.1680    1.1280 ca        1 O92      0.425900
     11 C1          5.5680    0.5110   -0.0660 cp        1 O92      0.344500
     12 C5          6.4660    0.3190   -1.2110 cp        1 O92     -0.200500
     13 C11         7.7680   -0.1390   -0.9940 ca        1 O92     -0.005000
     14 C7          6.0410    0.6020   -2.5170 ca        1 O92     -0.035000
     15 C8          6.9170    0.4300   -3.5820 ca        1 O92     -0.148000
     16 C9          8.2220   -0.0260   -3.3500 ca        1 O92      0.145400
     17 Cl1         9.2470   -0.2230   -4.6820 cl        1 O92     -0.031400
     18 C10         8.6690   -0.3120   -2.0520 ca        1 O92     -0.345500
     19 S1         10.2710   -0.8010   -1.6450 sy        1 O92      1.510200
     20 O2         11.1660    0.1590   -2.1320 o         1 O92     -0.631800
     21 O3         10.2690   -1.0240   -0.2530 o         1 O92     -0.631800
     22 N5         10.4590   -2.1770   -2.4760 nu        1 O92     -0.775500
     23 C14        10.0610   -3.4720   -2.1020 ca        1 O92      0.137600
     24 C17        10.1900   -3.9350   -0.7770 ca        1 O92     -0.151000
     25 C18         9.8050   -5.2280   -0.4360 ca        1 O92     -0.096000
     26 C15         9.2930   -6.1040   -1.3860 ca        1 O92     -0.153000
     27 C16         9.1570   -5.6780   -2.7160 ca        1 O92      0.116900
     28 F2          8.6610   -6.5130   -3.6560 f         1 O92     -0.117900
     29 C13         9.5360   -4.3610   -3.0840 ca        1 O92      0.056900
     30 F1          9.4100   -3.9720   -4.3750 f         1 O92     -0.123900
     31 H121        0.1720   -2.0360    0.6160 hx        1 O92      0.110033
     32 H122       -0.3720   -0.4530   -0.1110 hx        1 O92      0.110033
     33 H123        0.0760   -1.8580   -1.2140 hx        1 O92      0.110033
     34 H3          2.3440   -1.6710   -0.4190 hn        1 O92      0.467800
     35 H41N        3.7210    1.6940    4.0950 hn        1 O92      0.477800
     36 H42N        2.3520    0.9710    3.3620 hn        1 O92      0.477800
     37 H2          7.1650    1.4990    1.1460 h4        1 O92      0.077100
     38 H11         8.1030   -0.3760    0.0350 ha        1 O92      0.173000
     39 H7          5.0210    0.9710   -2.7030 ha        1 O92      0.143000
     40 H8          6.5870    0.6580   -4.6100 ha        1 O92      0.169000
     41 H5         10.8530   -2.1530   -3.3960 hn        1 O92      0.474800
     42 H17        10.5990   -3.2710    0.0060 ha        1 O92      0.179000
     43 H18         9.9220   -5.5650    0.6060 ha        1 O92      0.154000
     44 H15         9.0020   -7.1300   -1.1150 ha        1 O92      0.164000
     45 H32         1.8490   -0.2310   -1.0810 hn        1 O92      0.467800
@<TRIPOS>BOND
     1    1    2 1   
     2    1   31 1   
     3    1   32 1   
     4    1   33 1   
     5    2    3 1   
     6    2   34 1   
     7    2   45 1   
     8    3    4 2   
     9    3    5 1   
    10    5    6 ar  
    11    5    7 ar  
    12    6   11 ar  
    13    7    8 1   
    14    7    9 ar  
    15    8   35 1   
    16    8   36 1   
    17    9   10 ar  
    18   10   11 ar  
    19   10   37 1   
    20   11   12 1   
    21   12   13 ar  
    22   12   14 ar  
    23   13   18 ar  
    24   13   38 1   
    25   14   15 ar  
    26   14   39 1   
    27   15   16 ar  
    28   15   40 1   
    29   16   17 1   
    30   16   18 ar  
    31   18   19 1   
    32   19   20 2   
    33   19   21 2   
    34   19   22 1   
    35   22   23 1   
    36   22   41 1   
    37   23   24 ar  
    38   23   29 ar  
    39   24   25 ar  
    40   24   42 1   
    41   25   26 ar  
    42   25   43 1   
    43   26   27 ar  
    44   26   44 1   
    45   27   28 1   
    46   27   29 ar  
    47   29   30 1   
@<TRIPOS>SUBSTRUCTURE
     1 O92         1 TEMP              0 ****  ****    0 ROOT
