@<TRIPOS>MOLECULE
O95
   45    48     1     0     0
SMALL
bcc


@<TRIPOS>ATOM
      1 N3         -0.6800    0.7830    0.2150 nu        1 O95     -0.444100
      2 O4          0.2130    1.7200   -0.1300 oh        1 O95     -0.417300
      3 C16        -0.7090    0.5120    1.6320 ca        1 O95      0.084600
      4 C1         -1.7470   -0.2950    2.1440 ca        1 O95     -0.032300
      5 C20        -2.8400   -0.7220    1.2350 c3        1 O95     -0.071800
      6 C2         -1.7210   -0.6790    3.5040 ca        1 O95     -0.150300
      7 C3         -2.8280   -1.5600    4.0910 c3        1 O95      0.689200
      8 F2         -2.6810   -1.8530    5.4260 f         1 O95     -0.234967
      9 F1         -4.0900   -1.0180    4.0190 f         1 O95     -0.234967
     10 F          -2.9520   -2.7950    3.5030 f         1 O95     -0.234967
     11 C4         -0.7080   -0.2850    4.3630 ca        1 O95     -0.033000
     12 C5          0.3240    0.5340    3.8690 ca        1 O95      0.075400
     13 C15         0.3200    0.9450    2.4940 ca        1 O95     -0.103100
     14 N20         1.4000    1.0160    4.6230 nc        1 O95     -0.471100
     15 C6          2.1720    1.7630    3.8380 cd        1 O95      0.287900
     16 S1          1.6550    1.9290    2.1990 ss        1 O95      0.132900
     17 C7          3.3760    2.4330    4.3250 cf        1 O95      0.567300
     18 O1          4.4370    2.4880    3.4020 os        1 O95     -0.448400
     19 C14         5.5280    3.1800    4.0620 c3        1 O95      0.101400
     20 C8          4.9700    3.5120    5.4810 c3        1 O95      0.010500
     21 N1          3.6020    2.9810    5.4900 n2        1 O95     -0.579900
     22 C9          5.0640    5.0140    5.7770 c         1 O95      0.671100
     23 O20         5.6960    5.7650    5.0030 o         1 O95     -0.618100
     24 N2          4.4550    5.5150    6.9000 n         1 O95     -0.452800
     25 C13         4.6550    6.8960    7.3110 c3        1 O95      0.091500
     26 C12         4.2670    6.9970    8.7950 c3        1 O95     -0.092900
     27 C11         3.7850    5.6110    9.2130 c3        1 O95     -0.092900
     28 C10         3.8560    4.7230    7.9570 c3        1 O95      0.091500
     29 H1         -1.6000    1.1370   -0.0580 hn        1 O95      0.391800
     30 H2          0.9160    1.2310   -0.6040 ho        1 O95      0.436000
     31 H3         -3.3810    0.1730    0.8340 hc        1 O95      0.060700
     32 H4         -2.4230   -1.3030    0.3720 hc        1 O95      0.060700
     33 H5         -3.5930   -1.3700    1.7460 hc        1 O95      0.060700
     34 H6         -0.6990   -0.5980    5.4210 ha        1 O95      0.177000
     35 H8          5.7620    4.0900    3.4560 h1        1 O95      0.090200
     36 H9          6.3880    2.4720    4.0990 h1        1 O95      0.090200
     37 H10         5.5650    2.9740    6.2730 h1        1 O95      0.097700
     38 H13         5.7250    7.1970    7.1430 h1        1 O95      0.057700
     39 H14         4.0070    7.5620    6.6790 h1        1 O95      0.057700
     40 H15         3.4620    7.7590    8.9310 hc        1 O95      0.053200
     41 H16         5.1470    7.3150    9.4050 hc        1 O95      0.053200
     42 H17         2.7370    5.6480    9.5970 hc        1 O95      0.053200
     43 H18         4.4320    5.1910   10.0210 hc        1 O95      0.053200
     44 H19         2.8230    4.4030    7.6470 h1        1 O95      0.057700
     45 H20         4.4650    3.7990    8.1530 h1        1 O95      0.057700
@<TRIPOS>BOND
     1    1    2 1   
     2    1    3 1   
     3    1   29 1   
     4    2   30 1   
     5    3    4 ar  
     6    3   13 ar  
     7    4    5 1   
     8    4    6 ar  
     9    5   31 1   
    10    5   32 1   
    11    5   33 1   
    12    6    7 1   
    13    6   11 ar  
    14    7    8 1   
    15    7    9 1   
    16    7   10 1   
    17   11   12 ar  
    18   11   34 1   
    19   12   13 ar  
    20   12   14 1   
    21   13   16 1   
    22   14   15 2   
    23   15   16 1   
    24   15   17 1   
    25   17   18 1   
    26   17   21 2   
    27   18   19 1   
    28   19   20 1   
    29   19   35 1   
    30   19   36 1   
    31   20   21 1   
    32   20   22 1   
    33   20   37 1   
    34   22   23 2   
    35   22   24 1   
    36   24   25 1   
    37   24   28 1   
    38   25   26 1   
    39   25   38 1   
    40   25   39 1   
    41   26   27 1   
    42   26   40 1   
    43   26   41 1   
    44   27   28 1   
    45   27   42 1   
    46   27   43 1   
    47   28   44 1   
    48   28   45 1   
@<TRIPOS>SUBSTRUCTURE
     1 O95         1 TEMP              0 ****  ****    0 ROOT
