@<TRIPOS>MOLECULE
O95
   45    48     1     0     0
SMALL
bcc


@<TRIPOS>ATOM
      1 N3         -0.6630    0.7810    0.2100 nh        1 O95     -0.444100
      2 O4          0.2340    1.7150   -0.1330 oh        1 O95     -0.417300
      3 C16        -0.7000    0.5120    1.6260 ca        1 O95      0.084600
      4 C1         -1.7420   -0.2930    2.1340 ca        1 O95     -0.032300
      5 C20        -2.8320   -0.7180    1.2200 c3        1 O95     -0.071800
      6 C2         -1.7240   -0.6750    3.4950 ca        1 O95     -0.150300
      7 C3         -2.8360   -1.5520    4.0770 c3        1 O95      0.689200
      8 F2         -2.6950   -1.8440    5.4130 f         1 O95     -0.234967
      9 F1         -4.0950   -1.0070    3.9990 f         1 O95     -0.234967
     10 F          -2.9600   -2.7880    3.4900 f         1 O95     -0.234967
     11 C4         -0.7130   -0.2830    4.3580 ca        1 O95     -0.033000
     12 C5          0.3230    0.5330    3.8680 ca        1 O95      0.075400
     13 C15         0.3260    0.9430    2.4930 ca        1 O95     -0.103100
     14 N20         1.3970    1.0140    4.6270 nc        1 O95     -0.471100
     15 C6          2.1750    1.7570    3.8450 cd        1 O95      0.287900
     16 S1          1.6660    1.9220    2.2030 ss        1 O95      0.132900
     17 C7          3.3780    2.4240    4.3370 cf        1 O95      0.567300
     18 O1          4.4460    2.4710    3.4200 os        1 O95     -0.448400
     19 C14         5.5350    3.1610    4.0850 c3        1 O95      0.101400
     20 C8          4.9680    3.5020    5.4970 c3        1 O95      0.010500
     21 N1          3.5980    2.9770    5.5000 n2        1 O95     -0.579900
     22 C9          5.0670    5.0050    5.7870 c         1 O95      0.671100
     23 O20         5.7080    5.7490    5.0150 o         1 O95     -0.618100
     24 N2          4.4530    5.5140    6.9030 n         1 O95     -0.452800
     25 C13         4.6560    6.8960    7.3100 c3        1 O95      0.091500
     26 C12         4.2580    7.0060    8.7900 c3        1 O95     -0.092900
     27 C11         3.7670    5.6250    9.2110 c3        1 O95     -0.092900
     28 C10         3.8430    4.7310    7.9600 c3        1 O95      0.091500
     29 H1         -1.5810    1.1370   -0.0690 hn        1 O95      0.391800
     30 H2          0.9380    1.2240   -0.6030 ho        1 O95      0.436000
     31 H3         -2.4130   -1.3000    0.3610 hc        1 O95      0.060700
     32 H4         -3.5890   -1.3620    1.7290 hc        1 O95      0.060700
     33 H5         -3.3690    0.1790    0.8160 hc        1 O95      0.060700
     34 H6         -0.7100   -0.5940    5.4170 ha        1 O95      0.177000
     35 H8          5.7770    4.0670    3.4760 h1        1 O95      0.090200
     36 H9          6.3920    2.4490    4.1310 h1        1 O95      0.090200
     37 H10         5.5560    2.9660    6.2970 h1        1 O95      0.097700
     38 H13         5.7290    7.1920    7.1470 h1        1 O95      0.057700
     39 H14         4.0160    7.5630    6.6690 h1        1 O95      0.057700
     40 H15         5.1360    7.3230    9.4040 hc        1 O95      0.053200
     41 H16         3.4560    7.7730    8.9160 hc        1 O95      0.053200
     42 H17         2.7160    5.6690    9.5870 hc        1 O95      0.053200
     43 H18         4.4060    5.2050   10.0260 hc        1 O95      0.053200
     44 H19         2.8100    4.4140    7.6440 h1        1 O95      0.057700
     45 H20         4.4450    3.8040    8.1650 h1        1 O95      0.057700
@<TRIPOS>BOND
     1    1    2 1   
     2    1    3 1   
     3    1   29 1   
     4    2   30 1   
     5    3    4 ar  
     6    3   13 ar  
     7    4    5 1   
     8    4    6 ar  
     9    5   31 1   
    10    5   32 1   
    11    5   33 1   
    12    6    7 1   
    13    6   11 ar  
    14    7    8 1   
    15    7    9 1   
    16    7   10 1   
    17   11   12 ar  
    18   11   34 1   
    19   12   13 ar  
    20   12   14 1   
    21   13   16 1   
    22   14   15 2   
    23   15   16 1   
    24   15   17 1   
    25   17   18 1   
    26   17   21 2   
    27   18   19 1   
    28   19   20 1   
    29   19   35 1   
    30   19   36 1   
    31   20   21 1   
    32   20   22 1   
    33   20   37 1   
    34   22   23 2   
    35   22   24 1   
    36   24   25 1   
    37   24   28 1   
    38   25   26 1   
    39   25   38 1   
    40   25   39 1   
    41   26   27 1   
    42   26   40 1   
    43   26   41 1   
    44   27   28 1   
    45   27   42 1   
    46   27   43 1   
    47   28   44 1   
    48   28   45 1   
@<TRIPOS>SUBSTRUCTURE
     1 O95         1 TEMP              0 ****  ****    0 ROOT
