@<TRIPOS>MOLECULE
O96
   49    50     1     0     0
SMALL
bcc


@<TRIPOS>ATOM
      1 N1          0.5320    0.4660    2.0290 nz        1 O96     -0.744400
      2 C4          1.6580   -0.0770    1.2020 c         1 O96      0.445100
      3 C5          2.6310   -0.9680    1.9620 c         1 O96      0.516100
      4 C6          4.0960   -0.7590    1.5950 c3        1 O96      0.055500
      5 N8          4.8970   -0.4340    2.8190 ny        1 O96     -0.697800
      6 C10         4.3940    0.7920    3.5620 c         1 O96      0.629700
      7 C11         5.3050    1.5210    4.4010 ca        1 O96     -0.297600
      8 C12         4.6840    2.2450    5.4610 ca        1 O96      0.029000
      9 C14         5.4200    2.9590    6.3710 ca        1 O96     -0.196000
     10 C16         6.8320    2.9990    6.2660 ca        1 O96      0.329100
     11 C17         7.4810    2.3210    5.1820 ca        1 O96     -0.211300
     12 C18         6.7160    1.6080    4.2700 ca        1 O96      0.151400
     13 Cl19        7.4910    0.8810    2.9310 cl        1 O96     -0.025400
     14 C20         9.0160    2.4130    5.0710 c3        1 O96      0.707200
     15 F21         9.4420    3.0270    3.9210 f         1 O96     -0.204967
     16 F22         9.6170    3.1150    6.0780 f         1 O96     -0.204967
     17 F23         9.6340    1.1890    5.0870 f         1 O96     -0.204967
     18 O24         7.6500    3.6820    7.0820 os        1 O96     -0.252900
     19 C25         7.1400    4.3180    8.2760 c3        1 O96      0.084100
     20 C28         6.9470    3.3380    9.3990 ca        1 O96      0.333600
     21 N29         6.2770    2.1820    9.1580 nb        1 O96     -0.709000
     22 C30         6.1130    1.3370   10.1880 ca        1 O96      0.403200
     23 C32         6.5890    1.5910   11.4910 ca        1 O96     -0.208300
     24 C34         7.2730    2.7820   11.7260 ca        1 O96     -0.074000
     25 C36         7.4640    3.6740   10.6650 ca        1 O96     -0.199300
     26 O38         3.1810    0.9950    3.3980 o         1 O96     -0.597100
     27 C39         4.6100   -2.0230    0.8840 c3        1 O96     -0.101400
     28 C42         6.0330   -1.8750    0.4160 c3        1 O96     -0.127100
     29 O46         2.2260   -1.7680    2.7920 o         1 O96     -0.397100
     30 O47         1.7140    0.2400    0.0290 o         1 O96     -0.332100
     31 HN1        -0.1240    1.0040    1.4440 hn        1 O96      0.492800
     32 HN1A        0.0270   -0.3110    2.4790 hn        1 O96      0.492800
     33 H6          4.1940    0.1260    0.8910 hx        1 O96      0.139700
     34 HN8         4.8700   -1.2350    3.4660 hn        1 O96      0.486300
     35 H12         3.5830    2.2150    5.5490 ha        1 O96      0.168000
     36 H14         4.9140    3.4790    7.2040 ha        1 O96      0.199000
     37 H25         7.9810    5.0340    8.5090 h1        1 O96      0.100200
     38 H25A        6.1990    4.8820    8.0480 h1        1 O96      0.100200
     39 H30         5.5690    0.4020    9.9620 h4        1 O96      0.026100
     40 H32         6.4230    0.8600   12.2950 ha        1 O96      0.168000
     41 H34         7.6640    3.0200   12.7280 ha        1 O96      0.168000
     42 H36         8.0090    4.6170   10.8190 ha        1 O96      0.162000
     43 H39         3.9400   -2.1920   -0.0050 hc        1 O96      0.101200
     44 H39A        4.5050   -2.9150    1.5590 hc        1 O96      0.101200
     45 H42         6.7570   -1.9040    1.2660 hc        1 O96      0.072033
     46 H42A        6.1790   -0.9290   -0.1600 hc        1 O96      0.072033
     47 H42B        6.2860   -2.7310   -0.2650 hc        1 O96      0.072033
     48 H13         0.9160    1.0800    2.7640 hn        1 O96      0.492800
     49 H82         5.8980   -0.2780    2.5330 hn        1 O96      0.486300
@<TRIPOS>BOND
     1    1    2 1   
     2    1   31 1   
     3    1   32 1   
     4    1   48 1   
     5    2    3 1   
     6    2   30 2   
     7    3    4 1   
     8    3   29 2   
     9    4    5 1   
    10    4   27 1   
    11    4   33 1   
    12    5    6 1   
    13    5   34 1   
    14    5   49 1   
    15    6    7 1   
    16    6   26 2   
    17    7    8 ar  
    18    7   12 ar  
    19    8    9 ar  
    20    8   35 1   
    21    9   10 ar  
    22    9   36 1   
    23   10   11 ar  
    24   10   18 1   
    25   11   12 ar  
    26   11   14 1   
    27   12   13 1   
    28   14   15 1   
    29   14   16 1   
    30   14   17 1   
    31   18   19 1   
    32   19   20 1   
    33   19   37 1   
    34   19   38 1   
    35   20   21 ar  
    36   20   25 ar  
    37   21   22 ar  
    38   22   23 ar  
    39   22   39 1   
    40   23   24 ar  
    41   23   40 1   
    42   24   25 ar  
    43   24   41 1   
    44   25   42 1   
    45   27   28 1   
    46   27   43 1   
    47   27   44 1   
    48   28   45 1   
    49   28   46 1   
    50   28   47 1   
@<TRIPOS>SUBSTRUCTURE
     1 O96         1 TEMP              0 ****  ****    0 ROOT
