@<TRIPOS>MOLECULE
O96
   47    44     1     0     0
SMALL
bcc


@<TRIPOS>ATOM
      1 N1         -3.7960    0.7320   -5.8600 n         1 O96     -0.410000
      2 C4         -2.7100   -0.0070   -5.3280 c2        1 O96      0.267000
      3 C5         -2.8290   -0.6510   -3.9660 c2        1 O96      0.199000
      4 C6         -1.9600   -1.8320   -3.6120 c3        1 O96     -0.004000
      5 N8         -1.3780   -1.6250   -2.3270 n         1 O96     -0.369000
      6 C10        -0.1100   -0.9840   -2.2140 c2        1 O96      0.354000
      7 C11         0.4180   -0.5770   -0.8460 c2        1 O96     -0.163000
      8 C12        -0.3210   -0.8600    0.2950 c1        1 O96     -0.011000
      9 C14         0.1310   -0.4370    1.5380 c2        1 O96     -0.222000
     10 C16         1.3230    0.2690    1.6400 c1        1 O96      0.163000
     11 C17         2.0620    0.5520    0.4990 c1        1 O96     -0.203000
     12 C18         1.6100    0.1290   -0.7440 c2        1 O96      0.036000
     13 CL19        2.5670    0.4300   -2.1680 cl        1 O96      0.036000
     14 C20         3.4020    1.2450    0.6190 c3        1 O96      0.486000
     15 F21         4.1830    0.5630    1.4660 f         1 O96     -0.158000
     16 F22         3.9880    1.2970   -0.5850 f         1 O96     -0.158000
     17 F23         3.2220    2.4880    1.0810 f         1 O96     -0.158000
     18 O24         1.8270    0.6220    2.9130 os        1 O96     -0.194000
     19 C25         1.0460    1.5860    3.5920 c3        1 O96      0.023000
     20 C28         1.6810    1.8940    4.9420 c2        1 O96     -0.039000
     21 N29         2.4720    0.9700    5.5490 n2        1 O96     -0.140000
     22 C30         3.0160    1.2320    6.7720 c1        1 O96     -0.069000
     23 C32         2.7620    2.4410    7.3970 c1        1 O96     -0.133000
     24 C34         1.9690    3.3690    6.7900 c1        1 O96     -0.133000
     25 C36         1.4260    3.1050    5.5670 c1        1 O96     -0.146000
     26 O38         0.5380   -0.7360   -3.2130 o         1 O96     -0.346000
     27 C39        -2.8020   -3.0900   -3.5890 c3        1 O96     -0.165000
     28 C42        -2.4780   -3.9370   -4.8010 c3        1 O96     -0.221000
     29 O46        -3.6540   -0.2450   -3.1730 o         1 O96     -0.261000
     30 O47        -1.6700   -0.0940   -5.9520 o         1 O96     -0.351000
     31 HN1        -4.4800    0.9960   -5.3140 hn        1 O96      0.236000
     32 HN1A       -3.7970    0.9730   -6.7420 hn        1 O96      0.236000
     33 H6         -1.2520   -1.9260   -4.2770 h1        1 O96      0.163000
     34 HN8        -1.8060   -1.9250   -1.5800 hn        1 O96      0.240000
     35 H12        -1.1560   -1.3550    0.2230 DU        1 O96      0.166000
     36 H14        -0.3880   -0.6360    2.3400 ha        1 O96      0.160000
     37 H25         1.0020    2.4040    3.0580 h1        1 O96      0.108000
     38 H25A        0.1420    1.2360    3.7290 h1        1 O96      0.108000
     39 H30         3.5840    0.5680    7.2060 ha        1 O96      0.162000
     40 H32         3.1520    2.6290    8.2740 ha        1 O96      0.145000
     41 H34         1.7890    4.2230    7.2310 ha        1 O96      0.145000
     42 H36         0.8590    3.7680    5.1330 ha        1 O96      0.170000
     43 H39        -2.6080   -3.5970   -2.7750 hc        1 O96      0.094500
     44 H39A       -3.7510   -2.8480   -3.6040 hc        1 O96      0.094500
     45 H42        -2.3930   -3.3610   -5.5890 hc        1 O96      0.087667
     46 H42A       -3.1970   -4.5870   -4.9470 hc        1 O96      0.087667
     47 H42B       -1.6340   -4.4110   -4.6510 hc        1 O96      0.087667
@<TRIPOS>BOND
     1    1    2 1   
     2    1   31 1   
     3    1   32 1   
     4    2    3 1   
     5    2   30 1   
     6    3    4 1   
     7    3   29 1   
     8    4    5 1   
     9    4   27 1   
    10    4   33 1   
    11    5    6 1   
    12    5   34 1   
    13    6    7 1   
    14    6   26 1   
    15    7    8 1   
    16    7   12 1   
    17    8    9 1   
    18    9   10 1   
    19    9   36 1   
    20   10   18 1   
    21   11   12 1   
    22   11   14 1   
    23   12   13 1   
    24   14   15 1   
    25   14   16 1   
    26   14   17 1   
    27   18   19 1   
    28   19   20 1   
    29   19   37 1   
    30   19   38 1   
    31   20   21 1   
    32   20   25 1   
    33   21   22 1   
    34   22   39 1   
    35   23   24 1   
    36   23   40 1   
    37   24   41 1   
    38   25   42 1   
    39   27   28 1   
    40   27   43 1   
    41   27   44 1   
    42   28   45 1   
    43   28   46 1   
    44   28   47 1   
@<TRIPOS>SUBSTRUCTURE
     1 O96         1 TEMP              0 ****  ****    0 ROOT
