@<TRIPOS>MOLECULE
O96
   49    50     1     0     0
SMALL
bcc


@<TRIPOS>ATOM
      1 N1          0.5560    0.6540    1.9530 n4        1 O96     -0.744400
      2 C4          1.6730    0.0660    1.1440 c         1 O96      0.445100
      3 C5          2.5990   -0.8600    1.9200 c         1 O96      0.516100
      4 C6          4.0760   -0.7090    1.5760 c3        1 O96      0.055500
      5 N8          4.8700   -0.4140    2.8120 n4        1 O96     -0.697800
      6 C10         4.4040    0.8320    3.5460 c         1 O96      0.629700
      7 C11         5.3290    1.5260    4.3990 ca        1 O96     -0.297600
      8 C12         4.7200    2.2750    5.4480 ca        1 O96      0.029000
      9 C14         5.4700    2.9620    6.3690 ca        1 O96     -0.196000
     10 C16         6.8840    2.9460    6.2870 ca        1 O96      0.329100
     11 C17         7.5220    2.2420    5.2130 ca        1 O96     -0.211300
     12 C18         6.7440    1.5580    4.2890 ca        1 O96      0.151400
     13 CL19        7.5110    0.8000    2.9630 cl        1 O96     -0.025400
     14 C20         9.0620    2.2740    5.1250 c3        1 O96      0.707200
     15 F21         9.5290    2.8700    3.9820 f         1 O96     -0.204967
     16 F22         9.6740    2.9530    6.1410 f         1 O96     -0.204967
     17 F23         9.6310    1.0270    5.1530 f         1 O96     -0.204967
     18 O24         7.7140    3.5970    7.1140 os        1 O96     -0.252900
     19 C25         7.2110    4.2540    8.3000 c3        1 O96      0.084100
     20 C28         6.9630    3.2840    9.4200 ca        1 O96      0.333600
     21 N29         6.2520    2.1540    9.1680 nb        1 O96     -0.709000
     22 C30         6.0390    1.3170   10.1970 ca        1 O96      0.403200
     23 C32         6.5050    1.5530   11.5070 ca        1 O96     -0.208300
     24 C34         7.2300    2.7170   11.7520 ca        1 O96     -0.074000
     25 C36         7.4720    3.6010   10.6940 ca        1 O96     -0.199300
     26 O38         3.2020    1.0820    3.3630 o         1 O96     -0.597100
     27 C39         4.5510   -1.9940    0.8750 c3        1 O96     -0.101400
     28 C42         5.9860   -1.9030    0.4290 c3        1 O96     -0.127100
     29 O46         2.1490   -1.6420    2.7450 o         1 O96     -0.397100
     30 O47         1.7600    0.3790   -0.0280 o         1 O96     -0.332100
     31 HN1         0.9530    1.2540    2.6930 hn        1 O96      0.492800
     32 HN1A        0.0140   -0.1020    2.3960 hn        1 O96      0.492800
     33 H6          4.2190    0.1700    0.8730 hx        1 O96      0.139700
     34 HN8         4.8010   -1.2120    3.4600 hn        1 O96      0.486300
     35 H12         3.6180    2.2880    5.5190 ha        1 O96      0.168000
     36 H14         4.9710    3.5020    7.1930 ha        1 O96      0.199000
     37 H25         6.2970    4.8540    8.0570 h1        1 O96      0.100200
     38 H25A        8.0760    4.9370    8.5460 h1        1 O96      0.100200
     39 H30         5.4630    0.4040    9.9620 h4        1 O96      0.026100
     40 H32         6.2970    0.8300   12.3090 ha        1 O96      0.168000
     41 H34         7.6140    2.9410   12.7600 ha        1 O96      0.168000
     42 H36         8.0510    4.5220   10.8560 ha        1 O96      0.162000
     43 H39         4.4010   -2.8800    1.5490 hc        1 O96      0.101200
     44 H39A        3.8890   -2.1380   -0.0250 hc        1 O96      0.101200
     45 H42         6.6950   -1.9580    1.2900 hc        1 O96      0.072033
     46 H42A        6.1780   -0.9640   -0.1460 hc        1 O96      0.072033
     47 H42B        6.2160   -2.7680   -0.2470 hc        1 O96      0.072033
     48 H13        -0.0690    1.2170    1.3570 hn        1 O96      0.492800
     49 H82         5.8800   -0.2970    2.5420 hn        1 O96      0.486300
@<TRIPOS>BOND
     1    1    2 1   
     2    1   31 1   
     3    1   32 1   
     4    1   48 1   
     5    2    3 1   
     6    2   30 2   
     7    3    4 1   
     8    3   29 2   
     9    4    5 1   
    10    4   27 1   
    11    4   33 1   
    12    5    6 1   
    13    5   34 1   
    14    5   49 1   
    15    6    7 1   
    16    6   26 2   
    17    7    8 ar  
    18    7   12 ar  
    19    8    9 ar  
    20    8   35 1   
    21    9   10 ar  
    22    9   36 1   
    23   10   11 ar  
    24   10   18 1   
    25   11   12 ar  
    26   11   14 1   
    27   12   13 1   
    28   14   15 1   
    29   14   16 1   
    30   14   17 1   
    31   18   19 1   
    32   19   20 1   
    33   19   37 1   
    34   19   38 1   
    35   20   21 ar  
    36   20   25 ar  
    37   21   22 ar  
    38   22   23 ar  
    39   22   39 1   
    40   23   24 ar  
    41   23   40 1   
    42   24   25 ar  
    43   24   41 1   
    44   25   42 1   
    45   27   28 1   
    46   27   43 1   
    47   27   44 1   
    48   28   45 1   
    49   28   46 1   
    50   28   47 1   
@<TRIPOS>SUBSTRUCTURE
     1 O96         1 TEMP              0 ****  ****    0 ROOT
