@<TRIPOS>MOLECULE
O96
   49    50     1     0     0
SMALL
bcc


@<TRIPOS>ATOM
      1 N1          0.5910    0.6500    1.8960 n4        1 O96     -0.744400
      2 C4          1.7120    0.0350    1.1140 c         1 O96      0.445100
      3 C5          2.6170   -0.8860    1.9200 c         1 O96      0.516100
      4 C6          4.1010   -0.7580    1.5940 c3        1 O96      0.055500
      5 N8          4.8810   -0.4470    2.8350 n4        1 O96     -0.697800
      6 C10         4.4180    0.8170    3.5380 c         1 O96      0.629700
      7 C11         5.3390    1.5180    4.3890 ca        1 O96     -0.297600
      8 C12         4.7250    2.2930    5.4160 ca        1 O96      0.029000
      9 C14         5.4690    2.9900    6.3340 ca        1 O96     -0.196000
     10 C16         6.8840    2.9580    6.2710 ca        1 O96      0.329100
     11 C17         7.5290    2.2270    5.2190 ca        1 O96     -0.211300
     12 C18         6.7560    1.5340    4.2980 ca        1 O96      0.151400
     13 CL19        7.5320    0.7420    2.9980 cl        1 O96     -0.025400
     14 C20         9.0700    2.2420    5.1510 c3        1 O96      0.707200
     15 F21         9.5580    2.8110    4.0030 f         1 O96     -0.204967
     16 F22         9.6760    2.9340    6.1630 f         1 O96     -0.204967
     17 F23         9.6260    0.9890    5.2100 f         1 O96     -0.204967
     18 O24         7.7110    3.6160    7.0970 os        1 O96     -0.252900
     19 C25         7.1990    4.3010    8.2630 c3        1 O96      0.084100
     20 C28         6.9260    3.3550    9.3990 ca        1 O96      0.333600
     21 N29         6.2070    2.2280    9.1590 nb        1 O96     -0.709000
     22 C30         5.9730    1.4130   10.2000 ca        1 O96      0.403200
     23 C32         6.4240    1.6690   11.5110 ca        1 O96     -0.208300
     24 C34         7.1580    2.8300   11.7430 ca        1 O96     -0.074000
     25 C36         7.4220    3.6910   10.6720 ca        1 O96     -0.199300
     26 O38         3.2220    1.0770    3.3330 o         1 O96     -0.596100
     27 C39         4.5710   -2.0620    0.9240 c3        1 O96     -0.101400
     28 C42         6.0120   -1.9940    0.4970 c3        1 O96     -0.127100
     29 O46         2.1480   -1.6470    2.7540 o         1 O96     -0.397100
     30 O47         1.8190    0.3240   -0.0630 o         1 O96     -0.332100
     31 HN1        -0.0210    1.2070    1.2800 hn        1 O96      0.492800
     32 HN1A        0.9840    1.2610    2.6290 hn        1 O96      0.492800
     33 H6          4.2630    0.1050    0.8760 hx        1 O96      0.139700
     34 HN8         5.8960   -0.3460    2.5760 hn        1 O96      0.486300
     35 H12         3.6210    2.3190    5.4730 ha        1 O96      0.168000
     36 H14         4.9660    3.5500    7.1410 ha        1 O96      0.199000
     37 H25         8.0670    4.9800    8.5070 h1        1 O96      0.100200
     38 H25A        6.2940    4.9050    7.9970 h1        1 O96      0.100200
     39 H30         5.3900    0.5010    9.9750 h4        1 O96      0.026100
     40 H32         6.1980    0.9630   12.3240 ha        1 O96      0.168000
     41 H34         7.5320    3.0690   12.7520 ha        1 O96      0.168000
     42 H36         8.0090    4.6090   10.8240 ha        1 O96      0.162000
     43 H39         4.4010   -2.9320    1.6140 hc        1 O96      0.101200
     44 H39A        3.9190   -2.2160    0.0190 hc        1 O96      0.101200
     45 H42         6.2420   -2.8760   -0.1590 hc        1 O96      0.072033
     46 H42A        6.2220   -1.0690   -0.0940 hc        1 O96      0.072033
     47 H42B        6.7090   -2.0400    1.3690 hc        1 O96      0.072033
     48 H13         0.0350   -0.0910    2.3460 hn        1 O96      0.492800
     49 H82         4.7950   -1.2320    3.4970 hn        1 O96      0.486300
@<TRIPOS>BOND
     1    1    2 1   
     2    1   31 1   
     3    1   32 1   
     4    1   48 1   
     5    2    3 1   
     6    2   30 2   
     7    3    4 1   
     8    3   29 2   
     9    4    5 1   
    10    4   27 1   
    11    4   33 1   
    12    5    6 1   
    13    5   34 1   
    14    5   49 1   
    15    6    7 1   
    16    6   26 2   
    17    7    8 ar  
    18    7   12 ar  
    19    8    9 ar  
    20    8   35 1   
    21    9   10 ar  
    22    9   36 1   
    23   10   11 ar  
    24   10   18 1   
    25   11   12 ar  
    26   11   14 1   
    27   12   13 1   
    28   14   15 1   
    29   14   16 1   
    30   14   17 1   
    31   18   19 1   
    32   19   20 1   
    33   19   37 1   
    34   19   38 1   
    35   20   21 ar  
    36   20   25 ar  
    37   21   22 ar  
    38   22   23 ar  
    39   22   39 1   
    40   23   24 ar  
    41   23   40 1   
    42   24   25 ar  
    43   24   41 1   
    44   25   42 1   
    45   27   28 1   
    46   27   43 1   
    47   27   44 1   
    48   28   45 1   
    49   28   46 1   
    50   28   47 1   
@<TRIPOS>SUBSTRUCTURE
     1 O96         1 TEMP              0 ****  ****    0 ROOT
