@<TRIPOS>MOLECULE
O96
   47    48     1     0     0
SMALL
bcc


@<TRIPOS>ATOM
      1 N1          6.8620    2.8930    0.5570 n         1 O96     -0.649000
      2 C4          6.6570    1.7040   -0.0850 c         1 O96      0.569100
      3 C5          5.3070    1.5060   -0.7680 c         1 O96      0.487100
      4 C6          4.6820    0.1290   -0.5320 c3        1 O96      0.026700
      5 N8          3.2430    0.1680   -0.5680 n         1 O96     -0.554900
      6 C10         2.4780    0.2050    0.5790 c         1 O96      0.684700
      7 C11         0.9960    0.2980    0.4070 ca        1 O96     -0.182600
      8 C12         0.3520    1.3580    1.0580 ca        1 O96     -0.012000
      9 C14        -1.0220    1.5180    0.9620 ca        1 O96     -0.222000
     10 C16        -1.7770    0.6010    0.2130 ca        1 O96      0.208100
     11 C17        -1.1500   -0.4910   -0.4310 ca        1 O96     -0.211300
     12 C18         0.2430   -0.6320   -0.3220 ca        1 O96      0.117400
     13 CL19        1.0370   -1.9430   -1.0520 cl        1 O96     -0.042400
     14 C20        -1.9910   -1.4890   -1.2240 c3        1 O96      0.707200
     15 F21        -1.9310   -2.7800   -0.7580 f         1 O96     -0.229633
     16 F22        -3.3380   -1.2270   -1.2540 f         1 O96     -0.229633
     17 F23        -1.6560   -1.5820   -2.5540 f         1 O96     -0.229633
     18 O24        -3.1390    0.6840    0.0560 os        1 O96     -0.310900
     19 C25        -3.7750    1.8050    0.7020 c3        1 O96      0.079100
     20 C28        -5.2470    1.7340    0.3810 ca        1 O96      0.384600
     21 N29        -5.9570    2.8830    0.5310 nb        1 O96     -0.667000
     22 C30        -7.2750    2.8300    0.2820 ca        1 O96      0.396200
     23 C32        -7.9500    1.6630   -0.1250 ca        1 O96     -0.238300
     24 C34        -7.2100    0.4930   -0.2800 ca        1 O96     -0.093000
     25 C36        -5.8360    0.5200   -0.0220 ca        1 O96     -0.211300
     26 O38         2.9960    0.2030    1.7130 o         1 O96     -0.593100
     27 C39         5.2920   -0.8270   -1.5740 c3        1 O96     -0.092400
     28 C42         4.9320   -2.2620   -1.3000 c3        1 O96     -0.091100
     29 O46         4.8070    2.3950   -1.4550 o         1 O96     -0.499100
     30 O47         7.5220    0.8070   -0.0990 o         1 O96     -0.594100
     31 HN1         7.7310    3.0680    0.9990 hn        1 O96      0.322000
     32 HN1A        6.2090    3.6300    0.4700 hn        1 O96      0.322000
     33 H6          5.0020   -0.2150    0.5010 h1        1 O96      0.117700
     34 HN8         2.8080    0.2270   -1.4580 hn        1 O96      0.327500
     35 H12         0.9530    2.0620    1.6590 ha        1 O96      0.164000
     36 H14        -1.5040    2.3600    1.4800 ha        1 O96      0.159000
     37 H25        -3.6260    1.7200    1.8120 h1        1 O96      0.068700
     38 H25A       -3.3210    2.7560    0.3160 h1        1 O96      0.068700
     39 H30        -7.8210    3.7820    0.4160 h4        1 O96      0.025100
     40 H32        -9.0310    1.6850   -0.3160 ha        1 O96      0.146000
     41 H34        -7.6930   -0.4420   -0.6000 ha        1 O96      0.144000
     42 H36        -5.2170   -0.3820   -0.1430 ha        1 O96      0.170000
     43 H39         4.9590   -0.5340   -2.6040 hc        1 O96      0.067200
     44 H39A        6.4090   -0.7020   -1.5240 hc        1 O96      0.067200
     45 H42         5.2330   -2.5550   -0.2650 hc        1 O96      0.041367
     46 H42A        3.8340   -2.4320   -1.4090 hc        1 O96      0.041367
     47 H42B        5.4630   -2.9290   -2.0230 hc        1 O96      0.041367
@<TRIPOS>BOND
     1    1    2 1   
     2    1   31 1   
     3    1   32 1   
     4    2    3 1   
     5    2   30 2   
     6    3    4 1   
     7    3   29 2   
     8    4    5 1   
     9    4   27 1   
    10    4   33 1   
    11    5    6 1   
    12    5   34 1   
    13    6    7 1   
    14    6   26 2   
    15    7    8 ar  
    16    7   12 ar  
    17    8    9 ar  
    18    8   35 1   
    19    9   10 ar  
    20    9   36 1   
    21   10   11 ar  
    22   10   18 1   
    23   11   12 ar  
    24   11   14 1   
    25   12   13 1   
    26   14   15 1   
    27   14   16 1   
    28   14   17 1   
    29   18   19 1   
    30   19   20 1   
    31   19   37 1   
    32   19   38 1   
    33   20   21 ar  
    34   20   25 ar  
    35   21   22 ar  
    36   22   23 ar  
    37   22   39 1   
    38   23   24 ar  
    39   23   40 1   
    40   24   25 ar  
    41   24   41 1   
    42   25   42 1   
    43   27   28 1   
    44   27   43 1   
    45   27   44 1   
    46   28   45 1   
    47   28   46 1   
    48   28   47 1   
@<TRIPOS>SUBSTRUCTURE
     1 O96         1 TEMP              0 ****  ****    0 ROOT
