@<TRIPOS>MOLECULE
OA1
   23    24     1     0     0
SMALL
bcc


@<TRIPOS>ATOM
      1 BR1        -0.1260   -0.2640    0.8130 br        1 OA1     -0.031100
      2 C7          1.6670    0.0450    0.3920 ca        1 OA1     -0.038900
      3 C3          2.6730   -0.6460    1.0740 ca        1 OA1     -0.035000
      4 C11         2.0090    0.9630   -0.6080 ca        1 OA1     -0.051000
      5 C8          3.3510    1.1880   -0.9220 ca        1 OA1     -0.131000
      6 C4          4.3570    0.5110   -0.2380 ca        1 OA1     -0.088000
      7 C1          4.0210   -0.4040    0.7680 ca        1 OA1     -0.189600
      8 C2          5.0390   -1.1650    1.5000 c         1 OA1      0.508200
      9 O6          4.8660   -2.2810    1.9920 o         1 OA1     -0.455100
     10 C5          6.3550   -0.4980    1.6730 cc        1 OA1      0.188900
     11 O10         7.4290   -1.3410    1.9690 os        1 OA1     -0.317800
     12 C14         8.5150   -0.4630    2.1540 cc        1 OA1      0.466300
     13 N15         9.7820   -1.0750    2.4800 n4        1 OA1     -0.775300
     14 N13         8.1850    0.8350    1.9960 nd        1 OA1     -0.547000
     15 C9          6.8270    0.8220    1.6940 cd        1 OA1      0.279900
     16 H3          2.4210   -1.3880    1.8520 ha        1 OA1      0.174000
     17 H11         1.2230    1.5090   -1.1570 ha        1 OA1      0.169000
     18 H8          3.6110    1.9010   -1.7200 ha        1 OA1      0.158000
     19 H4          5.4100    0.6840   -0.5060 ha        1 OA1      0.132000
     20 H9          6.2790    1.7570    1.5200 h4        1 OA1      0.104100
     21 H151        9.6510   -2.0960    2.5500 hn        1 OA1      0.493133
     22 H152       10.4660   -0.8580    1.7390 hn        1 OA1      0.493133
     23 H153       10.1170   -0.7010    3.3810 hn        1 OA1      0.493133
@<TRIPOS>BOND
     1    1    2 1   
     2    2    3 ar  
     3    2    4 ar  
     4    3    7 ar  
     5    3   16 1   
     6    4    5 ar  
     7    4   17 1   
     8    5    6 ar  
     9    5   18 1   
    10    6    7 ar  
    11    6   19 1   
    12    7    8 1   
    13    8    9 2   
    14    8   10 1   
    15   10   11 1   
    16   10   15 2   
    17   11   12 1   
    18   12   13 1   
    19   12   14 2   
    20   13   21 1   
    21   13   22 1   
    22   13   23 1   
    23   14   15 1   
    24   15   20 1   
@<TRIPOS>SUBSTRUCTURE
     1 OA1         1 TEMP              0 ****  ****    0 ROOT
