@<TRIPOS>MOLECULE
OA1
   22    23     1     0     0
SMALL
bcc


@<TRIPOS>ATOM
      1 Br1         0.2670   -0.9480   -0.1520 br        1 OA1     -0.079100
      2 C7          2.0250   -0.3070   -0.0780 ca        1 OA1     -0.040900
      3 C3          2.7030   -0.2680    1.1420 ca        1 OA1     -0.052000
      4 C11         2.6570    0.1370   -1.2440 ca        1 OA1     -0.080000
      5 C8          3.9640    0.6160   -1.1860 ca        1 OA1     -0.145000
      6 C4          4.6510    0.6460    0.0270 ca        1 OA1     -0.070000
      7 C1          4.0240    0.2000    1.1940 ca        1 OA1     -0.155600
      8 C2          4.7020    0.2370    2.5090 c         1 OA1      0.521200
      9 O6          4.0760    0.4890    3.5500 o         1 OA1     -0.528100
     10 C5          6.1260   -0.0440    2.5780 cc        1 OA1      0.020900
     11 O10         6.8320   -0.4530    1.4270 os        1 OA1     -0.391800
     12 C14         8.1510   -0.6850    1.8880 cc        1 OA1      0.740300
     13 N15         9.0350   -1.1960    0.9690 nv        1 OA1     -0.914500
     14 N13         8.2890   -0.4250    3.2190 nd        1 OA1     -0.732000
     15 C9          7.0250   -0.0350    3.6440 cd        1 OA1      0.359900
     16 H3          2.2140   -0.5940    2.0750 ha        1 OA1      0.166000
     17 H11         2.1270    0.1130   -2.2100 ha        1 OA1      0.149000
     18 H8          4.4570    0.9720   -2.1030 ha        1 OA1      0.140000
     19 H4          5.6850    1.0220    0.0670 ha        1 OA1      0.146000
     20 H9          6.8330    0.2290    4.6880 h4        1 OA1      0.067100
     21 H151        8.7820   -1.0830    0.0150 hn        1 OA1      0.439800
     22 H152        9.9990   -1.1120    1.1990 hn        1 OA1      0.439800
@<TRIPOS>BOND
     1    1    2 1   
     2    2    3 ar  
     3    2    4 ar  
     4    3    7 ar  
     5    3   16 1   
     6    4    5 ar  
     7    4   17 1   
     8    5    6 ar  
     9    5   18 1   
    10    6    7 ar  
    11    6   19 1   
    12    7    8 1   
    13    8    9 2   
    14    8   10 1   
    15   10   11 1   
    16   10   15 2   
    17   11   12 1   
    18   12   13 1   
    19   12   14 2   
    20   13   21 1   
    21   13   22 1   
    22   14   15 1   
    23   15   20 1   
@<TRIPOS>SUBSTRUCTURE
     1 OA1         1 TEMP              0 ****  ****    0 ROOT
