@<TRIPOS>MOLECULE
OA1
   22    23     1     0     0
SMALL
bcc


@<TRIPOS>ATOM
      1 BR1        -3.6330   -0.0290    1.1520 br        1 OA1     -0.079100
      2 C7         -1.9800   -0.4870    0.4010 ca        1 OA1     -0.040900
      3 C3         -0.9730    0.4740    0.2930 ca        1 OA1     -0.052000
      4 C11        -1.7560   -1.7900   -0.0540 ca        1 OA1     -0.080000
      5 C8         -0.5250   -2.1270   -0.6150 ca        1 OA1     -0.145000
      6 C4          0.4880   -1.1750   -0.7140 ca        1 OA1     -0.070000
      7 C1          0.2690    0.1270   -0.2570 ca        1 OA1     -0.155600
      8 C2          1.3050    1.1780   -0.3660 c         1 OA1      0.521200
      9 O6          1.0040    2.3580   -0.6010 o         1 OA1     -0.528100
     10 C5          2.7000    0.8180   -0.1750 cc        1 OA1      0.020900
     11 O10         3.0550   -0.4900    0.2150 os        1 OA1     -0.391800
     12 C14         4.4640   -0.4450    0.3540 cc        1 OA1      0.740300
     13 N15         5.0650   -1.5840    0.8300 nh        1 OA1     -0.914500
     14 N13         4.9760    0.7830    0.0560 nd        1 OA1     -0.732000
     15 C9          3.8740    1.5660   -0.2640 cd        1 OA1      0.359900
     16 H3         -1.1380    1.5120    0.6280 ha        1 OA1      0.166000
     17 H11        -2.5480   -2.5530    0.0240 ha        1 OA1      0.149000
     18 H8         -0.3540   -3.1510   -0.9800 ha        1 OA1      0.140000
     19 H4          1.4600   -1.4490   -1.1540 ha        1 OA1      0.146000
     20 H9          3.9860    2.6180   -0.5400 h4        1 OA1      0.067100
     21 H151        4.5320   -2.4200    0.7550 hn        1 OA1      0.439800
     22 H152        6.0460   -1.6540    0.6810 hn        1 OA1      0.439800
@<TRIPOS>BOND
     1    1    2 1   
     2    2    3 ar  
     3    2    4 ar  
     4    3    7 ar  
     5    3   16 1   
     6    4    5 ar  
     7    4   17 1   
     8    5    6 ar  
     9    5   18 1   
    10    6    7 ar  
    11    6   19 1   
    12    7    8 1   
    13    8    9 2   
    14    8   10 1   
    15   10   11 1   
    16   10   15 2   
    17   11   12 1   
    18   12   13 1   
    19   12   14 2   
    20   13   21 1   
    21   13   22 1   
    22   14   15 1   
    23   15   20 1   
@<TRIPOS>SUBSTRUCTURE
     1 OA1         1 TEMP              0 ****  ****    0 ROOT
