@<TRIPOS>MOLECULE
OA1
   22    19     1     0     0
SMALL
bcc


@<TRIPOS>ATOM
      1 BR1        -4.2250    1.1090   -1.8870 br        1 OA1      0.061000
      2 C7         -2.3130    1.0810   -1.8490 c2        1 OA1     -0.182000
      3 C3         -1.6440    1.0970   -0.6360 c2        1 OA1     -0.053000
      4 C11        -1.5970    1.0770   -3.0360 c1        1 OA1     -0.080000
      5 C8         -0.2110    1.0890   -3.0090 c1        1 OA1     -0.107000
      6 C4          0.4580    1.1050   -1.7950 c1        1 OA1     -0.107000
      7 C1         -0.2580    1.1090   -0.6080 c1        1 OA1     -0.138000
      8 C2          0.4710    1.1980    0.7140 c2        1 OA1      0.351000
      9 O6          0.8140    2.2790    1.1470 o         1 OA1     -0.289000
     10 C5          0.7340   -0.0570    1.5180 c2        1 OA1     -0.196000
     11 O10         1.4540   -1.1160    1.1150 os        1 OA1     -0.132000
     12 C14         1.4560   -2.0320    2.1230 c1        1 OA1      0.148000
     13 N15         2.0760   -3.3080    2.0890 n2        1 OA1     -0.304000
     14 N13         0.7290   -1.5250    3.1520 n2        1 OA1     -0.203000
     15 C9          0.2820   -0.3110    2.7880 c1        1 OA1     -0.042000
     16 H3         -2.1490    1.1000    0.2000 ha        1 OA1      0.165000
     17 H11        -2.0680    1.0660   -3.8900 ha        1 OA1      0.149000
     18 H8          0.2930    1.0860   -3.8440 ha        1 OA1      0.146000
     19 H4          1.4340    1.1140   -1.7760 ha        1 OA1      0.146000
     20 H9         -0.2670    0.2850    3.3310 DU        1 OA1      0.204000
     21 H151        2.3910   -3.6420    1.2990 hn        1 OA1      0.231000
     22 H152        2.1410   -3.8050    2.8540 hn        1 OA1      0.231000
@<TRIPOS>BOND
     1    1    2 1   
     2    2    3 1   
     3    2    4 1   
     4    3    7 1   
     5    3   16 1   
     6    4   17 1   
     7    5    6 1   
     8    5   18 1   
     9    6   19 1   
    10    7    8 1   
    11    8    9 1   
    12    8   10 1   
    13   10   11 1   
    14   10   15 1   
    15   11   12 1   
    16   12   14 1   
    17   13   21 1   
    18   13   22 1   
    19   14   15 1   
@<TRIPOS>SUBSTRUCTURE
     1 OA1         1 TEMP              0 ****  ****    0 ROOT
