@<TRIPOS>MOLECULE
OA2
   42    44     1     0     0
SMALL
bcc


@<TRIPOS>ATOM
      1 O2          0.8010   -1.5120    0.1490 o         1 OA2     -0.352100
      2 C1          1.6360   -0.6470    0.3770 c         1 OA2      0.468600
      3 C3          2.1470   -0.4070    1.7300 cc        1 OA2      0.108900
      4 O4          3.0570    0.6320    1.9940 os        1 OA2     -0.367800
      5 C6          3.2690    0.5350    3.3920 cc        1 OA2      0.557300
      6 N8          4.1740    1.4960    3.9870 n4        1 OA2     -0.791300
      7 N7          2.5760   -0.4610    3.9690 nd        1 OA2     -0.530000
      8 C5          1.8610   -1.0650    2.9310 cd        1 OA2      0.396900
      9 N13         2.1430    0.2230   -0.7240 n4        1 OA2     -0.586200
     10 C10         1.1620    0.2800   -1.8860 c3        1 OA2      0.188100
     11 C9          1.2900    1.5660   -2.6200 ca        1 OA2     -0.197300
     12 C11         2.0550    1.6400   -3.7920 ca        1 OA2     -0.102250
     13 C14         2.1040    2.8290   -4.5160 ca        1 OA2     -0.112250
     14 C17         1.3940    3.9480   -4.0760 ca        1 OA2     -0.063500
     15 C15         0.6320    3.8770   -2.9070 ca        1 OA2     -0.112250
     16 C12         0.5780    2.6910   -2.1800 ca        1 OA2     -0.102250
     17 C16         3.5260   -0.2060   -1.1780 c3        1 OA2      0.188100
     18 C18         3.6470   -1.6400   -1.5460 ca        1 OA2     -0.197300
     19 C19         3.4740   -2.0460   -2.8760 ca        1 OA2     -0.102250
     20 C21         3.6620   -3.3810   -3.2300 ca        1 OA2     -0.112250
     21 C23         4.0290   -4.3180   -2.2620 ca        1 OA2     -0.063500
     22 C22         4.2130   -3.9160   -0.9360 ca        1 OA2     -0.112250
     23 C20         4.0240   -2.5840   -0.5790 ca        1 OA2     -0.102250
     24 H5          1.1940   -1.9240    3.1230 h4        1 OA2      0.135100
     25 H81N        4.2580    1.3000    5.0050 hn        1 OA2      0.509467
     26 H82N        5.1030    1.4170    3.5430 hn        1 OA2      0.509467
     27 H101        1.3730   -0.6100   -2.5470 hx        1 OA2      0.111950
     28 H102        0.1210    0.1700   -1.4610 hx        1 OA2      0.111950
     29 H161        3.7670    0.4510   -2.0680 hx        1 OA2      0.111950
     30 H162        4.2260    0.0420   -0.3290 hx        1 OA2      0.111950
     31 H11         2.5960    0.7550   -4.1610 ha        1 OA2      0.130000
     32 H12        -0.0530    2.6310   -1.2800 ha        1 OA2      0.130000
     33 H14         2.6940    2.8820   -5.4470 ha        1 OA2      0.167500
     34 H17         1.4250    4.8850   -4.6570 ha        1 OA2      0.173000
     35 H15         0.0590    4.7560   -2.5700 ha        1 OA2      0.167500
     36 H19         3.2100   -1.3120   -3.6540 ha        1 OA2      0.130000
     37 H20         4.1920   -2.2700    0.4620 ha        1 OA2      0.130000
     38 H21         3.5270   -3.6950   -4.2790 ha        1 OA2      0.167500
     39 H23         4.1810   -5.3740   -2.5440 ha        1 OA2      0.173000
     40 H22         4.5160   -4.6540   -0.1760 ha        1 OA2      0.167500
     41 H83         3.8010    2.4500    3.8510 hn        1 OA2      0.509467
     42 H131        2.2320    1.1820   -0.3570 hn        1 OA2      0.451800
@<TRIPOS>BOND
     1    1    2 2   
     2    2    3 1   
     3    2    9 1   
     4    3    4 1   
     5    3    8 2   
     6    4    5 1   
     7    5    6 1   
     8    5    7 2   
     9    6   25 1   
    10    6   26 1   
    11    6   41 1   
    12    7    8 1   
    13    8   24 1   
    14    9   10 1   
    15    9   17 1   
    16    9   42 1   
    17   10   11 1   
    18   10   27 1   
    19   10   28 1   
    20   11   12 ar  
    21   11   16 ar  
    22   12   13 ar  
    23   12   31 1   
    24   13   14 ar  
    25   13   33 1   
    26   14   15 ar  
    27   14   34 1   
    28   15   16 ar  
    29   15   35 1   
    30   16   32 1   
    31   17   18 1   
    32   17   29 1   
    33   17   30 1   
    34   18   19 ar  
    35   18   23 ar  
    36   19   20 ar  
    37   19   36 1   
    38   20   21 ar  
    39   20   38 1   
    40   21   22 ar  
    41   21   39 1   
    42   22   23 ar  
    43   22   40 1   
    44   23   37 1   
@<TRIPOS>SUBSTRUCTURE
     1 OA2         1 TEMP              0 ****  ****    0 ROOT
