@<TRIPOS>MOLECULE
OA2
   40    35     1     0     0
SMALL
bcc


@<TRIPOS>ATOM
      1 O2         -1.0530    0.6820    0.9690 o         1 OA2     -0.359000
      2 C1         -0.0050    0.0740    0.9280 c1        1 OA2      0.395000
      3 C3          0.6450   -0.4350    2.2380 c1        1 OA2     -0.152000
      4 O4          1.8250   -1.0720    2.3380 os        1 OA2     -0.136000
      5 C6          1.9870   -1.4600    3.6430 c1        1 OA2      0.129000
      6 N8          3.0600   -2.2470    4.1540 n2        1 OA2     -0.295000
      7 N7          0.8930   -1.0520    4.3430 n2        1 OA2     -0.194000
      8 C5          0.0620   -0.4210    3.4890 c1        1 OA2     -0.072000
      9 N13         0.6690   -0.1250   -0.3440 n3        1 OA2     -0.314000
     10 C10         1.1210    1.0270   -1.1190 c3        1 OA2      0.011500
     11 C9          0.4390    2.2960   -0.5970 c2        1 OA2     -0.105500
     12 C11         1.1750    3.4550   -0.4320 c2        1 OA2     -0.116500
     13 C14         0.5380    4.6390   -0.0780 c1        1 OA2     -0.132000
     14 C17        -0.8350    4.6580    0.1110 c1        1 OA2     -0.128250
     15 C15        -1.5710    3.4970   -0.0540 c1        1 OA2     -0.128250
     16 C12        -0.9340    2.3150   -0.4090 c1        1 OA2     -0.114500
     17 C16         0.9040   -1.4660   -0.8370 c3        1 OA2      0.011500
     18 C18        -0.3620   -1.9760   -1.5660 c2        1 OA2     -0.105500
     19 C19        -1.3230   -2.6880   -0.8680 c2        1 OA2     -0.116500
     20 C21        -2.4760   -3.1180   -1.5140 c1        1 OA2     -0.132000
     21 C23        -2.6630   -2.8360   -2.8540 c1        1 OA2     -0.128250
     22 C22        -1.6990   -2.1220   -3.5550 c1        1 OA2     -0.128250
     23 C20        -0.5490   -1.6920   -2.9090 c1        1 OA2     -0.114500
     24 H5         -0.7980   -0.0260    3.7150 DU        1 OA2      0.201000
     25 H81N        2.9850   -2.6450    4.9780 hn        1 OA2      0.223500
     26 H82N        3.8040   -2.3880    3.6460 hn        1 OA2      0.223500
     27 H101        2.1110    1.1200   -1.0290 h1        1 OA2      0.109000
     28 H102        0.8890    0.8960   -2.0660 h1        1 OA2      0.109000
     29 H161        1.6610   -1.4570   -1.4620 h1        1 OA2      0.109000
     30 H162        1.1090   -2.0590   -0.0850 h1        1 OA2      0.109000
     31 H11         2.1380    3.4420   -0.5640 ha        1 OA2      0.131500
     32 H12        -1.4530    1.4970   -0.5250 ha        1 OA2      0.142000
     33 H14         1.0520    5.4480    0.0370 ha        1 OA2      0.132500
     34 H17        -1.2810    5.4860    0.3590 ha        1 OA2      0.132250
     35 H15        -2.5400    3.5100    0.0790 ha        1 OA2      0.132250
     36 H19        -1.1930   -2.8850    0.0660 ha        1 OA2      0.131500
     37 H20         0.1200   -1.1960   -3.3950 ha        1 OA2      0.142000
     38 H21        -3.1500   -3.6180   -1.0240 ha        1 OA2      0.132500
     39 H23        -3.4730   -3.1390   -3.3080 ha        1 OA2      0.132250
     40 H22        -1.8300   -1.9230   -4.4970 ha        1 OA2      0.132250
@<TRIPOS>BOND
     1    1    2 1   
     2    2    9 1   
     3    3    4 1   
     4    3    8 1   
     5    4    5 1   
     6    5    7 1   
     7    6   25 1   
     8    6   26 1   
     9    7    8 1   
    10    9   10 1   
    11    9   17 1   
    12   10   11 1   
    13   10   27 1   
    14   10   28 1   
    15   11   12 1   
    16   11   16 1   
    17   12   13 1   
    18   12   31 1   
    19   13   33 1   
    20   14   15 1   
    21   14   34 1   
    22   15   35 1   
    23   16   32 1   
    24   17   18 1   
    25   17   29 1   
    26   17   30 1   
    27   18   19 1   
    28   18   23 1   
    29   19   20 1   
    30   19   36 1   
    31   20   38 1   
    32   21   22 1   
    33   21   39 1   
    34   22   40 1   
    35   23   37 1   
@<TRIPOS>SUBSTRUCTURE
     1 OA2         1 TEMP              0 ****  ****    0 ROOT
