@<TRIPOS>MOLECULE
OA2
   41    43     1     0     0
SMALL
bcc


@<TRIPOS>ATOM
      1 O2          0.7110   -1.4620    0.1880 o         1 OA2     -0.453100
      2 C1          1.5520   -0.6070    0.4550 c         1 OA2      0.501600
      3 C3          2.0470   -0.2920    1.7540 cc        1 OA2     -0.083100
      4 O4          3.0030    0.7460    1.9350 os        1 OA2     -0.431800
      5 C6          3.2170    0.7700    3.3370 cc        1 OA2      0.837300
      6 N8          4.0950    1.6770    3.8030 nv        1 OA2     -0.915500
      7 N7          2.4600   -0.1800    3.9980 nd        1 OA2     -0.721000
      8 C5          1.7470   -0.8240    3.0240 cd        1 OA2      0.476900
      9 N13         2.1000    0.2300   -0.6860 nx        1 OA2     -0.583200
     10 C10         1.1820    0.2290   -1.8780 c3        1 OA2      0.176600
     11 C9          1.3000    1.4980   -2.6550 ca        1 OA2     -0.169300
     12 C11         1.9960    1.5230   -3.8680 ca        1 OA2     -0.105000
     13 C14         2.0570    2.7010   -4.6110 ca        1 OA2     -0.118250
     14 C17         1.4280    3.8560   -4.1440 ca        1 OA2     -0.084000
     15 C15         0.7330    3.8330   -2.9330 ca        1 OA2     -0.118250
     16 C12         0.6660    2.6570   -2.1890 ca        1 OA2     -0.105000
     17 C16         3.5030   -0.1830   -1.0460 c3        1 OA2      0.176600
     18 C18         3.6580   -1.6110   -1.4450 ca        1 OA2     -0.169300
     19 C19         3.6560   -1.9680   -2.7990 ca        1 OA2     -0.105000
     20 C21         3.8660   -3.2940   -3.1710 ca        1 OA2     -0.118250
     21 C23         4.0800   -4.2700   -2.1960 ca        1 OA2     -0.084000
     22 C22         4.0880   -3.9170   -0.8460 ca        1 OA2     -0.118250
     23 C20         3.8790   -2.5910   -0.4690 ca        1 OA2     -0.105000
     24 H5          1.0480   -1.6380    3.2630 h4        1 OA2      0.089100
     25 H81N        4.5510    2.2970    3.1760 hn        1 OA2      0.483300
     26 H82N        4.2720    1.7280    4.7820 hn        1 OA2      0.483300
     27 H101        0.1240    0.1030   -1.5010 hx        1 OA2      0.108450
     28 H102        1.4370   -0.6720   -2.5080 hx        1 OA2      0.108450
     29 H161        4.1400    0.0320   -0.1370 hx        1 OA2      0.108450
     30 H162        3.8220    0.4930   -1.8930 hx        1 OA2      0.108450
     31 H11         2.4830    0.6110   -4.2480 ha        1 OA2      0.135000
     32 H12         0.0960    2.6360   -1.2480 ha        1 OA2      0.135000
     33 H14         2.5970    2.7170   -5.5710 ha        1 OA2      0.155500
     34 H17         1.4730    4.7860   -4.7350 ha        1 OA2      0.157500
     35 H15         0.2280    4.7420   -2.5700 ha        1 OA2      0.155500
     36 H19         3.5060   -1.2010   -3.5750 ha        1 OA2      0.135000
     37 H20         3.8920   -2.3160    0.5960 ha        1 OA2      0.135000
     38 H21         3.8670   -3.5710   -4.2370 ha        1 OA2      0.155500
     39 H23         4.2450   -5.3180   -2.4930 ha        1 OA2      0.157500
     40 H22         4.2610   -4.6850   -0.0760 ha        1 OA2      0.155500
     41 H131        2.1600    1.1990   -0.3400 hn        1 OA2      0.451800
@<TRIPOS>BOND
     1    1    2 2   
     2    2    3 1   
     3    2    9 1   
     4    3    4 1   
     5    3    8 2   
     6    4    5 1   
     7    5    6 1   
     8    5    7 2   
     9    6   25 1   
    10    6   26 1   
    11    7    8 1   
    12    8   24 1   
    13    9   10 1   
    14    9   17 1   
    15    9   41 1   
    16   10   11 1   
    17   10   27 1   
    18   10   28 1   
    19   11   12 ar  
    20   11   16 ar  
    21   12   13 ar  
    22   12   31 1   
    23   13   14 ar  
    24   13   33 1   
    25   14   15 ar  
    26   14   34 1   
    27   15   16 ar  
    28   15   35 1   
    29   16   32 1   
    30   17   18 1   
    31   17   29 1   
    32   17   30 1   
    33   18   19 ar  
    34   18   23 ar  
    35   19   20 ar  
    36   19   36 1   
    37   20   21 ar  
    38   20   38 1   
    39   21   22 ar  
    40   21   39 1   
    41   22   23 ar  
    42   22   40 1   
    43   23   37 1   
@<TRIPOS>SUBSTRUCTURE
     1 OA2         1 TEMP              0 ****  ****    0 ROOT
