@<TRIPOS>MOLECULE
OA2
   40    42     1     0     0
SMALL
bcc


@<TRIPOS>ATOM
      1 O2          0.7780   -2.0020    1.8060 o         1 OA2     -0.606100
      2 C1          0.0710   -1.4770    0.9160 c         1 OA2      0.610600
      3 C3         -1.0160   -2.2760    0.3390 cc        1 OA2      0.054900
      4 O4         -2.1670   -1.6740   -0.2030 os        1 OA2     -0.397800
      5 C6         -2.9990   -2.7670   -0.5630 cc        1 OA2      0.724300
      6 N8         -4.2530   -2.4440   -1.0330 nh        1 OA2     -0.905500
      7 N7         -2.4200   -3.9660   -0.2910 nd        1 OA2     -0.725000
      8 C5         -1.1910   -3.6560    0.2850 cd        1 OA2      0.345900
      9 N13         0.3110   -0.1720    0.5110 n         1 OA2     -0.453800
     10 C10         1.3630    0.5810    1.1690 c3        1 OA2      0.135800
     11 C9          2.7110    0.4890    0.5100 ca        1 OA2     -0.112800
     12 C11         3.1750    1.5270   -0.3020 ca        1 OA2     -0.116250
     13 C14         4.4420    1.4500   -0.8800 ca        1 OA2     -0.134500
     14 C17         5.2460    0.3330   -0.6540 ca        1 OA2     -0.124500
     15 C15         4.7830   -0.7080    0.1500 ca        1 OA2     -0.134500
     16 C12         3.5180   -0.6330    0.7320 ca        1 OA2     -0.116250
     17 C16        -0.2040    0.4050   -0.7080 c3        1 OA2      0.135800
     18 C18        -1.0740    1.6150   -0.4980 ca        1 OA2     -0.112800
     19 C19        -0.6630    2.8600   -0.9850 ca        1 OA2     -0.116250
     20 C21        -1.4820    3.9770   -0.8280 ca        1 OA2     -0.134500
     21 C23        -2.7110    3.8580   -0.1780 ca        1 OA2     -0.124500
     22 C22        -3.1200    2.6190    0.3140 ca        1 OA2     -0.134500
     23 C20        -2.3050    1.4990    0.1540 ca        1 OA2     -0.116250
     24 H5         -0.5080   -4.4400    0.6260 h4        1 OA2      0.067100
     25 H81N       -4.3390   -1.5250   -1.4040 hn        1 OA2      0.432800
     26 H82N       -4.7140   -3.1690   -1.5380 hn        1 OA2      0.432800
     27 H101        1.0330    1.6600    1.1950 h1        1 OA2      0.067450
     28 H102        1.4550    0.2090    2.2320 h1        1 OA2      0.067450
     29 H161        0.6800    0.7000   -1.3520 h1        1 OA2      0.067450
     30 H162       -0.7950   -0.3650   -1.2820 h1        1 OA2      0.067450
     31 H11         2.5410    2.4090   -0.4820 ha        1 OA2      0.140250
     32 H12         3.1390   -1.4530    1.3660 ha        1 OA2      0.140250
     33 H14         4.8060    2.2710   -1.5140 ha        1 OA2      0.132000
     34 H17         6.2450    0.2740   -1.1100 ha        1 OA2      0.131000
     35 H15         5.4150   -1.5900    0.3280 ha        1 OA2      0.132000
     36 H19         0.3090    2.9600   -1.4910 ha        1 OA2      0.140250
     37 H20        -2.6250    0.5190    0.5410 ha        1 OA2      0.140250
     38 H21        -1.1570    4.9540   -1.2150 ha        1 OA2      0.132000
     39 H23        -3.3540    4.7410   -0.0520 ha        1 OA2      0.131000
     40 H22        -4.0860    2.5240    0.8320 ha        1 OA2      0.132000
@<TRIPOS>BOND
     1    1    2 2   
     2    2    3 1   
     3    2    9 1   
     4    3    4 1   
     5    3    8 2   
     6    4    5 1   
     7    5    6 1   
     8    5    7 2   
     9    6   25 1   
    10    6   26 1   
    11    7    8 1   
    12    8   24 1   
    13    9   10 1   
    14    9   17 1   
    15   10   11 1   
    16   10   27 1   
    17   10   28 1   
    18   11   12 ar  
    19   11   16 ar  
    20   12   13 ar  
    21   12   31 1   
    22   13   14 ar  
    23   13   33 1   
    24   14   15 ar  
    25   14   34 1   
    26   15   16 ar  
    27   15   35 1   
    28   16   32 1   
    29   17   18 1   
    30   17   29 1   
    31   17   30 1   
    32   18   19 ar  
    33   18   23 ar  
    34   19   20 ar  
    35   19   36 1   
    36   20   21 ar  
    37   20   38 1   
    38   21   22 ar  
    39   21   39 1   
    40   22   23 ar  
    41   22   40 1   
    42   23   37 1   
@<TRIPOS>SUBSTRUCTURE
     1 OA2         1 TEMP              0 ****  ****    0 ROOT
