@<TRIPOS>MOLECULE
OA3
   28    29     1     0     0
SMALL
bcc


@<TRIPOS>ATOM
      1 O8         -0.0230   -0.3800   -0.0060 o         1 OA3     -0.576100
      2 C3          1.1900   -0.1090    0.0080 c         1 OA3      0.609700
      3 C7          1.9330    0.1230    1.2820 c3        1 OA3     -0.170400
      4 C11         3.1450    1.0340    1.1310 c3        1 OA3     -0.048000
      5 C38         3.9200    1.0330    2.4450 c3        1 OA3     -0.097600
      6 C40         2.7070    2.4570    0.8190 c3        1 OA3     -0.097600
      7 C5          4.0610    0.5010    0.0330 c3        1 OA3     -0.157700
      8 C2          3.3480    0.2590   -1.2620 ca        1 OA3      0.542600
      9 N6          4.0570    0.3090   -2.4170 nb        1 OA3     -0.654000
     10 C12         3.3900    0.0610   -3.5700 ca        1 OA3      0.715900
     11 N9          2.0650   -0.2300   -3.6950 nb        1 OA3     -0.700000
     12 C4          1.3650   -0.2740   -2.5330 ca        1 OA3      0.548200
     13 C1          1.9490   -0.0440   -1.2600 ca        1 OA3     -0.388200
     14 N10        -0.0790   -0.5760   -2.6450 n4        1 OA3     -0.828300
     15 H71C        2.2590   -0.8840    1.6690 hc        1 OA3      0.106200
     16 H72C        1.2260    0.5560    2.0430 hc        1 OA3      0.106200
     17 H381        3.2720    1.4150    3.2710 hc        1 OA3      0.052867
     18 H382        4.2580    0.0010    2.7050 hc        1 OA3      0.052867
     19 H383        4.8160    1.6930    2.3620 hc        1 OA3      0.052867
     20 H401        2.1320    2.4900   -0.1380 hc        1 OA3      0.052867
     21 H402        2.0580    2.8500    1.6390 hc        1 OA3      0.052867
     22 H403        3.5980    3.1240    0.7240 hc        1 OA3      0.052867
     23 H51C        4.5140   -0.4790    0.3580 hc        1 OA3      0.105700
     24 H52C        4.9130    1.2230   -0.1180 hc        1 OA3      0.105700
     25 H12         3.9760    0.0990   -4.5200 h5        1 OA3      0.105100
     26 H101       -0.6080    0.2720   -2.3990 hn        1 OA3      0.485133
     27 H102       -0.3170   -1.3050   -1.9500 hn        1 OA3      0.485133
     28 H103       -0.3290   -0.8850   -3.5930 hn        1 OA3      0.485133
@<TRIPOS>BOND
     1    1    2 2   
     2    2    3 1   
     3    2   13 1   
     4    3    4 1   
     5    3   15 1   
     6    3   16 1   
     7    4    5 1   
     8    4    6 1   
     9    4    7 1   
    10    5   17 1   
    11    5   18 1   
    12    5   19 1   
    13    6   20 1   
    14    6   21 1   
    15    6   22 1   
    16    7    8 1   
    17    7   23 1   
    18    7   24 1   
    19    8    9 ar  
    20    8   13 ar  
    21    9   10 ar  
    22   10   11 ar  
    23   10   25 1   
    24   11   12 ar  
    25   12   13 ar  
    26   12   14 1   
    27   14   26 1   
    28   14   27 1   
    29   14   28 1   
@<TRIPOS>SUBSTRUCTURE
     1 OA3         1 TEMP              0 ****  ****    0 ROOT
