@<TRIPOS>MOLECULE
OA3
   27    28     1     0     0
SMALL
bcc


@<TRIPOS>ATOM
      1 O8         -0.0580   -0.2170    0.0750 o         1 OA3     -0.585100
      2 C3          1.1730   -0.0550   -0.0030 c         1 OA3      0.610700
      3 C7          1.9640    0.0740    1.2710 c3        1 OA3     -0.170400
      4 C11         3.1630    1.0040    1.1460 c3        1 OA3     -0.047000
      5 C38         3.9620    0.9600    2.4420 c3        1 OA3     -0.090600
      6 C40         2.7060    2.4320    0.8940 c3        1 OA3     -0.090600
      7 C5          4.0500    0.5150    0.0060 c3        1 OA3     -0.141700
      8 C2          3.3010    0.2880   -1.2770 ca        1 OA3      0.533600
      9 N6          4.0190    0.3530   -2.4230 nb        1 OA3     -0.764000
     10 C12         3.3330    0.1150   -3.5750 ca        1 OA3      0.704900
     11 N9          2.0310   -0.1770   -3.7170 nb        1 OA3     -0.790000
     12 C4          1.2820   -0.2460   -2.5470 ca        1 OA3      0.751200
     13 C1          1.9100   -0.0090   -1.2640 ca        1 OA3     -0.493200
     14 N10        -0.0410   -0.5540   -2.6690 nv        1 OA3     -0.949500
     15 H71C        1.2850    0.4380    2.0880 hc        1 OA3      0.075200
     16 H72C        2.3140   -0.9560    1.5550 hc        1 OA3      0.075200
     17 H381        3.3320    1.3160    3.2920 hc        1 OA3      0.041200
     18 H382        4.8590    1.6190    2.3620 hc        1 OA3      0.041200
     19 H383        4.3010   -0.0810    2.6610 hc        1 OA3      0.041200
     20 H401        2.1210    2.4910   -0.0550 hc        1 OA3      0.041200
     21 H402        2.0600    2.7840    1.7350 hc        1 OA3      0.041200
     22 H403        3.5880    3.1110    0.8140 hc        1 OA3      0.041200
     23 H51C        4.5220   -0.4650    0.2960 hc        1 OA3      0.075700
     24 H52C        4.8820    1.2530   -0.1520 hc        1 OA3      0.075700
     25 H12         3.9260    0.1700   -4.5140 h5        1 OA3      0.053100
     26 H101       -0.4420   -0.6970   -3.5630 hn        1 OA3      0.459300
     27 H102       -0.6210   -0.5790   -1.8630 hn        1 OA3      0.459300
@<TRIPOS>BOND
     1    1    2 2   
     2    2    3 1   
     3    2   13 1   
     4    3    4 1   
     5    3   15 1   
     6    3   16 1   
     7    4    5 1   
     8    4    6 1   
     9    4    7 1   
    10    5   17 1   
    11    5   18 1   
    12    5   19 1   
    13    6   20 1   
    14    6   21 1   
    15    6   22 1   
    16    7    8 1   
    17    7   23 1   
    18    7   24 1   
    19    8    9 ar  
    20    8   13 ar  
    21    9   10 ar  
    22   10   11 ar  
    23   10   25 1   
    24   11   12 ar  
    25   12   13 ar  
    26   12   14 1   
    27   14   26 1   
    28   14   27 1   
@<TRIPOS>SUBSTRUCTURE
     1 OA3         1 TEMP              0 ****  ****    0 ROOT
