@<TRIPOS>MOLECULE
OA3
   27    28     1     0     0
SMALL
bcc


@<TRIPOS>ATOM
      1 O8         -0.0420   -2.5870   -0.2140 o         1 OA3     -0.585100
      2 C3          0.2900   -1.3910   -0.2950 c         1 OA3      0.610700
      3 C7          1.7330   -1.0610   -0.5670 c3        1 OA3     -0.170400
      4 C11         2.1950    0.2230    0.1060 c3        1 OA3     -0.047000
      5 C38         3.6200    0.5310   -0.3370 c3        1 OA3     -0.090600
      6 C40         2.1710    0.0710    1.6200 c3        1 OA3     -0.090600
      7 C5          1.2870    1.3660   -0.3340 c3        1 OA3     -0.141700
      8 C2         -0.1750    1.0650   -0.1620 ca        1 OA3      0.533600
      9 N6         -1.0060    2.1260   -0.0340 nb        1 OA3     -0.764000
     10 C12        -2.3320    1.8380    0.0880 ca        1 OA3      0.704900
     11 N9         -2.9180    0.6330    0.0990 nb        1 OA3     -0.790000
     12 C4         -2.0760   -0.4660   -0.0310 ca        1 OA3      0.751200
     13 C1         -0.6470   -0.2770   -0.1680 ca        1 OA3     -0.493200
     14 N10        -2.6540   -1.7010   -0.0360 nh        1 OA3     -0.949500
     15 H71C        2.3740   -1.9190   -0.2290 hc        1 OA3      0.075200
     16 H72C        1.8520   -0.9670   -1.6800 hc        1 OA3      0.075200
     17 H381        3.6730    0.6350   -1.4470 hc        1 OA3      0.041200
     18 H382        3.9700    1.4830    0.1290 hc        1 OA3      0.041200
     19 H383        4.3050   -0.2930   -0.0240 hc        1 OA3      0.041200
     20 H401        2.8410   -0.7650    1.9340 hc        1 OA3      0.041200
     21 H402        2.5210    1.0120    2.1080 hc        1 OA3      0.041200
     22 H403        1.1330   -0.1500    1.9700 hc        1 OA3      0.041200
     23 H51C        1.5650    2.2940    0.2360 hc        1 OA3      0.075700
     24 H52C        1.4600    1.5790   -1.4250 hc        1 OA3      0.075700
     25 H12        -3.0110    2.7130    0.1940 h5        1 OA3      0.053100
     26 H101       -3.6340   -1.7960    0.0730 hn        1 OA3      0.459300
     27 H102       -2.0870   -2.5150   -0.0910 hn        1 OA3      0.459300
@<TRIPOS>BOND
     1    1    2 2   
     2    2    3 1   
     3    2   13 1   
     4    3    4 1   
     5    3   15 1   
     6    3   16 1   
     7    4    5 1   
     8    4    6 1   
     9    4    7 1   
    10    5   17 1   
    11    5   18 1   
    12    5   19 1   
    13    6   20 1   
    14    6   21 1   
    15    6   22 1   
    16    7    8 1   
    17    7   23 1   
    18    7   24 1   
    19    8    9 ar  
    20    8   13 ar  
    21    9   10 ar  
    22   10   11 ar  
    23   10   25 1   
    24   11   12 ar  
    25   12   13 ar  
    26   12   14 1   
    27   14   26 1   
    28   14   27 1   
@<TRIPOS>SUBSTRUCTURE
     1 OA3         1 TEMP              0 ****  ****    0 ROOT
