@<TRIPOS>MOLECULE
OA3
   27    25     1     0     0
SMALL
bcc


@<TRIPOS>ATOM
      1 O8         -2.6180    0.4480    0.2120 o         1 OA3     -0.346000
      2 C3         -1.4040    0.4480    0.2120 c1        1 OA3      0.301000
      3 C7         -0.6750    0.4480    1.4750 c2        1 OA3     -0.199000
      4 C11         0.7800    0.4480    1.2680 c3        1 OA3     -0.047000
      5 C38         1.1630    1.7910    0.6850 c3        1 OA3     -0.208500
      6 C40         1.4390    0.3220    2.6230 c3        1 OA3     -0.208500
      7 C5          1.3260   -0.5670    0.4210 c3        1 OA3     -0.126000
      8 C2          0.5000   -0.9470   -0.8460 c2        1 OA3      0.111000
      9 N6          0.9200   -1.8870   -1.7090 n2        1 OA3     -0.238000
     10 C12         0.1590   -2.1940   -2.8190 c1        1 OA3      0.042000
     11 N9         -1.0500   -1.5290   -3.0480 n1        1 OA3     -0.264000
     12 C4         -1.4800   -0.5760   -2.1780 c1        1 OA3      0.230000
     13 C1         -0.8000   -0.3830   -0.9980 c1        1 OA3     -0.342000
     14 N10        -2.6950    0.1140   -2.4250 n3        1 OA3     -0.347000
     15 H71C       -1.0850    1.1390    2.0300 ha        1 OA3      0.114500
     16 H72C       -0.8560   -0.3440    2.0160 ha        1 OA3      0.114500
     17 H381        0.7140    2.5010    1.1820 hc        1 OA3      0.080500
     18 H382        2.1300    1.9090    0.7500 hc        1 OA3      0.080500
     19 H383        0.8930    1.8280   -0.2520 hc        1 OA3      0.080500
     20 H401        1.1660   -0.5160    3.0410 hc        1 OA3      0.080500
     21 H402        2.4090    0.3310    2.5150 hc        1 OA3      0.080500
     22 H403        1.1680    1.0710    3.1880 hc        1 OA3      0.080500
     23 H51C        1.4210   -1.3750    0.9600 hc        1 OA3      0.115000
     24 H52C        2.1990   -0.2530    0.1160 hc        1 OA3      0.115000
     25 H12         0.4650   -2.8770   -3.4450 ha        1 OA3      0.190000
     26 H101       -2.8680    0.8990   -1.9940 hn        1 OA3      0.254500
     27 H102       -3.3200   -0.2490   -2.9800 hn        1 OA3      0.254500
@<TRIPOS>BOND
     1    1    2 1   
     2    2   13 1   
     3    3    4 1   
     4    3   15 1   
     5    3   16 1   
     6    4    5 1   
     7    4    6 1   
     8    4    7 1   
     9    5   17 1   
    10    5   18 1   
    11    5   19 1   
    12    6   20 1   
    13    6   21 1   
    14    6   22 1   
    15    7    8 1   
    16    7   23 1   
    17    7   24 1   
    18    8    9 1   
    19    8   13 1   
    20    9   10 1   
    21   10   25 1   
    22   11   12 1   
    23   12   14 1   
    24   14   26 1   
    25   14   27 1   
@<TRIPOS>SUBSTRUCTURE
     1 OA3         1 TEMP              0 ****  ****    0 ROOT
