@<TRIPOS>MOLECULE
OA3
   27    28     1     0     0
SMALL
bcc


@<TRIPOS>ATOM
      1 O8         -0.0580   -0.2150    0.0710 o         1 OA3     -0.585100
      2 C3          1.1730   -0.0530   -0.0030 c         1 OA3      0.610700
      3 C7          1.9590    0.0850    1.2730 c3        1 OA3     -0.170400
      4 C11         3.1570    1.0150    1.1450 c3        1 OA3     -0.047000
      5 C38         3.9510    0.9820    2.4450 c3        1 OA3     -0.090600
      6 C40         2.7000    2.4410    0.8820 c3        1 OA3     -0.090600
      7 C5          4.0490    0.5190    0.0120 c3        1 OA3     -0.141700
      8 C2          3.3040    0.2820   -1.2720 ca        1 OA3      0.533600
      9 N6          4.0270    0.3390   -2.4150 nb        1 OA3     -0.764000
     10 C12         3.3450    0.0910   -3.5680 ca        1 OA3      0.704900
     11 N9          2.0450   -0.2030   -3.7120 nb        1 OA3     -0.790000
     12 C4          1.2910   -0.2640   -2.5450 ca        1 OA3      0.751200
     13 C1          1.9140   -0.0160   -1.2620 ca        1 OA3     -0.493200
     14 N10        -0.0300   -0.5750   -2.6690 nh        1 OA3     -0.949500
     15 H71C        1.2770    0.4550    2.0850 hc        1 OA3      0.075200
     16 H72C        2.3090   -0.9420    1.5660 hc        1 OA3      0.075200
     17 H381        3.3180    1.3430    3.2900 hc        1 OA3      0.041200
     18 H382        4.8490    1.6410    2.3630 hc        1 OA3      0.041200
     19 H383        4.2910   -0.0580    2.6720 hc        1 OA3      0.041200
     20 H401        3.5820    3.1200    0.8000 hc        1 OA3      0.041200
     21 H402        2.1180    2.4930   -0.0700 hc        1 OA3      0.041200
     22 H403        2.0510    2.7990    1.7180 hc        1 OA3      0.041200
     23 H51C        4.8810    1.2570   -0.1480 hc        1 OA3      0.075700
     24 H52C        4.5210   -0.4580    0.3110 hc        1 OA3      0.075700
     25 H12         3.9420    0.1400   -4.5050 h5        1 OA3      0.053100
     26 H101       -0.6140   -0.5940   -1.8650 hn        1 OA3      0.459300
     27 H102       -0.4290   -0.7250   -3.5640 hn        1 OA3      0.459300
@<TRIPOS>BOND
     1    1    2 2   
     2    2    3 1   
     3    2   13 1   
     4    3    4 1   
     5    3   15 1   
     6    3   16 1   
     7    4    5 1   
     8    4    6 1   
     9    4    7 1   
    10    5   17 1   
    11    5   18 1   
    12    5   19 1   
    13    6   20 1   
    14    6   21 1   
    15    6   22 1   
    16    7    8 1   
    17    7   23 1   
    18    7   24 1   
    19    8    9 ar  
    20    8   13 ar  
    21    9   10 ar  
    22   10   11 ar  
    23   10   25 1   
    24   11   12 ar  
    25   12   13 ar  
    26   12   14 1   
    27   14   26 1   
    28   14   27 1   
@<TRIPOS>SUBSTRUCTURE
     1 OA3         1 TEMP              0 ****  ****    0 ROOT
