@<TRIPOS>MOLECULE
OA4
   33    35     1     0     0
SMALL
bcc


@<TRIPOS>ATOM
      1 C1          1.7340    1.0090   -0.2190 ca        1 OA4      0.482600
      2 C2          1.2720   -0.3100    0.1030 ca        1 OA4     -0.326600
      3 C3          2.3370   -1.2560    0.4470 ca        1 OA4      0.727200
      4 N4          3.6420   -0.9610    0.2750 nb        1 OA4     -0.832000
      5 C5          3.9560    0.3100   -0.2210 ca        1 OA4      0.903900
      6 N6          3.0580    1.3240   -0.3900 nb        1 OA4     -0.791000
      7 N7          2.0450   -2.5110    0.9680 nh        1 OA4     -0.946500
      8 C8          0.7700    2.0580   -0.3750 ca        1 OA4     -0.207300
      9 C9         -0.5660    1.7830   -0.2800 ca        1 OA4     -0.077000
     10 C12        -1.0270    0.4570   -0.0860 cp        1 OA4     -0.089000
     11 C13        -0.1240   -0.5900    0.0670 ca        1 OA4      0.000700
     12 N14         5.2920    0.5340   -0.5810 nh        1 OA4     -0.921500
     13 C26        -4.5450   -0.2670   -1.2300 ca        1 OA4     -0.132000
     14 C27        -5.2610   -0.0780   -0.0480 ca        1 OA4     -0.129000
     15 C10        -0.6620   -1.9740    0.1160 c3        1 OA4     -0.070800
     16 C22        -4.5890    0.2770    1.1210 ca        1 OA4     -0.132000
     17 C23        -3.2050    0.4430    1.1120 ca        1 OA4     -0.120000
     18 CAP        -2.4810    0.2520   -0.0720 cp        1 OA4     -0.035000
     19 C25        -3.1610   -0.1030   -1.2450 ca        1 OA4     -0.120000
     20 H8          1.1240    3.0810   -0.5770 ha        1 OA4      0.153000
     21 H71N        2.8090   -3.0660    1.2820 hn        1 OA4      0.423300
     22 H72N        1.2150   -2.5790    1.5070 hn        1 OA4      0.423300
     23 H141        5.9630   -0.0860   -0.1890 hn        1 OA4      0.422300
     24 H142        5.5710    1.4860   -0.6510 hn        1 OA4      0.422300
     25 H9         -1.3090    2.5910   -0.3810 ha        1 OA4      0.140000
     26 H101       -0.7580   -2.3300    1.1730 hc        1 OA4      0.053700
     27 H102       -1.6880   -2.0130   -0.3360 hc        1 OA4      0.053700
     28 H103       -0.0230   -2.6800   -0.4680 hc        1 OA4      0.053700
     29 H27        -6.3530   -0.2070   -0.0390 ha        1 OA4      0.131000
     30 H25        -2.5970   -0.2510   -2.1780 ha        1 OA4      0.137500
     31 H22        -5.1520    0.4290    2.0540 ha        1 OA4      0.132000
     32 H23        -2.6780    0.7270    2.0350 ha        1 OA4      0.137500
     33 H26        -5.0720   -0.5440   -2.1550 ha        1 OA4      0.132000
@<TRIPOS>BOND
     1    1    2 ar  
     2    1    6 ar  
     3    1    8 ar  
     4    2    3 ar  
     5    2   11 ar  
     6    3    4 ar  
     7    3    7 1   
     8    4    5 ar  
     9    5    6 ar  
    10    5   12 1   
    11    7   21 1   
    12    7   22 1   
    13    8    9 ar  
    14    8   20 1   
    15    9   10 ar  
    16    9   25 1   
    17   10   11 ar  
    18   10   18 1   
    19   11   15 1   
    20   12   23 1   
    21   12   24 1   
    22   13   14 ar  
    23   13   19 ar  
    24   13   33 1   
    25   14   16 ar  
    26   14   29 1   
    27   15   26 1   
    28   15   27 1   
    29   15   28 1   
    30   16   17 ar  
    31   16   31 1   
    32   17   18 ar  
    33   17   32 1   
    34   18   19 ar  
    35   19   30 1   
@<TRIPOS>SUBSTRUCTURE
     1 OA4         1 TEMP              0 ****  ****    0 ROOT
