@<TRIPOS>MOLECULE
OA4
   35    37     1     0     0
SMALL
bcc


@<TRIPOS>ATOM
      1 C1          0.0520   -0.1030    0.0020 ca        1 OA4      0.413600
      2 C2          1.5080   -0.0140    0.0220 ca        1 OA4     -0.175600
      3 C3          2.0510    0.1540    1.3510 ca        1 OA4      0.533200
      4 N4          1.3240    0.1340    2.4800 nb        1 OA4     -0.674000
      5 C5         -0.0410   -0.0340    2.3150 ca        1 OA4      0.678900
      6 N6         -0.7010   -0.1280    1.1400 nb        1 OA4     -0.571000
      7 N7          3.4940    0.4100    1.5520 n4        1 OA4     -0.831300
      8 C8         -0.6230   -0.1620   -1.2600 ca        1 OA4     -0.124300
      9 C9          0.1030   -0.1250   -2.4190 ca        1 OA4     -0.075000
     10 C12         1.5270   -0.0710   -2.4120 cp        1 OA4      0.124000
     11 C13         2.2280   -0.0860   -1.1930 ca        1 OA4     -0.111300
     12 N14        -0.8530   -0.0930    3.5630 n4        1 OA4     -0.804300
     13 C26         3.7630    1.0290   -5.2320 ca        1 OA4     -0.119500
     14 C27         3.3690    0.1510   -6.2440 ca        1 OA4     -0.062000
     15 C10         3.7010   -0.2710   -1.2360 c3        1 OA4     -0.096800
     16 C22         2.3840   -0.8070   -5.9920 ca        1 OA4     -0.119500
     17 C23         1.7870   -0.8830   -4.7360 ca        1 OA4     -0.092000
     18 CAP         2.1880   -0.0110   -3.7080 cp        1 OA4     -0.141000
     19 C25         3.1840    0.9460   -3.9690 ca        1 OA4     -0.092000
     20 H8         -1.7270   -0.2300   -1.2830 ha        1 OA4      0.201000
     21 H71N        3.7950    1.1310    0.8800 hn        1 OA4      0.489133
     22 H72N        4.0190   -0.4600    1.3750 hn        1 OA4      0.489133
     23 H141       -0.5680   -0.9130    4.1160 hn        1 OA4      0.493467
     24 H142       -0.7010    0.7640    4.1140 hn        1 OA4      0.493467
     25 H9         -0.4160   -0.1390   -3.3990 ha        1 OA4      0.201000
     26 H101        4.2540    0.6840   -1.0520 hc        1 OA4      0.071367
     27 H102        4.0230   -0.6220   -2.2570 hc        1 OA4      0.071367
     28 H103        4.0330   -1.0750   -0.5330 hc        1 OA4      0.071367
     29 H25         3.4880    1.6520   -3.1810 ha        1 OA4      0.136000
     30 H22         2.0740   -1.5020   -6.7900 ha        1 OA4      0.166500
     31 H23         1.0110   -1.6420   -4.5470 ha        1 OA4      0.136000
     32 H26         4.5300    1.7930   -5.4350 ha        1 OA4      0.166500
     33 H73         3.6950    0.7330    2.5120 hn        1 OA4      0.489133
     34 H143       -1.8550   -0.1730    3.3250 hn        1 OA4      0.493467
     35 H27         3.8320    0.2160   -7.2430 ha        1 OA4      0.170000
@<TRIPOS>BOND
     1    1    2 ar  
     2    1    6 ar  
     3    1    8 ar  
     4    2    3 ar  
     5    2   11 ar  
     6    3    4 ar  
     7    3    7 1   
     8    4    5 ar  
     9    5    6 ar  
    10    5   12 1   
    11    7   21 1   
    12    7   22 1   
    13    7   33 1   
    14    8    9 ar  
    15    8   20 1   
    16    9   10 ar  
    17    9   25 1   
    18   10   11 ar  
    19   10   18 1   
    20   11   15 1   
    21   12   23 1   
    22   12   24 1   
    23   12   34 1   
    24   13   14 ar  
    25   13   19 ar  
    26   13   32 1   
    27   14   16 ar  
    28   14   35 1   
    29   15   26 1   
    30   15   27 1   
    31   15   28 1   
    32   16   17 ar  
    33   16   30 1   
    34   17   18 ar  
    35   17   31 1   
    36   18   19 ar  
    37   19   29 1   
@<TRIPOS>SUBSTRUCTURE
     1 OA4         1 TEMP              0 ****  ****    0 ROOT
