@<TRIPOS>MOLECULE
OA4
   33    26     1     0     0
SMALL
bcc


@<TRIPOS>ATOM
      1 C1         -1.5680    0.2310    1.5640 c1        1 OA4      0.089000
      2 C2         -0.2150    0.2370    1.5790 c1        1 OA4     -0.196000
      3 C3          0.4630    0.3120    2.7900 c1        1 OA4      0.206000
      4 N4         -0.2300    0.3780    3.9490 n1        1 OA4     -0.306000
      5 C5         -1.5920    0.3710    3.9330 c1        1 OA4      0.185000
      6 N6         -2.2640    0.2970    2.7390 n1        1 OA4     -0.265000
      7 N7          1.8980    0.2330    2.8170 n3        1 OA4     -0.344000
      8 C8         -2.2640    0.1820    0.3230 c1        1 OA4     -0.142000
      9 C9         -1.5610    0.1420   -0.8630 c1        1 OA4     -0.098500
     10 C12        -0.1790    0.1480   -0.8490 c1        1 OA4     -0.062000
     11 C13         0.5060    0.1950    0.3600 c1        1 OA4      0.008000
     12 N14        -2.3160    0.4950    5.1530 n3        1 OA4     -0.319000
     13 C26         0.6660    0.4430   -4.4220 c1        1 OA4     -0.128250
     14 C27         0.8200   -0.8990   -4.7680 c1        1 OA4     -0.128250
     15 C10         2.0010    0.3680    0.3660 c3        1 OA4     -0.196000
     16 C22         0.6480   -1.8920   -3.8010 c1        1 OA4     -0.128250
     17 C23         0.3230   -1.5410   -2.4980 c1        1 OA4     -0.098500
     18 CAP         0.1690   -0.2010   -2.1540 c1        1 OA4     -0.062000
     19 C25         0.3400    0.7900   -3.1170 c1        1 OA4     -0.128250
     20 H8         -3.2310    0.1770    0.3100 ha        1 OA4      0.153000
     21 H71N        2.4040    1.0110    2.8710 hn        1 OA4      0.218500
     22 H72N        2.3080   -0.5680    2.7430 hn        1 OA4      0.218500
     23 H141       -1.8760    0.7750    5.9310 hn        1 OA4      0.217500
     24 H142       -3.1990    0.3170    5.1730 hn        1 OA4      0.217500
     25 H9         -2.0370    0.1090   -1.7070 ha        1 OA4      0.138000
     26 H101        2.2350    1.1600    0.8960 hc        1 OA4      0.093000
     27 H102        2.3190    0.4820   -0.5460 hc        1 OA4      0.093000
     28 H103        2.4100   -0.4100    0.7520 hc        1 OA4      0.093000
     29 H26         0.7880    1.1480   -5.1060 ha        1 OA4      0.133500
     30 H27         1.0510   -1.1470   -5.6940 ha        1 OA4      0.133500
     31 H25         0.2290    1.7420   -2.8700 ha        1 OA4      0.133500
     32 H22         0.7570   -2.8410   -4.0430 ha        1 OA4      0.133500
     33 H23         0.2000   -2.2440   -1.8120 ha        1 OA4      0.138000
@<TRIPOS>BOND
     1    1    6 1   
     2    1    8 1   
     3    2    3 1   
     4    2   11 1   
     5    3    7 1   
     6    4    5 1   
     7    5   12 1   
     8    7   21 1   
     9    7   22 1   
    10    8   20 1   
    11    9   10 1   
    12    9   25 1   
    13   11   15 1   
    14   12   23 1   
    15   12   24 1   
    16   13   19 1   
    17   13   29 1   
    18   14   16 1   
    19   14   30 1   
    20   15   26 1   
    21   15   27 1   
    22   15   28 1   
    23   16   32 1   
    24   17   18 1   
    25   17   33 1   
    26   19   31 1   
@<TRIPOS>SUBSTRUCTURE
     1 OA4         1 TEMP              0 ****  ****    0 ROOT
