@<TRIPOS>MOLECULE
OA4
   33    35     1     0     0
SMALL
bcc


@<TRIPOS>ATOM
      1 C1          0.0650    0.0170    0.0230 ca        1 OA4      0.483600
      2 C2          1.4990    0.0230    0.0340 ca        1 OA4     -0.326600
      3 C3          2.0920    0.1190    1.3710 ca        1 OA4      0.727200
      4 N4          1.3530    0.0060    2.4950 nb        1 OA4     -0.832000
      5 C5         -0.0270   -0.1780    2.3420 ca        1 OA4      0.904900
      6 N6         -0.6990   -0.0900    1.1580 nb        1 OA4     -0.791000
      7 N7          3.4540    0.3330    1.5400 nh        1 OA4     -0.946500
      8 C8         -0.6140    0.1240   -1.2350 ca        1 OA4     -0.206300
      9 C9          0.1010    0.1700   -2.3990 ca        1 OA4     -0.080000
     10 C12         1.5160    0.0620   -2.3970 cp        1 OA4     -0.084000
     11 C13         2.2090   -0.0600   -1.1970 ca        1 OA4     -0.001300
     12 N14        -0.7520   -0.4890    3.5000 nh        1 OA4     -0.921500
     13 C26         3.8040    0.9930   -5.2460 ca        1 OA4     -0.131000
     14 C27         3.3940    0.0930   -6.2300 ca        1 OA4     -0.128000
     15 C10         3.6630   -0.3640   -1.2540 c3        1 OA4     -0.070800
     16 C22         2.3780   -0.8210   -5.9520 ca        1 OA4     -0.131000
     17 C23         1.7720   -0.8360   -4.6980 ca        1 OA4     -0.120500
     18 CAP         2.1830    0.0620   -3.7030 cp        1 OA4     -0.032000
     19 C25         3.2040    0.9780   -3.9890 ca        1 OA4     -0.120500
     20 H8         -1.7140    0.1620   -1.2450 ha        1 OA4      0.153000
     21 H71N        3.9100    0.8460    0.8240 hn        1 OA4      0.423300
     22 H72N        3.7820    0.4990    2.4650 hn        1 OA4      0.423300
     23 H141       -0.3170   -0.2660    4.3660 hn        1 OA4      0.422800
     24 H142       -1.7330   -0.3360    3.4550 hn        1 OA4      0.422800
     25 H9         -0.4160    0.2720   -3.3660 ha        1 OA4      0.139000
     26 H101        3.9520   -1.1100   -0.4730 hc        1 OA4      0.053033
     27 H102        3.9310   -0.8120   -2.2460 hc        1 OA4      0.053033
     28 H103        4.2750    0.5650   -1.1400 hc        1 OA4      0.053033
     29 H27         3.8690    0.1060   -7.2210 ha        1 OA4      0.132000
     30 H25         3.5290    1.6880   -3.2130 ha        1 OA4      0.135000
     31 H22         2.0530   -1.5330   -6.7250 ha        1 OA4      0.132000
     32 H23         0.9690   -1.5570   -4.4810 ha        1 OA4      0.135000
     33 H26         4.6020    1.7180   -5.4630 ha        1 OA4      0.132000
@<TRIPOS>BOND
     1    1    2 ar  
     2    1    6 ar  
     3    1    8 ar  
     4    2    3 ar  
     5    2   11 ar  
     6    3    4 ar  
     7    3    7 1   
     8    4    5 ar  
     9    5    6 ar  
    10    5   12 1   
    11    7   21 1   
    12    7   22 1   
    13    8    9 ar  
    14    8   20 1   
    15    9   10 ar  
    16    9   25 1   
    17   10   11 ar  
    18   10   18 1   
    19   11   15 1   
    20   12   23 1   
    21   12   24 1   
    22   13   14 ar  
    23   13   19 ar  
    24   13   33 1   
    25   14   16 ar  
    26   14   29 1   
    27   15   26 1   
    28   15   27 1   
    29   15   28 1   
    30   16   17 ar  
    31   16   31 1   
    32   17   18 ar  
    33   17   32 1   
    34   18   19 ar  
    35   19   30 1   
@<TRIPOS>SUBSTRUCTURE
     1 OA4         1 TEMP              0 ****  ****    0 ROOT
