@<TRIPOS>MOLECULE
OA4
   33    35     1     0     0
SMALL
bcc


@<TRIPOS>ATOM
      1 C1          0.0690    0.0260    0.0270 ca        1 OA4      0.483600
      2 C2          1.5020    0.0220    0.0350 ca        1 OA4     -0.326600
      3 C3          2.0990    0.1110    1.3710 ca        1 OA4      0.727200
      4 N4          1.3610    0.0010    2.4960 nb        1 OA4     -0.832000
      5 C5         -0.0200   -0.1730    2.3460 ca        1 OA4      0.904900
      6 N6         -0.6940   -0.0780    1.1630 nb        1 OA4     -0.791000
      7 N7          3.4630    0.3160    1.5370 nv        1 OA4     -0.946500
      8 C8         -0.6120    0.1400   -1.2290 ca        1 OA4     -0.206300
      9 C9          0.1010    0.1830   -2.3950 ca        1 OA4     -0.080000
     10 C12         1.5140    0.0660   -2.3960 cp        1 OA4     -0.084000
     11 C13         2.2090   -0.0630   -1.1980 ca        1 OA4     -0.001300
     12 N14        -0.7450   -0.4820    3.5050 nv        1 OA4     -0.921500
     13 C26         3.8030    0.9870   -5.2480 ca        1 OA4     -0.131000
     14 C27         3.3840    0.0920   -6.2330 ca        1 OA4     -0.128000
     15 C10         3.6600   -0.3770   -1.2590 c3        1 OA4     -0.070800
     16 C22         2.3630   -0.8160   -5.9550 ca        1 OA4     -0.131000
     17 C23         1.7590   -0.8290   -4.6990 ca        1 OA4     -0.120500
     18 CAP         2.1780    0.0640   -3.7030 cp        1 OA4     -0.032000
     19 C25         3.2060    0.9740   -3.9890 ca        1 OA4     -0.120500
     20 H8         -1.7130    0.1860   -1.2360 ha        1 OA4      0.153000
     21 H71N        3.9210    0.8280    0.8210 hn        1 OA4      0.423300
     22 H72N        3.7940    0.4780    2.4620 hn        1 OA4      0.423300
     23 H141       -0.3070   -0.2630    4.3700 hn        1 OA4      0.422800
     24 H142       -1.7250   -0.3220    3.4620 hn        1 OA4      0.422800
     25 H9         -0.4180    0.2910   -3.3610 ha        1 OA4      0.139000
     26 H101        3.9240   -0.8250   -2.2520 hc        1 OA4      0.053033
     27 H102        4.2800    0.5480   -1.1440 hc        1 OA4      0.053033
     28 H103        3.9470   -1.1260   -0.4790 hc        1 OA4      0.053033
     29 H27         3.8570    0.1040   -7.2250 ha        1 OA4      0.132000
     30 H25         3.5370    1.6800   -3.2140 ha        1 OA4      0.135000
     31 H22         2.0310   -1.5240   -6.7290 ha        1 OA4      0.132000
     32 H23         0.9520   -1.5450   -4.4820 ha        1 OA4      0.135000
     33 H26         4.6060    1.7070   -5.4650 ha        1 OA4      0.132000
@<TRIPOS>BOND
     1    1    2 ar  
     2    1    6 ar  
     3    1    8 ar  
     4    2    3 ar  
     5    2   11 ar  
     6    3    4 ar  
     7    3    7 1   
     8    4    5 ar  
     9    5    6 ar  
    10    5   12 1   
    11    7   21 1   
    12    7   22 1   
    13    8    9 ar  
    14    8   20 1   
    15    9   10 ar  
    16    9   25 1   
    17   10   11 ar  
    18   10   18 1   
    19   11   15 1   
    20   12   23 1   
    21   12   24 1   
    22   13   14 ar  
    23   13   19 ar  
    24   13   33 1   
    25   14   16 ar  
    26   14   29 1   
    27   15   26 1   
    28   15   27 1   
    29   15   28 1   
    30   16   17 ar  
    31   16   31 1   
    32   17   18 ar  
    33   17   32 1   
    34   18   19 ar  
    35   19   30 1   
@<TRIPOS>SUBSTRUCTURE
     1 OA4         1 TEMP              0 ****  ****    0 ROOT
