@<TRIPOS>MOLECULE
OA5
   31    32     1     0     0
SMALL
bcc


@<TRIPOS>ATOM
      1 N10         4.7060    1.8720    1.2530 nh        1 OA5     -0.945000
      2 C6          4.0270    0.8530    0.6010 ca        1 OA5      0.943400
      3 N8          4.7570   -0.2610    0.2150 nb        1 OA5     -0.865000
      4 C5          4.0440   -1.2020   -0.5170 ca        1 OA5      0.943400
      5 N9          4.7400   -2.2950   -1.0020 nh        1 OA5     -0.945000
      6 N2          2.6860   -1.1190   -0.8290 nb        1 OA5     -0.844500
      7 N3          2.6690    1.0430    0.3500 nb        1 OA5     -0.844500
      8 C1          2.0910    0.0230   -0.3600 ca        1 OA5      0.922300
      9 O4          0.7510    0.0720   -0.6820 os        1 OA5     -0.420100
     10 C7          0.0130    1.2250   -0.2350 c3        1 OA5      0.135400
     11 C11        -1.4170    0.9750   -0.7080 c3        1 OA5      0.118400
     12 O12        -2.1530    0.6080    0.4640 os        1 OA5     -0.331900
     13 C13        -3.4660    0.2300    0.2590 ca        1 OA5      0.127100
     14 C15        -4.1310   -0.2280    1.4130 ca        1 OA5     -0.179000
     15 C17        -5.4620   -0.6160    1.3160 ca        1 OA5     -0.097500
     16 C18        -6.1320   -0.5560    0.0920 ca        1 OA5     -0.164000
     17 C16        -5.4650   -0.1030   -1.0440 ca        1 OA5     -0.097500
     18 C14        -4.1290    0.2940   -0.9720 ca        1 OA5     -0.179000
     19 H101        5.6210    1.6900    1.5870 hn        1 OA5      0.443300
     20 H102        4.1760    2.5850    1.6920 hn        1 OA5      0.443300
     21 H91N        5.6620   -2.4570   -0.6810 hn        1 OA5      0.443300
     22 H92N        4.2310   -3.0470   -1.3990 hn        1 OA5      0.443300
     23 H71C        0.0620    1.3060    0.8810 h1        1 OA5      0.073200
     24 H72C        0.4320    2.1450   -0.7170 h1        1 OA5      0.073200
     25 H111       -1.8520    1.9140   -1.1390 h1        1 OA5      0.060200
     26 H112       -1.4530    0.1450   -1.4630 h1        1 OA5      0.060200
     27 H15        -3.5890   -0.2710    2.3680 ha        1 OA5      0.142000
     28 H14        -3.6170    0.6490   -1.8770 ha        1 OA5      0.142000
     29 H17        -5.9890   -0.9750    2.2130 ha        1 OA5      0.132000
     30 H18        -7.1840   -0.8670    0.0260 ha        1 OA5      0.133000
     31 H16        -5.9910   -0.0560   -2.0090 ha        1 OA5      0.132000
@<TRIPOS>BOND
     1    1    2 1   
     2    1   19 1   
     3    1   20 1   
     4    2    3 ar  
     5    2    7 ar  
     6    3    4 ar  
     7    4    5 1   
     8    4    6 ar  
     9    5   21 1   
    10    5   22 1   
    11    6    8 ar  
    12    7    8 ar  
    13    8    9 1   
    14    9   10 1   
    15   10   11 1   
    16   10   23 1   
    17   10   24 1   
    18   11   12 1   
    19   11   25 1   
    20   11   26 1   
    21   12   13 1   
    22   13   14 ar  
    23   13   18 ar  
    24   14   15 ar  
    25   14   27 1   
    26   15   16 ar  
    27   15   29 1   
    28   16   17 ar  
    29   16   30 1   
    30   17   18 ar  
    31   17   31 1   
    32   18   28 1   
@<TRIPOS>SUBSTRUCTURE
     1 OA5         1 TEMP              0 ****  ****    0 ROOT
