@<TRIPOS>MOLECULE
OA5
   31    28     1     0     0
SMALL
bcc


@<TRIPOS>ATOM
      1 N10        -3.8380   -2.8620   -1.0520 n3        1 OA5     -0.339000
      2 C6         -3.4370   -2.0480    0.1600 c2        1 OA5      0.227000
      3 N8         -4.3000   -1.9490    1.2460 n2        1 OA5     -0.336000
      4 C5         -3.9750   -1.2070    2.2760 c1        1 OA5      0.220000
      5 N9         -4.8390   -1.1030    3.3510 n2        1 OA5     -0.342000
      6 N2         -2.8170   -0.5440    2.2830 n2        1 OA5     -0.292000
      7 N3         -2.2790   -1.3860    0.1660 n1        1 OA5     -0.345000
      8 C1         -1.9540   -0.6420    1.1990 c1        1 OA5      0.226000
      9 O4         -0.8270    0.1500    1.1450 os        1 OA5     -0.189000
     10 C7          0.4170   -0.5760    1.3540 c3        1 OA5     -0.043000
     11 C11         1.6190    0.3200    0.9250 c3        1 OA5     -0.031000
     12 O12         2.1280   -0.1420   -0.3360 os        1 OA5     -0.218000
     13 C13         2.7260    0.8660   -1.1200 c2        1 OA5      0.067000
     14 C15         2.0100    1.4660   -2.1030 c2        1 OA5     -0.194000
     15 C17         2.6030    2.3530   -2.9320 c1        1 OA5     -0.098000
     16 C18         3.9610    2.6550   -2.7810 c1        1 OA5     -0.133500
     17 C16         4.6870    2.0530   -1.7920 c1        1 OA5     -0.133500
     18 C14         4.0880    1.1640   -0.9620 c1        1 OA5     -0.154000
     19 H101       -4.5620   -3.3960   -1.0160 hn        1 OA5      0.236000
     20 H102       -3.3570   -2.8660   -1.7230 hn        1 OA5      0.236000
     21 H91N       -5.5560   -1.7470    3.4520 hn        1 OA5      0.239500
     22 H92N       -4.8290   -0.2900    3.9110 hn        1 OA5      0.239500
     23 H71C        0.5070   -0.8260    2.3690 h1        1 OA5      0.111000
     24 H72C        0.4110   -1.3870    0.8230 h1        1 OA5      0.111000
     25 H111        1.3220    1.2370    0.8380 h1        1 OA5      0.115000
     26 H112        2.3350    0.2710    1.6140 h1        1 OA5      0.115000
     27 H15         1.1050    1.2670   -2.2040 ha        1 OA5      0.160000
     28 H14         4.5830    0.7470   -0.2790 ha        1 OA5      0.146000
     29 H17         2.0410    2.8160   -3.6950 ha        1 OA5      0.134000
     30 H18         4.4220    3.3480   -3.4290 ha        1 OA5      0.131500
     31 H16         5.6050    2.2550   -1.6880 ha        1 OA5      0.131500
@<TRIPOS>BOND
     1    1    2 1   
     2    1   19 1   
     3    1   20 1   
     4    2    3 1   
     5    2    7 1   
     6    3    4 1   
     7    4    6 1   
     8    5   21 1   
     9    5   22 1   
    10    6    8 1   
    11    8    9 1   
    12    9   10 1   
    13   10   11 1   
    14   10   23 1   
    15   10   24 1   
    16   11   12 1   
    17   11   25 1   
    18   11   26 1   
    19   12   13 1   
    20   13   14 1   
    21   13   18 1   
    22   14   15 1   
    23   14   27 1   
    24   15   29 1   
    25   16   17 1   
    26   16   30 1   
    27   17   31 1   
    28   18   28 1   
@<TRIPOS>SUBSTRUCTURE
     1 OA5         1 TEMP              0 ****  ****    0 ROOT
