@<TRIPOS>MOLECULE
OA5
   31    32     1     0     0
SMALL
bcc


@<TRIPOS>ATOM
      1 N10         0.0590   -0.7130    0.1810 nv        1 OA5     -0.943000
      2 C6          1.3750   -0.2850    0.1000 ca        1 OA5      0.942400
      3 N8          2.0400   -0.0230    1.2890 nb        1 OA5     -0.863000
      4 C5          3.3730    0.3350    1.1460 ca        1 OA5      0.942400
      5 N9          4.0700    0.6790    2.2940 nv        1 OA5     -0.943000
      6 N2          4.0600    0.4180   -0.0670 nb        1 OA5     -0.844000
      7 N3          1.9440   -0.1910   -1.1690 nb        1 OA5     -0.844000
      8 C1          3.2720    0.1480   -1.1550 ca        1 OA5      0.922300
      9 O4          3.9740    0.2630   -2.3370 os        1 OA5     -0.420100
     10 C7          3.2630   -0.0440   -3.5520 c3        1 OA5      0.135400
     11 C11         4.3050    0.1090   -4.6570 c3        1 OA5      0.118400
     12 O12         4.6430   -1.2240   -5.0560 os        1 OA5     -0.331900
     13 C13         5.6610   -1.3370   -5.9830 ca        1 OA5      0.127100
     14 C15         6.0480   -2.6600   -6.2700 ca        1 OA5     -0.179000
     15 C17         7.0530   -2.8820   -7.2040 ca        1 OA5     -0.097500
     16 C18         7.6740   -1.8090   -7.8480 ca        1 OA5     -0.164000
     17 C16         7.2850   -0.5040   -7.5560 ca        1 OA5     -0.097500
     18 C14         6.2770   -0.2550   -6.6230 ca        1 OA5     -0.179000
     19 H101       -0.4140   -0.6250    1.0480 hn        1 OA5      0.442050
     20 H102       -0.4790   -0.7470   -0.6500 hn        1 OA5      0.442050
     21 H91N        3.6700    0.4570    3.1730 hn        1 OA5      0.442050
     22 H92N        5.0550    0.7750    2.2340 hn        1 OA5      0.442050
     23 H71C        2.8640   -1.0900   -3.5130 h1        1 OA5      0.072700
     24 H72C        2.4310    0.6920   -3.6910 h1        1 OA5      0.072700
     25 H111        3.8640    0.6560   -5.5310 h1        1 OA5      0.060200
     26 H112        5.2170    0.6440   -4.2810 h1        1 OA5      0.060200
     27 H15         5.5510   -3.4930   -5.7540 ha        1 OA5      0.142500
     28 H14         5.9820    0.7800   -6.4040 ha        1 OA5      0.142500
     29 H17         7.3610   -3.9130   -7.4350 ha        1 OA5      0.132000
     30 H18         8.4690   -1.9960   -8.5840 ha        1 OA5      0.133000
     31 H16         7.7740    0.3420   -8.0610 ha        1 OA5      0.132000
@<TRIPOS>BOND
     1    1    2 1   
     2    1   19 1   
     3    1   20 1   
     4    2    3 ar  
     5    2    7 ar  
     6    3    4 ar  
     7    4    5 1   
     8    4    6 ar  
     9    5   21 1   
    10    5   22 1   
    11    6    8 ar  
    12    7    8 ar  
    13    8    9 1   
    14    9   10 1   
    15   10   11 1   
    16   10   23 1   
    17   10   24 1   
    18   11   12 1   
    19   11   25 1   
    20   11   26 1   
    21   12   13 1   
    22   13   14 ar  
    23   13   18 ar  
    24   14   15 ar  
    25   14   27 1   
    26   15   16 ar  
    27   15   29 1   
    28   16   17 ar  
    29   16   30 1   
    30   17   18 ar  
    31   17   31 1   
    32   18   28 1   
@<TRIPOS>SUBSTRUCTURE
     1 OA5         1 TEMP              0 ****  ****    0 ROOT
