@<TRIPOS>MOLECULE
OA5
   33    34     1     0     0
SMALL
bcc


@<TRIPOS>ATOM
      1 N10         1.9310   -2.4160   -1.0200 n4        1 OA5     -0.825300
      2 C6          2.6230   -1.1030   -0.8530 ca        1 OA5      0.818400
      3 N8          3.3750   -0.9470    0.2930 nb        1 OA5     -0.748000
      4 C5          3.9930    0.2900    0.3580 ca        1 OA5      0.818400
      5 N9          4.8160    0.5530    1.5760 n4        1 OA5     -0.825300
      6 N2          3.9470    1.2830   -0.5650 nb        1 OA5     -0.681500
      7 N3          2.4470   -0.1980   -1.8510 nb        1 OA5     -0.681500
      8 C1          3.1620    0.9880   -1.6880 ca        1 OA5      1.004300
      9 O4          3.1230    1.9890   -2.5740 os        1 OA5     -0.340100
     10 C7          2.6910    1.7410   -3.9470 c3        1 OA5      0.131400
     11 C11         3.8440    1.1530   -4.7450 c3        1 OA5      0.095400
     12 O12         4.2010   -0.0820   -4.1110 os        1 OA5     -0.409900
     13 C13         4.9800   -0.9090   -4.9260 ca        1 OA5      0.048100
     14 C15         4.3660   -1.6830   -5.9180 ca        1 OA5     -0.146000
     15 C17         5.1470   -2.5740   -6.6530 ca        1 OA5     -0.105000
     16 C18         6.5170   -2.6820   -6.4010 ca        1 OA5     -0.106000
     17 C16         7.1160   -1.8980   -5.4140 ca        1 OA5     -0.105000
     18 C14         6.3530   -0.9990   -4.6700 ca        1 OA5     -0.146000
     19 H101        0.9310   -2.2560   -1.2280 hn        1 OA5      0.505133
     20 H102        2.3640   -2.9190   -1.8140 hn        1 OA5      0.505133
     21 H91N        5.2330    1.5000    1.5250 hn        1 OA5      0.505133
     22 H92N        4.2180    0.4880    2.4150 hn        1 OA5      0.505133
     23 H71C        2.4660    2.7940   -4.2840 h1        1 OA5      0.116700
     24 H72C        1.7730    1.1060   -3.9690 h1        1 OA5      0.116700
     25 H111        3.5070    0.9780   -5.8020 h1        1 OA5      0.091200
     26 H112        4.7360    1.8340   -4.7330 h1        1 OA5      0.091200
     27 H15         3.2920   -1.5770   -6.1220 ha        1 OA5      0.138500
     28 H14         6.8190   -0.3620   -3.9060 ha        1 OA5      0.138500
     29 H17         4.6830   -3.1860   -7.4440 ha        1 OA5      0.158000
     30 H18         7.1290   -3.3820   -6.9930 ha        1 OA5      0.163000
     31 H16         8.2000   -1.9780   -5.2310 ha        1 OA5      0.158000
     32 H103        2.0180   -2.9870   -0.1640 hn        1 OA5      0.505133
     33 H93         5.5700   -0.1490    1.6390 hn        1 OA5      0.505133
@<TRIPOS>BOND
     1    1    2 1   
     2    1   19 1   
     3    1   20 1   
     4    1   32 1   
     5    2    3 ar  
     6    2    7 ar  
     7    3    4 ar  
     8    4    5 1   
     9    4    6 ar  
    10    5   21 1   
    11    5   22 1   
    12    5   33 1   
    13    6    8 ar  
    14    7    8 ar  
    15    8    9 1   
    16    9   10 1   
    17   10   11 1   
    18   10   23 1   
    19   10   24 1   
    20   11   12 1   
    21   11   25 1   
    22   11   26 1   
    23   12   13 1   
    24   13   14 ar  
    25   13   18 ar  
    26   14   15 ar  
    27   14   27 1   
    28   15   16 ar  
    29   15   29 1   
    30   16   17 ar  
    31   16   30 1   
    32   17   18 ar  
    33   17   31 1   
    34   18   28 1   
@<TRIPOS>SUBSTRUCTURE
     1 OA5         1 TEMP              0 ****  ****    0 ROOT
