@<TRIPOS>MOLECULE
OA5
   31    32     1     0     0
SMALL
bcc


@<TRIPOS>ATOM
      1 N10         0.0740   -0.6980    0.1990 nh        1 OA5     -0.943000
      2 C6          1.3860   -0.2580    0.1050 ca        1 OA5      0.942400
      3 N8          2.0520    0.0300    1.2870 nb        1 OA5     -0.863000
      4 C5          3.3820    0.3980    1.1330 ca        1 OA5      0.942400
      5 N9          4.0800    0.7680    2.2720 nh        1 OA5     -0.943000
      6 N2          4.0630    0.4680   -0.0840 nb        1 OA5     -0.844000
      7 N3          1.9490   -0.1790   -1.1680 nb        1 OA5     -0.844000
      8 C1          3.2730    0.1730   -1.1650 ca        1 OA5      0.922300
      9 O4          3.9690    0.2760   -2.3510 os        1 OA5     -0.420100
     10 C7          3.2570   -0.0590   -3.5580 c3        1 OA5      0.135400
     11 C11         4.2930    0.0870   -4.6700 c3        1 OA5      0.118400
     12 O12         4.6430   -1.2490   -5.0480 os        1 OA5     -0.331900
     13 C13         5.6580   -1.3670   -5.9770 ca        1 OA5      0.127100
     14 C15         6.0570   -2.6910   -6.2450 ca        1 OA5     -0.179000
     15 C17         7.0600   -2.9190   -7.1790 ca        1 OA5     -0.097500
     16 C18         7.6680   -1.8500   -7.8430 ca        1 OA5     -0.164000
     17 C16         7.2670   -0.5440   -7.5700 ca        1 OA5     -0.097500
     18 C14         6.2610   -0.2900   -6.6380 ca        1 OA5     -0.179000
     19 H101       -0.3960   -0.6010    1.0660 hn        1 OA5      0.442050
     20 H102       -0.4660   -0.7510   -0.6300 hn        1 OA5      0.442050
     21 H91N        3.6860    0.5570    3.1560 hn        1 OA5      0.442050
     22 H92N        5.0640    0.8740    2.2070 hn        1 OA5      0.442050
     23 H71C        2.8690   -1.1080   -3.5000 h1        1 OA5      0.072700
     24 H72C        2.4170    0.6660   -3.7050 h1        1 OA5      0.072700
     25 H111        5.2010    0.6370   -4.3060 h1        1 OA5      0.060200
     26 H112        3.8430    0.6140   -5.5510 h1        1 OA5      0.060200
     27 H15         5.5710   -3.5200   -5.7120 ha        1 OA5      0.142500
     28 H14         5.9560    0.7450   -6.4340 ha        1 OA5      0.142500
     29 H17         7.3780   -3.9500   -7.3940 ha        1 OA5      0.132000
     30 H18         8.4620   -2.0410   -8.5790 ha        1 OA5      0.133000
     31 H16         7.7450    0.2980   -8.0920 ha        1 OA5      0.132000
@<TRIPOS>BOND
     1    1    2 1   
     2    1   19 1   
     3    1   20 1   
     4    2    3 ar  
     5    2    7 ar  
     6    3    4 ar  
     7    4    5 1   
     8    4    6 ar  
     9    5   21 1   
    10    5   22 1   
    11    6    8 ar  
    12    7    8 ar  
    13    8    9 1   
    14    9   10 1   
    15   10   11 1   
    16   10   23 1   
    17   10   24 1   
    18   11   12 1   
    19   11   25 1   
    20   11   26 1   
    21   12   13 1   
    22   13   14 ar  
    23   13   18 ar  
    24   14   15 ar  
    25   14   27 1   
    26   15   16 ar  
    27   15   29 1   
    28   16   17 ar  
    29   16   30 1   
    30   17   18 ar  
    31   17   31 1   
    32   18   28 1   
@<TRIPOS>SUBSTRUCTURE
     1 OA5         1 TEMP              0 ****  ****    0 ROOT
