@<TRIPOS>MOLECULE
OAA
   11    10     1     0     0
SMALL
bcc


@<TRIPOS>ATOM
      1 O1          0.3510    0.8830   -0.5460 o         1 OAA     -0.876300
      2 O2          1.7160   -0.8520   -0.7750 o         1 OAA     -0.876300
      3 O4          2.5410   -0.8740    4.2910 o         1 OAA     -0.856300
      4 O5          1.1730    0.8650    4.5210 o         1 OAA     -0.856300
      5 O3          0.0340   -1.1690    2.3560 o         1 OAA     -0.601100
      6 C1          1.2020    0.0700   -0.0710 c         1 OAA      0.920600
      7 C2          1.7100    0.2810    1.3590 c3        1 OAA     -0.284400
      8 C3          1.0100   -0.4170    2.4830 c         1 OAA      0.504100
      9 C4          1.6140   -0.1240    3.8650 c         1 OAA      0.830600
     10 H21         1.6650    1.3790    1.5870 hc        1 OAA      0.048700
     11 H22         2.7840   -0.0430    1.4000 hc        1 OAA      0.048700
@<TRIPOS>BOND
     1    1    6 1   
     2    2    6 1   
     3    3    9 1   
     4    4    9 1   
     5    5    8 2   
     6    6    7 1   
     7    7    8 1   
     8    7   10 1   
     9    7   11 1   
    10    8    9 1   
@<TRIPOS>SUBSTRUCTURE
     1 OAA         1 TEMP              0 ****  ****    0 ROOT
