@<TRIPOS>MOLECULE
OAA
   11    10     1     0     0
SMALL
bcc


@<TRIPOS>ATOM
      1 O1         -2.6750   -0.0470    1.0720 o         1 OAA     -0.876300
      2 O2         -2.6560    0.0720   -1.1450 o         1 OAA     -0.876300
      3 O4          2.4280    0.4970    1.1490 o         1 OAA     -0.856300
      4 O5          2.4480    0.6160   -1.0730 o         1 OAA     -0.856300
      5 O3          0.3410   -1.5570   -0.0940 o         1 OAA     -0.601100
      6 C1         -2.0700    0.1680   -0.0230 c         1 OAA      0.920600
      7 C2         -0.6230    0.6720    0.0170 c3        1 OAA     -0.284400
      8 C3          0.4890   -0.3290   -0.0270 c         1 OAA      0.504100
      9 C4          1.8890    0.3010    0.0190 c         1 OAA      0.830600
     10 H21        -0.4850    1.2630    0.9610 hc        1 OAA      0.048700
     11 H22        -0.4690    1.3600   -0.8560 hc        1 OAA      0.048700
@<TRIPOS>BOND
     1    1    6 1   
     2    2    6 1   
     3    3    9 1   
     4    4    9 1   
     5    5    8 2   
     6    6    7 1   
     7    7    8 1   
     8    7   10 1   
     9    7   11 1   
    10    8    9 1   
@<TRIPOS>SUBSTRUCTURE
     1 OAA         1 TEMP              0 ****  ****    0 ROOT
