@<TRIPOS>MOLECULE
OAA
   11    10     1     0     0
SMALL
bcc


@<TRIPOS>ATOM
      1 O1          0.4130   -0.9490   -0.5480 o         1 OAA     -0.876300
      2 O2          1.6710    0.8650   -0.7750 o         1 OAA     -0.876300
      3 O4          2.4800    0.9410    4.2930 o         1 OAA     -0.856300
      4 O5          1.2180   -0.8770    4.5210 o         1 OAA     -0.856300
      5 O3         -0.0350    1.0820    2.3510 o         1 OAA     -0.601100
      6 C1          1.2120   -0.0860   -0.0710 c         1 OAA      0.920600
      7 C2          1.7280   -0.2650    1.3600 c3        1 OAA     -0.284400
      8 C3          0.9840    0.3920    2.4820 c         1 OAA      0.504100
      9 C4          1.6010    0.1370    3.8650 c         1 OAA      0.830600
     10 H21         2.7800    0.1240    1.4030 hc        1 OAA      0.048700
     11 H22         1.7490   -1.3630    1.5890 hc        1 OAA      0.048700
@<TRIPOS>BOND
     1    1    6 1   
     2    2    6 1   
     3    3    9 1   
     4    4    9 1   
     5    5    8 2   
     6    6    7 1   
     7    7    8 1   
     8    7   10 1   
     9    7   11 1   
    10    8    9 1   
@<TRIPOS>SUBSTRUCTURE
     1 OAA         1 TEMP              0 ****  ****    0 ROOT
