@<TRIPOS>MOLECULE
OAC
   24    24     1     0     0
SMALL
bcc


@<TRIPOS>ATOM
      1 O           0.5800   -1.0560   -3.1850 o         1 OAC     -0.840800
      2 C          -0.2520   -0.1610   -2.8640 c         1 OAC      0.914600
      3 CA         -0.1780    0.4130   -1.4190 c3        1 OAC     -0.193700
      4 CB1        -0.3600   -0.7430   -0.4480 c3        1 OAC     -0.034100
      5 CB2         1.1390    1.1270   -1.2390 c3        1 OAC     -0.078100
      6 CG         -0.3620   -0.3440    0.9860 ca        1 OAC     -0.117300
      7 CD1        -1.5620    0.0250    1.6040 ca        1 OAC     -0.101000
      8 CE1        -1.6040    0.3700    2.9530 ca        1 OAC     -0.176000
      9 CZ         -0.4380    0.3510    3.7160 ca        1 OAC     -0.124000
     10 CE2         0.7740   -0.0000    3.1310 ca        1 OAC     -0.172000
     11 CD2         0.8110   -0.3400    1.7680 ca        1 OAC      0.127100
     12 OH          2.0510   -0.6800    1.2780 oh        1 OAC     -0.524100
     13 OXT        -1.1410    0.3010   -3.6300 o         1 OAC     -0.840800
     14 HA         -1.0200    1.1420   -1.2830 hc        1 OAC      0.041700
     15 HB11       -1.3410   -1.2380   -0.6870 hc        1 OAC      0.057200
     16 HB12        0.4370   -1.5090   -0.6500 hc        1 OAC      0.057200
     17 HB21        1.9810    0.4590   -1.5500 hc        1 OAC      0.020700
     18 HB22        1.1650    2.0390   -1.8810 hc        1 OAC      0.020700
     19 HB23        1.2930    1.4350   -0.1760 hc        1 OAC      0.020700
     20 HD1        -2.4840    0.0420    1.0020 ha        1 OAC      0.135000
     21 HE1        -2.5590    0.6570    3.4150 ha        1 OAC      0.116000
     22 HZ         -0.4710    0.6190    4.7820 ha        1 OAC      0.113000
     23 HE2         1.7050   -0.0160    3.7140 ha        1 OAC      0.132000
     24 HH          1.9950   -0.7170    0.3070 ho        1 OAC      0.447000
@<TRIPOS>BOND
     1    1    2 1   
     2    2    3 1   
     3    2   13 1   
     4    3    4 1   
     5    3    5 1   
     6    3   14 1   
     7    4    6 1   
     8    4   15 1   
     9    4   16 1   
    10    5   17 1   
    11    5   18 1   
    12    5   19 1   
    13    6    7 ar  
    14    6   11 ar  
    15    7    8 ar  
    16    7   20 1   
    17    8    9 ar  
    18    8   21 1   
    19    9   10 ar  
    20    9   22 1   
    21   10   11 ar  
    22   10   23 1   
    23   11   12 1   
    24   12   24 1   
@<TRIPOS>SUBSTRUCTURE
     1 OAC         1 TEMP              0 ****  ****    0 ROOT
