@<TRIPOS>MOLECULE
OAC
   24    24     1     0     0
SMALL
bcc


@<TRIPOS>ATOM
      1 O           0.0810    1.0080    0.3710 o         1 OAC     -0.845300
      2 C           1.2390    0.5560    0.1380 c         1 OAC      0.911600
      3 CA          2.0390   -0.0860    1.3040 c3        1 OAC     -0.181700
      4 CB1         1.1300   -0.4790    2.4590 c3        1 OAC     -0.043100
      5 CB2         2.8410   -1.2640    0.8040 c3        1 OAC     -0.064100
      6 CG          1.7440   -0.2530    3.7950 ca        1 OAC     -0.048300
      7 CD1         2.1220    1.0360    4.1880 ca        1 OAC     -0.106000
      8 CE1         2.6890    1.2780    5.4390 ca        1 OAC     -0.167000
      9 CZ          2.8890    0.2280    6.3320 ca        1 OAC     -0.126000
     10 CE2         2.5170   -1.0660    5.9770 ca        1 OAC     -0.222000
     11 CD2         1.9460   -1.3010    4.7180 ca        1 OAC      0.102100
     12 OH          1.5470   -2.5680    4.3410 oh        1 OAC     -0.492100
     13 OXT         1.8070    0.6350   -0.9880 o         1 OAC     -0.845300
     14 HA          2.7520    0.7140    1.6470 hc        1 OAC      0.029700
     15 HB11        0.8280   -1.5540    2.3540 hc        1 OAC      0.073200
     16 HB12        0.1900    0.1420    2.3880 hc        1 OAC      0.073200
     17 HB21        3.5260   -1.6480    1.5980 hc        1 OAC      0.018367
     18 HB22        3.4420   -0.9510   -0.0850 hc        1 OAC      0.018367
     19 HB23        2.1630   -2.0940    0.4910 hc        1 OAC      0.018367
     20 HD1         1.9620    1.8670    3.4820 ha        1 OAC      0.154000
     21 HE1         2.9790    2.3010    5.7190 ha        1 OAC      0.118000
     22 HZ          3.3380    0.4160    7.3170 ha        1 OAC      0.112000
     23 HE2         2.6700   -1.8990    6.6760 ha        1 OAC      0.113000
     24 HH          1.8220   -3.1790    5.0380 ho        1 OAC      0.399000
@<TRIPOS>BOND
     1    1    2 1   
     2    2    3 1   
     3    2   13 1   
     4    3    4 1   
     5    3    5 1   
     6    3   14 1   
     7    4    6 1   
     8    4   15 1   
     9    4   16 1   
    10    5   17 1   
    11    5   18 1   
    12    5   19 1   
    13    6    7 ar  
    14    6   11 ar  
    15    7    8 ar  
    16    7   20 1   
    17    8    9 ar  
    18    8   21 1   
    19    9   10 ar  
    20    9   22 1   
    21   10   11 ar  
    22   10   23 1   
    23   11   12 1   
    24   12   24 1   
@<TRIPOS>SUBSTRUCTURE
     1 OAC         1 TEMP              0 ****  ****    0 ROOT
