@<TRIPOS>MOLECULE
OAC
   24    21     1     0     0
SMALL
bcc


@<TRIPOS>ATOM
      1 O           1.2150    1.7940   -2.9010 o         1 OAC     -0.580500
      2 C           0.1090    1.2520   -2.6410 c1        1 OAC      0.330000
      3 CA          0.0590    0.0080   -1.7820 c2        1 OAC     -0.180000
      4 CB1        -0.9070    0.2250   -0.6370 c3        1 OAC     -0.106000
      5 CB2        -0.4050   -1.1640   -2.6180 c3        1 OAC     -0.183000
      6 CG         -0.1510    0.1900    0.6730 c2        1 OAC     -0.059000
      7 CD1         0.8030    1.1570    0.9480 c2        1 OAC     -0.095000
      8 CE1         1.4540    1.1610    2.1720 c1        1 OAC     -0.168000
      9 CZ          1.1510    0.1970    3.1210 c1        1 OAC     -0.178000
     10 CE2         0.1970   -0.7710    2.8460 c1        1 OAC     -0.178000
     11 CD2        -0.4540   -0.7740    1.6220 c1        1 OAC      0.050000
     12 OH         -1.4040   -1.7700    1.3340 oh        1 OAC     -0.256000
     13 OXT        -0.9570    1.7480   -3.0940 o         1 OAC     -0.580500
     14 HA          0.9480   -0.1770   -1.4270 ha        1 OAC      0.077000
     15 HB11       -1.5830   -0.4830   -0.6430 hc        1 OAC      0.092000
     16 HB12       -1.3440    1.0940   -0.7390 hc        1 OAC      0.092000
     17 HB21       -0.0580   -1.9970   -2.2350 hc        1 OAC      0.056667
     18 HB22       -0.0730   -1.0630   -3.5350 hc        1 OAC      0.056667
     19 HB23       -1.3850   -1.1910   -2.6270 hc        1 OAC      0.056667
     20 HD1         1.0160    1.8360    0.2800 ha        1 OAC      0.214000
     21 HE1         2.1300    1.8380    2.3630 ha        1 OAC      0.123000
     22 HZ          1.6100    0.1990    3.9820 ha        1 OAC      0.109000
     23 HE2        -0.0160   -1.4500    3.5140 ha        1 OAC      0.109000
     24 HH         -1.9590   -1.8590    2.0230 ho        1 OAC      0.196000
@<TRIPOS>BOND
     1    1    2 1   
     2    2   13 1   
     3    3    4 1   
     4    3    5 1   
     5    3   14 1   
     6    4    6 1   
     7    4   15 1   
     8    4   16 1   
     9    5   17 1   
    10    5   18 1   
    11    5   19 1   
    12    6    7 1   
    13    6   11 1   
    14    7    8 1   
    15    7   20 1   
    16    8   21 1   
    17    9   10 1   
    18    9   22 1   
    19   10   23 1   
    20   11   12 1   
    21   12   24 1   
@<TRIPOS>SUBSTRUCTURE
     1 OAC         1 TEMP              0 ****  ****    0 ROOT
