@<TRIPOS>MOLECULE
OAC
   24    24     1     0     0
SMALL
bcc


@<TRIPOS>ATOM
      1 O           0.1210    1.0420    0.3600 o         1 OAC     -0.845300
      2 C           1.2660    0.5560    0.1310 c         1 OAC      0.911600
      3 CA          2.0470   -0.1020    1.3010 c3        1 OAC     -0.181700
      4 CB1         1.1270   -0.4580    2.4610 c3        1 OAC     -0.043100
      5 CB2         2.8100   -1.3090    0.8100 c3        1 OAC     -0.064100
      6 CG          1.7480   -0.2370    3.7940 ca        1 OAC     -0.048300
      7 CD1         2.1630    1.0440    4.1750 ca        1 OAC     -0.106000
      8 CE1         2.7370    1.2820    5.4240 ca        1 OAC     -0.167000
      9 CZ          2.9060    0.2360    6.3270 ca        1 OAC     -0.126000
     10 CE2         2.4970   -1.0510    5.9840 ca        1 OAC     -0.222000
     11 CD2         1.9190   -1.2820    4.7280 ca        1 OAC      0.102100
     12 OH          1.4830   -2.5400    4.3630 oh        1 OAC     -0.492100
     13 OXT         1.8380    0.6110   -0.9940 o         1 OAC     -0.845300
     14 HA          2.7850    0.6770    1.6390 hc        1 OAC      0.030700
     15 HB11        0.2040    0.1890    2.3840 hc        1 OAC      0.072700
     16 HB12        0.7940   -1.5250    2.3660 hc        1 OAC      0.072700
     17 HB21        3.4200   -1.0220   -0.0810 hc        1 OAC      0.018367
     18 HB22        3.4840   -1.7090    1.6060 hc        1 OAC      0.018367
     19 HB23        2.1060   -2.1200    0.5040 hc        1 OAC      0.018367
     20 HD1         2.0280    1.8730    3.4600 ha        1 OAC      0.154000
     21 HE1         3.0560    2.2980    5.6930 ha        1 OAC      0.118000
     22 HZ          3.3610    0.4190    7.3100 ha        1 OAC      0.112000
     23 HE2         2.6260   -1.8810    6.6910 ha        1 OAC      0.113000
     24 HH          1.7400   -3.1510    5.0660 ho        1 OAC      0.399000
@<TRIPOS>BOND
     1    1    2 1   
     2    2    3 1   
     3    2   13 1   
     4    3    4 1   
     5    3    5 1   
     6    3   14 1   
     7    4    6 1   
     8    4   15 1   
     9    4   16 1   
    10    5   17 1   
    11    5   18 1   
    12    5   19 1   
    13    6    7 ar  
    14    6   11 ar  
    15    7    8 ar  
    16    7   20 1   
    17    8    9 ar  
    18    8   21 1   
    19    9   10 ar  
    20    9   22 1   
    21   10   11 ar  
    22   10   23 1   
    23   11   12 1   
    24   12   24 1   
@<TRIPOS>SUBSTRUCTURE
     1 OAC         1 TEMP              0 ****  ****    0 ROOT
