@<TRIPOS>MOLECULE
OAE
   46    47     1     0     0
SMALL
bcc


@<TRIPOS>ATOM
      1 O           0.4230    2.3100   -2.4910 o         1 OAE     -0.516000
      2 C1          0.0790   -2.6920    0.1000 c3        1 OAE     -0.085100
      3 N1          3.0610    0.0900   -2.9400 n         1 OAE     -0.501900
      4 O1          3.7020   -3.1460   -1.1950 o         1 OAE     -0.858800
      5 S1         -0.5640   -1.1620   -2.0570 ss        1 OAE     -0.355200
      6 C2          2.6130   -2.4910   -1.1570 c         1 OAE      0.918600
      7 N2          5.1870   -0.9640   -0.2050 n4        1 OAE     -0.848600
      8 O2          2.5650   -1.4470   -0.4310 o         1 OAE     -0.858800
      9 C3          3.7820    0.3220   -1.7910 c         1 OAE      0.682100
     10 N3          1.5200   -2.2100   -3.3280 n3        1 OAE     -0.803200
     11 O3          3.5120    1.1790   -0.9300 o         1 OAE     -0.585100
     12 C4          5.1020   -0.5000   -1.6280 c3        1 OAE      0.104800
     13 O4          1.0390    1.1240   -0.7710 oh        1 OAE     -0.546100
     14 C5          6.2970    0.3100   -2.0230 ca        1 OAE     -0.162300
     15 C6          0.0480   -2.7410   -1.4060 c3        1 OAE      0.046100
     16 C7          7.2740   -0.2730   -2.8390 ca        1 OAE     -0.101500
     17 C8          8.3890    0.4670   -3.2270 ca        1 OAE     -0.130500
     18 C9          8.5350    1.7880   -2.8010 ca        1 OAE     -0.099000
     19 C10         7.5620    2.3710   -1.9890 ca        1 OAE     -0.130500
     20 C11         6.4430    1.6360   -1.5990 ca        1 OAE     -0.101500
     21 C12         1.4440   -2.9290   -2.0540 c3        1 OAE      0.076500
     22 C13         0.7650   -0.9700   -3.2840 c3        1 OAE      0.241600
     23 C14         1.6420    0.3210   -3.1050 c3        1 OAE      0.024700
     24 C15         1.0010    1.2900   -2.1070 c         1 OAE      0.652100
     25 C16        -0.8890   -3.8340   -1.8740 c3        1 OAE     -0.085100
     26 H1          0.7010   -3.5330    0.4950 hc        1 OAE      0.049367
     27 H1A        -0.9550   -2.7860    0.5120 hc        1 OAE      0.049367
     28 H1B         0.5230   -1.7290    0.4560 hc        1 OAE      0.049367
     29 HN1         3.3930   -0.6670   -3.5060 hn        1 OAE      0.323500
     30 HN3         1.1770   -2.7940   -4.0690 hn        1 OAE      0.375800
     31 H4          5.0440   -1.4520   -2.2460 hx        1 OAE      0.135700
     32 H7          7.1600   -1.3130   -3.1830 ha        1 OAE      0.154500
     33 H8          9.1530    0.0090   -3.8730 ha        1 OAE      0.146000
     34 H9          9.4150    2.3720   -3.1110 ha        1 OAE      0.143000
     35 H10         7.6700    3.4160   -1.6590 ha        1 OAE      0.146000
     36 H11         5.6590    2.1040   -0.9770 ha        1 OAE      0.154500
     37 H12         1.6040   -4.0300   -2.2600 h1        1 OAE      0.088700
     38 H13         0.2290   -0.8140   -4.2640 h2        1 OAE      0.083700
     39 H14         1.5690    0.8590   -4.1090 h1        1 OAE      0.090700
     40 H16        -1.9370   -3.6080   -1.5590 hc        1 OAE      0.049367
     41 H16A       -0.5890   -4.8140   -1.4260 hc        1 OAE      0.049367
     42 H16B       -0.8670   -3.9310   -2.9860 hc        1 OAE      0.049367
     43 HN2A        4.7080   -0.2860    0.4010 hn        1 OAE      0.470800
     44 H121        1.4360    0.2630   -0.5380 ho        1 OAE      0.475000
     45 H22         6.1550   -1.0780    0.0770 hn        1 OAE      0.470800
     46 HN2         4.6550   -1.8780   -0.1380 hn        1 OAE      0.470800
@<TRIPOS>BOND
     1    1   24 2   
     2    2   15 1   
     3    2   26 1   
     4    2   27 1   
     5    2   28 1   
     6    3    9 1   
     7    3   23 1   
     8    3   29 1   
     9    4    6 1   
    10    5   15 1   
    11    5   22 1   
    12    6    8 1   
    13    6   21 1   
    14    7   12 1   
    15    7   43 1   
    16    7   45 1   
    17    7   46 1   
    18    9   11 2   
    19    9   12 1   
    20   10   21 1   
    21   10   22 1   
    22   10   30 1   
    23   12   14 1   
    24   12   31 1   
    25   13   24 1   
    26   13   44 1   
    27   14   16 ar  
    28   14   20 ar  
    29   15   21 1   
    30   15   25 1   
    31   16   17 ar  
    32   16   32 1   
    33   17   18 ar  
    34   17   33 1   
    35   18   19 ar  
    36   18   34 1   
    37   19   20 ar  
    38   19   35 1   
    39   20   36 1   
    40   21   37 1   
    41   22   23 1   
    42   22   38 1   
    43   23   24 1   
    44   23   39 1   
    45   25   40 1   
    46   25   41 1   
    47   25   42 1   
@<TRIPOS>SUBSTRUCTURE
     1 OAE         1 TEMP              0 ****  ****    0 ROOT
