@<TRIPOS>MOLECULE
OAE
   46    47     1     0     0
SMALL
bcc


@<TRIPOS>ATOM
      1 O           0.3890    1.5140   -1.3060 o         1 OAE     -0.439000
      2 C1          0.2750   -2.0150   -0.3030 c3        1 OAE     -0.082100
      3 N1          2.0500    1.0450   -4.3260 n8        1 OAE     -0.931800
      4 O1          2.7350   -3.0670   -0.0380 o         1 OAE     -0.853300
      5 S1         -0.6060   -1.6450   -2.8150 ss        1 OAE     -0.377200
      6 C2          2.8900   -3.0560   -1.2940 c         1 OAE      0.913600
      7 N2          4.3380   -0.8870   -0.1520 nz        1 OAE     -0.841600
      8 O2          4.0640   -3.0920   -1.7870 o         1 OAE     -0.853300
      9 C3          3.6190    0.8960   -1.7790 c         1 OAE      0.677100
     10 N3          2.0250   -1.7010   -3.1080 n7        1 OAE     -0.845200
     11 O3          3.8220    1.9720   -2.3270 o         1 OAE     -0.476000
     12 C4          4.6190   -0.2060   -1.4560 c3        1 OAE      0.118800
     13 O4          2.3580    0.6080   -1.3290 os        1 OAE     -0.509200
     14 C5          6.0510    0.2320   -1.5060 ca        1 OAE     -0.158300
     15 C6          0.3070   -2.7120   -1.6400 c3        1 OAE      0.097100
     16 C7          7.0000   -0.7080   -1.9330 ca        1 OAE     -0.094000
     17 C8          8.3460   -0.3550   -1.9900 ca        1 OAE     -0.133500
     18 C9          8.7490    0.9300   -1.6250 ca        1 OAE     -0.098000
     19 C10         7.8040    1.8650   -1.2030 ca        1 OAE     -0.133500
     20 C11         6.4540    1.5190   -1.1410 ca        1 OAE     -0.094000
     21 C12         1.7060   -2.8650   -2.2730 c3        1 OAE      0.078500
     22 C13         0.8690   -1.0190   -3.6310 c3        1 OAE      0.286600
     23 C14         0.9920    0.5320   -3.4800 c3        1 OAE      0.123500
     24 C15         1.1950    0.9500   -2.0310 c         1 OAE      0.690100
     25 C16        -0.4010   -4.0420   -1.5670 c3        1 OAE     -0.082100
     26 H1          0.9410   -1.1170   -0.3150 hc        1 OAE      0.051200
     27 H1A         0.6290   -2.7060    0.5030 hc        1 OAE      0.051200
     28 H1B        -0.7670   -1.6880   -0.0680 hc        1 OAE      0.051200
     29 HN1         1.8700    0.8320   -5.2850 hn        1 OAE      0.375300
     30 HN3         2.6860   -1.9460   -3.8190 hn        1 OAE      0.397800
     31 H4          4.4370   -1.0120   -2.2600 hx        1 OAE      0.197700
     32 H7          6.6750   -1.7220   -2.2250 ha        1 OAE      0.157500
     33 H8          9.0900   -1.0920   -2.3280 ha        1 OAE      0.145500
     34 H9          9.8130    1.2080   -1.6740 ha        1 OAE      0.142000
     35 H10         8.1190    2.8820   -0.9230 ha        1 OAE      0.145500
     36 H11         5.7080    2.2700   -0.8350 ha        1 OAE      0.157500
     37 H12         1.6860   -3.8070   -2.9050 h1        1 OAE      0.052700
     38 H13         0.7140   -1.2130   -4.7330 h2        1 OAE      0.060700
     39 H14        -0.0310    0.9490   -3.7560 h1        1 OAE      0.066700
     40 H16        -0.5100   -4.4970   -2.5810 hc        1 OAE      0.051200
     41 H16A        0.1870   -4.7400   -0.9200 hc        1 OAE      0.051200
     42 H16B       -1.4180   -3.9150   -1.1210 hc        1 OAE      0.051200
     43 HN2A        4.7180   -1.8610   -0.2100 hn        1 OAE      0.478467
     44 H121        2.1780    2.0290   -4.1990 hn        1 OAE      0.375300
     45 H22         4.7440   -0.3810    0.6280 hn        1 OAE      0.478467
     46 HN2         3.3130   -1.0040   -0.0210 hn        1 OAE      0.478467
@<TRIPOS>BOND
     1    1   24 2   
     2    2   15 1   
     3    2   26 1   
     4    2   27 1   
     5    2   28 1   
     6    3   23 1   
     7    3   29 1   
     8    3   44 1   
     9    4    6 1   
    10    5   15 1   
    11    5   22 1   
    12    6    8 1   
    13    6   21 1   
    14    7   12 1   
    15    7   43 1   
    16    7   45 1   
    17    7   46 1   
    18    9   11 2   
    19    9   12 1   
    20    9   13 1   
    21   10   21 1   
    22   10   22 1   
    23   10   30 1   
    24   12   14 1   
    25   12   31 1   
    26   13   24 1   
    27   14   16 ar  
    28   14   20 ar  
    29   15   21 1   
    30   15   25 1   
    31   16   17 ar  
    32   16   32 1   
    33   17   18 ar  
    34   17   33 1   
    35   18   19 ar  
    36   18   34 1   
    37   19   20 ar  
    38   19   35 1   
    39   20   36 1   
    40   21   37 1   
    41   22   23 1   
    42   22   38 1   
    43   23   24 1   
    44   23   39 1   
    45   25   40 1   
    46   25   41 1   
    47   25   42 1   
@<TRIPOS>SUBSTRUCTURE
     1 OAE         1 TEMP              0 ****  ****    0 ROOT
