@<TRIPOS>MOLECULE
OAE
   44    43     1     0     0
SMALL
bcc


@<TRIPOS>ATOM
      1 O          -2.6700   -0.1670    1.0640 o         1 OAE     -0.573000
      2 C1         -0.9790   -2.8990   -2.6160 c3        1 OAE     -0.195000
      3 N1         -0.2600    0.5240   -0.5630 n         1 OAE     -0.286000
      4 O1         -2.0850   -4.6190   -0.3900 o         1 OAE     -0.582000
      5 S1          1.0950   -1.9690   -1.2780 ss        1 OAE     -0.168000
      6 C2         -1.1130   -4.8320   -1.1620 c2        1 OAE      0.349000
      7 N2          1.6300    2.9840   -0.5430 n3        1 OAE     -0.319000
      8 O2         -1.2350   -5.6420   -2.1180 o         1 OAE     -0.582000
      9 C3          0.0740    1.4570    0.4520 c2        1 OAE      0.259000
     10 N3         -0.0630   -3.1610    0.4170 n3        1 OAE     -0.298000
     11 O3          0.1050    1.1050    1.6150 o         1 OAE     -0.384000
     12 C4          0.3600    2.8970    0.0910 c3        1 OAE     -0.038000
     13 O4         -0.9650   -1.0080    2.1320 o         1 OAE     -0.573000
     14 C5          0.3630    3.7400    1.3450 c2        1 OAE     -0.085000
     15 C6          0.3220   -3.3220   -1.9690 c3        1 OAE     -0.063000
     16 C7         -0.7060    4.6220    1.3370 c2        1 OAE     -0.119000
     17 C8         -0.9260    5.4540    2.4230 c1        1 OAE     -0.164000
     18 C9         -0.0770    5.4040    3.5180 c1        1 OAE     -0.138500
     19 C10         0.9920    4.5220    3.5260 c1        1 OAE     -0.138500
     20 C11         1.2120    3.6900    2.4390 c1        1 OAE     -0.106000
     21 C12         0.0700   -4.2130   -0.9470 c3        1 OAE     -0.082000
     22 C13         0.4710   -1.7490   -0.0450 c3        1 OAE     -0.020000
     23 C14        -0.7490   -0.7310   -0.2190 c3        1 OAE     -0.059000
     24 C15        -1.5020   -0.6370    1.0560 c2        1 OAE      0.329000
     25 C16         1.2260   -3.9620   -2.9990 c3        1 OAE     -0.195000
     26 H1         -1.2730   -3.5930   -3.2420 hc        1 OAE      0.075000
     27 H1A        -1.6610   -2.7720   -1.9240 hc        1 OAE      0.075000
     28 H1B        -0.8440   -2.0570   -3.1000 hc        1 OAE      0.075000
     29 HN1        -0.1790    0.7560   -1.4410 hn        1 OAE      0.203000
     30 HN2         2.1010    3.6840   -0.1870 hn        1 OAE      0.144000
     31 HN2A        2.0930    2.2050   -0.4070 hn        1 OAE      0.144000
     32 HN3         0.4590   -3.4760    1.0960 hn        1 OAE      0.223000
     33 H4         -0.3310    3.2220   -0.5190 h1        1 OAE      0.112000
     34 H7         -1.3040    4.6580    0.5660 ha        1 OAE      0.125000
     35 H8         -1.6790    6.0760    2.4180 ha        1 OAE      0.106000
     36 H9         -0.2320    5.9900    4.2830 ha        1 OAE      0.123000
     37 H10         1.5900    4.4860    4.2970 ha        1 OAE      0.123000
     38 H11         1.9640    3.0680    2.4450 ha        1 OAE      0.224000
     39 H12         0.6700   -4.9810   -0.8640 h1        1 OAE      0.046000
     40 H13         1.1150   -1.4010    0.6040 h2        1 OAE      0.103000
     41 H14        -1.3430   -1.0530   -0.9250 h1        1 OAE      0.106000
     42 H16         0.8620   -4.8350   -3.2570 hc        1 OAE      0.075000
     43 H16A        2.1220   -4.0810   -2.6190 hc        1 OAE      0.075000
     44 H16B        1.2810   -3.3850   -3.7890 hc        1 OAE      0.075000
@<TRIPOS>BOND
     1    1   24 1   
     2    2   15 1   
     3    2   26 1   
     4    2   27 1   
     5    2   28 1   
     6    3    9 1   
     7    3   23 1   
     8    3   29 1   
     9    4    6 1   
    10    5   15 1   
    11    5   22 1   
    12    6    8 1   
    13    6   21 1   
    14    7   12 1   
    15    7   30 1   
    16    7   31 1   
    17    9   11 1   
    18    9   12 1   
    19   10   21 1   
    20   10   22 1   
    21   10   32 1   
    22   12   14 1   
    23   12   33 1   
    24   13   24 1   
    25   14   16 1   
    26   14   20 1   
    27   15   21 1   
    28   15   25 1   
    29   16   17 1   
    30   16   34 1   
    31   17   35 1   
    32   18   19 1   
    33   18   36 1   
    34   19   37 1   
    35   20   38 1   
    36   21   39 1   
    37   22   23 1   
    38   22   40 1   
    39   23   24 1   
    40   23   41 1   
    41   25   42 1   
    42   25   43 1   
    43   25   44 1   
@<TRIPOS>SUBSTRUCTURE
     1 OAE         1 TEMP              0 ****  ****    0 ROOT
