@<TRIPOS>MOLECULE
OAE
   44    45     1     0     0
SMALL
bcc


@<TRIPOS>ATOM
      1 O          -1.2190   -3.5020    0.2880 o         1 OAE     -0.824300
      2 C1         -4.4170    0.0540    0.2040 c3        1 OAE     -0.078100
      3 N1          1.0970   -1.0890   -0.1330 n         1 OAE     -0.487900
      4 O1         -3.7800    3.3570   -0.8420 o         1 OAE     -0.843300
      5 S1         -2.3650   -0.2820    1.9490 ss        1 OAE     -0.537200
      6 C2         -3.1770    2.2790   -1.1300 c         1 OAE      0.925600
      7 N2          4.6340   -1.9440   -0.2490 n3        1 OAE     -0.885800
      8 O2         -3.1700    1.7650   -2.2790 o         1 OAE     -0.843300
      9 C3          2.3360   -1.1860    0.3980 c         1 OAE      0.614100
     10 N3         -1.3150    0.7200   -0.3250 n3        1 OAE     -0.786200
     11 O3          2.5850   -1.4090    1.6110 o         1 OAE     -0.687100
     12 C4          3.5470   -1.0320   -0.5780 c3        1 OAE      0.122800
     13 O4         -1.2290   -2.1100   -1.4680 o         1 OAE     -0.824300
     14 C5          3.9950    0.4060   -0.5500 ca        1 OAE     -0.057300
     15 C6         -3.4100    0.8570    0.9890 c3        1 OAE      0.077100
     16 C7          4.0950    1.1330   -1.7400 ca        1 OAE     -0.109500
     17 C8          4.5200    2.4620   -1.7130 ca        1 OAE     -0.138000
     18 C9          4.8500    3.0670   -0.5020 ca        1 OAE     -0.139000
     19 C10         4.7480    2.3450    0.6870 ca        1 OAE     -0.138000
     20 C11         4.3210    1.0190    0.6660 ca        1 OAE     -0.109500
     21 C12        -2.4150    1.5970    0.0490 c3        1 OAE      0.049500
     22 C13        -0.9010   -0.0330    0.8300 c3        1 OAE      0.332600
     23 C14        -0.1460   -1.3520    0.5720 c3        1 OAE     -0.035300
     24 C15        -0.9650   -2.4040   -0.2700 c         1 OAE      0.919600
     25 C16        -4.0860    1.8350    1.9150 c3        1 OAE     -0.078100
     26 H1         -5.0810   -0.5250    0.8890 hc        1 OAE      0.038367
     27 H1A        -5.0430    0.7440   -0.4180 hc        1 OAE      0.038367
     28 H1B        -3.8930   -0.6570   -0.4820 hc        1 OAE      0.038367
     29 HN1         0.9810   -0.9200   -1.1090 hn        1 OAE      0.332500
     30 HN3        -1.5650    0.1270   -1.1040 hn        1 OAE      0.421800
     31 H4          3.2200   -1.2960   -1.6290 h1        1 OAE      0.073700
     32 H7          3.8250    0.6630   -2.6970 ha        1 OAE      0.145500
     33 H8          4.5800    3.0340   -2.6490 ha        1 OAE      0.118500
     34 H9          5.1760    4.1160   -0.4820 ha        1 OAE      0.113000
     35 H10         4.9890    2.8250    1.6460 ha        1 OAE      0.118500
     36 H11         4.2010    0.4490    1.6030 ha        1 OAE      0.145500
     37 H12        -1.9620    2.4430    0.6500 h1        1 OAE      0.043700
     38 H13        -0.2430    0.6370    1.4540 h2        1 OAE      0.043700
     39 H14         0.0900   -1.8100    1.5750 h1        1 OAE      0.080700
     40 H16        -3.3570    2.2550    2.6480 hc        1 OAE      0.038367
     41 H16A       -4.5050    2.6760    1.3010 hc        1 OAE      0.038367
     42 H16B       -4.9140    1.3420    2.4790 hc        1 OAE      0.038367
     43 HN2         4.9880   -1.7170    0.6640 hn        1 OAE      0.347300
     44 HN2A        4.2640   -2.8770   -0.2060 hn        1 OAE      0.347300
@<TRIPOS>BOND
     1    1   24 1   
     2    2   15 1   
     3    2   26 1   
     4    2   27 1   
     5    2   28 1   
     6    3    9 1   
     7    3   23 1   
     8    3   29 1   
     9    4    6 1   
    10    5   15 1   
    11    5   22 1   
    12    6    8 1   
    13    6   21 1   
    14    7   12 1   
    15    7   43 1   
    16    7   44 1   
    17    9   11 2   
    18    9   12 1   
    19   10   21 1   
    20   10   22 1   
    21   10   30 1   
    22   12   14 1   
    23   12   31 1   
    24   13   24 1   
    25   14   16 ar  
    26   14   20 ar  
    27   15   21 1   
    28   15   25 1   
    29   16   17 ar  
    30   16   32 1   
    31   17   18 ar  
    32   17   33 1   
    33   18   19 ar  
    34   18   34 1   
    35   19   20 ar  
    36   19   35 1   
    37   20   36 1   
    38   21   37 1   
    39   22   23 1   
    40   22   38 1   
    41   23   24 1   
    42   23   39 1   
    43   25   40 1   
    44   25   41 1   
    45   25   42 1   
@<TRIPOS>SUBSTRUCTURE
     1 OAE         1 TEMP              0 ****  ****    0 ROOT
