@<TRIPOS>MOLECULE
OAE
   46    47     1     0     0
SMALL
bcc


@<TRIPOS>ATOM
      1 O           0.5830    2.4020   -2.6670 o         1 OAE     -0.516000
      2 C1         -0.0720   -2.5190    0.0180 c3        1 OAE     -0.085100
      3 N1          3.1410    0.0640   -2.9620 n         1 OAE     -0.501900
      4 O1          3.5770   -3.1530   -1.1220 o         1 OAE     -0.858800
      5 S1         -0.5650   -1.0150   -2.1960 ss        1 OAE     -0.355200
      6 C2          2.5150   -2.4530   -1.1410 c         1 OAE      0.918600
      7 N2          5.1130   -1.0120   -0.1220 n4        1 OAE     -0.848600
      8 O2          2.4830   -1.3910   -0.4420 o         1 OAE     -0.858800
      9 C3          3.8260    0.2930   -1.7900 c         1 OAE      0.682100
     10 N3          1.5200   -2.1780   -3.3600 n3        1 OAE     -0.803200
     11 O3          3.5590    1.1810   -0.9600 o         1 OAE     -0.585100
     12 C4          5.1030   -0.5780   -1.5570 c3        1 OAE      0.104800
     13 O4          1.0810    1.2320   -0.8980 oh        1 OAE     -0.546100
     14 C5          6.3450    0.1730   -1.9210 ca        1 OAE     -0.162300
     15 C6         -0.0470   -2.6030   -1.4870 c3        1 OAE      0.046100
     16 C7          7.3280   -0.4680   -2.6850 ca        1 OAE     -0.101500
     17 C8          8.4870    0.2170   -3.0440 ca        1 OAE     -0.130500
     18 C9          8.6710    1.5400   -2.6400 ca        1 OAE     -0.099000
     19 C10         7.6930    2.1810   -1.8790 ca        1 OAE     -0.130500
     20 C11         6.5300    1.5010   -1.5190 ca        1 OAE     -0.101500
     21 C12         1.3640   -2.8640   -2.0740 c3        1 OAE      0.076500
     22 C13         0.8170   -0.9080   -3.3740 c3        1 OAE      0.241600
     23 C14         1.7400    0.3490   -3.1880 c3        1 OAE      0.024700
     24 C15         1.1030    1.3670   -2.2370 c         1 OAE      0.652100
     25 C16        -1.0100   -3.6670   -1.9670 c3        1 OAE     -0.085100
     26 H1          0.4990   -3.3750    0.4560 hc        1 OAE      0.049367
     27 H1A        -1.1240   -2.5610    0.3910 hc        1 OAE      0.049367
     28 H1B         0.3980   -1.5660    0.3700 hc        1 OAE      0.049367
     29 HN1         3.4620   -0.7190   -3.4970 hn        1 OAE      0.323500
     30 HN3         1.1820   -2.7650   -4.1010 hn        1 OAE      0.375800
     31 H4          5.0290   -1.5410   -2.1560 hx        1 OAE      0.135700
     32 H7          7.1840   -1.5100   -3.0120 ha        1 OAE      0.154500
     33 H8          9.2550   -0.2870   -3.6490 ha        1 OAE      0.146000
     34 H9          9.5870    2.0800   -2.9260 ha        1 OAE      0.143000
     35 H10         7.8320    3.2270   -1.5670 ha        1 OAE      0.146000
     36 H11         5.7440    2.0150   -0.9390 ha        1 OAE      0.154500
     37 H12         1.4860   -3.9740   -2.2490 h1        1 OAE      0.088700
     38 H13         0.3260   -0.7530   -4.3770 h2        1 OAE      0.083700
     39 H14         1.7300    0.8670   -4.2050 h1        1 OAE      0.090700
     40 H16        -2.0590   -3.3900   -1.6990 hc        1 OAE      0.049367
     41 H16A       -0.7690   -4.6470   -1.4860 hc        1 OAE      0.049367
     42 H16B       -0.9490   -3.7910   -3.0750 hc        1 OAE      0.049367
     43 HN2A        6.0640   -1.1580    0.2010 hn        1 OAE      0.470800
     44 H121        1.4330    0.3610   -0.6310 ho        1 OAE      0.475000
     45 H22         4.5420   -1.9020   -0.0570 hn        1 OAE      0.470800
     46 HN2         4.6380   -0.3010    0.4490 hn        1 OAE      0.470800
@<TRIPOS>BOND
     1    1   24 2   
     2    2   15 1   
     3    2   26 1   
     4    2   27 1   
     5    2   28 1   
     6    3    9 1   
     7    3   23 1   
     8    3   29 1   
     9    4    6 1   
    10    5   15 1   
    11    5   22 1   
    12    6    8 1   
    13    6   21 1   
    14    7   12 1   
    15    7   43 1   
    16    7   45 1   
    17    7   46 1   
    18    9   11 2   
    19    9   12 1   
    20   10   21 1   
    21   10   22 1   
    22   10   30 1   
    23   12   14 1   
    24   12   31 1   
    25   13   24 1   
    26   13   44 1   
    27   14   16 ar  
    28   14   20 ar  
    29   15   21 1   
    30   15   25 1   
    31   16   17 ar  
    32   16   32 1   
    33   17   18 ar  
    34   17   33 1   
    35   18   19 ar  
    36   18   34 1   
    37   19   20 ar  
    38   19   35 1   
    39   20   36 1   
    40   21   37 1   
    41   22   23 1   
    42   22   38 1   
    43   23   24 1   
    44   23   39 1   
    45   25   40 1   
    46   25   41 1   
    47   25   42 1   
@<TRIPOS>SUBSTRUCTURE
     1 OAE         1 TEMP              0 ****  ****    0 ROOT
