@<TRIPOS>MOLECULE
OAF
   14    13     1     0     0
SMALL
bcc


@<TRIPOS>ATOM
      1 O2         -2.3030   -0.2080    1.2740 o         1 OAF     -0.845800
      2 C1         -1.0610   -0.3590    1.4210 c         1 OAF      0.896600
      3 O1         -0.5740   -0.4820    2.5750 o         1 OAF     -0.845800
      4 C2         -0.1560   -0.3910    0.2090 c3        1 OAF      0.210600
      5 O4         -0.8790   -0.8560   -0.9050 oh        1 OAF     -0.615300
      6 O3          0.9280   -1.2530    0.4570 oh        1 OAF     -0.615300
      7 C3          0.3620    1.0020   -0.0710 c3        1 OAF      0.238600
      8 F1         -0.6540    1.8740   -0.0250 f         1 OAF     -0.270300
      9 F2          1.2760    1.3330    0.8510 f         1 OAF     -0.270300
     10 C4          0.9960    1.0380   -1.4440 c         1 OAF      0.918600
     11 O5          0.3300    1.4400   -2.4350 o         1 OAF     -0.829800
     12 O6          2.1890    0.6670   -1.5970 o         1 OAF     -0.829800
     13 HO4        -1.0960   -1.7090   -0.7820 ho        1 OAF      0.430000
     14 HO3         0.6410   -2.0950    0.4720 ho        1 OAF      0.430000
@<TRIPOS>BOND
     1    1    2 1   
     2    2    3 1   
     3    2    4 1   
     4    4    5 1   
     5    4    6 1   
     6    4    7 1   
     7    5   13 1   
     8    6   14 1   
     9    7    8 1   
    10    7    9 1   
    11    7   10 1   
    12   10   11 1   
    13   10   12 1   
@<TRIPOS>SUBSTRUCTURE
     1 OAF         1 TEMP              0 ****  ****    0 ROOT
