@<TRIPOS>MOLECULE
OAF
   14    13     1     0     0
SMALL
bcc


@<TRIPOS>ATOM
      1 O2          0.0920    0.5880    0.0040 o         1 OAF     -0.845800
      2 C1          1.2920    0.2150    0.0550 c         1 OAF      0.896600
      3 O1          1.9030   -0.0830    1.1270 o         1 OAF     -0.845800
      4 C2          2.1420    0.1690   -1.2580 c3        1 OAF      0.210600
      5 O4          1.9280    1.3290   -2.0270 oh        1 OAF     -0.615300
      6 O3          3.5220    0.2930   -0.9740 oh        1 OAF     -0.615300
      7 C3          1.9490   -1.1560   -2.1130 c3        1 OAF      0.238600
      8 F1          2.9040   -2.0870   -1.7410 f         1 OAF     -0.270300
      9 F2          0.7910   -1.8250   -1.7540 f         1 OAF     -0.270300
     10 C4          1.9620   -0.9040   -3.6810 c         1 OAF      0.918600
     11 O5          1.0770   -0.1370   -4.1490 o         1 OAF     -0.829800
     12 O6          2.8250   -1.5110   -4.3670 o         1 OAF     -0.829800
     13 HO4         1.0930    1.1810   -2.4980 ho        1 OAF      0.430000
     14 HO3         3.6250    0.0180   -0.0500 ho        1 OAF      0.430000
@<TRIPOS>BOND
     1    1    2 1   
     2    2    3 1   
     3    2    4 1   
     4    4    5 1   
     5    4    6 1   
     6    4    7 1   
     7    5   13 1   
     8    6   14 1   
     9    7    8 1   
    10    7    9 1   
    11    7   10 1   
    12   10   11 1   
    13   10   12 1   
@<TRIPOS>SUBSTRUCTURE
     1 OAF         1 TEMP              0 ****  ****    0 ROOT
