@<TRIPOS>MOLECULE
OAF
   14    13     1     0     0
SMALL
bcc


@<TRIPOS>ATOM
      1 O2         -2.3270   -1.4350    0.0860 o         1 OAF     -0.840800
      2 C1         -2.0410   -0.2170    0.1850 c         1 OAF      0.924600
      3 O1         -2.8430    0.6690    0.6140 o         1 OAF     -0.840800
      4 C2         -0.6270    0.3120   -0.2430 c3        1 OAF      0.204600
      5 O4         -0.5850    0.3320   -1.6490 oh        1 OAF     -0.641800
      6 O3         -0.4540    1.6690    0.1170 oh        1 OAF     -0.641800
      7 C3          0.6130   -0.4710    0.3480 c3        1 OAF      0.266600
      8 F1          0.4790   -0.6470    1.7110 f         1 OAF     -0.263800
      9 F2          0.6220   -1.7810   -0.0970 f         1 OAF     -0.263800
     10 C4          1.9970    0.2250   -0.0130 c         1 OAF      0.916600
     11 O5          2.2260    0.4610   -1.2320 o         1 OAF     -0.833300
     12 O6          2.8010    0.4610    0.9240 o         1 OAF     -0.833300
     13 HO4         0.3080    0.6130   -1.9040 ho        1 OAF      0.422500
     14 HO3        -1.3300    2.0180    0.3400 ho        1 OAF      0.422500
@<TRIPOS>BOND
     1    1    2 1   
     2    2    3 1   
     3    2    4 1   
     4    4    5 1   
     5    4    6 1   
     6    4    7 1   
     7    5   13 1   
     8    6   14 1   
     9    7    8 1   
    10    7    9 1   
    11    7   10 1   
    12   10   11 1   
    13   10   12 1   
@<TRIPOS>SUBSTRUCTURE
     1 OAF         1 TEMP              0 ****  ****    0 ROOT
