@<TRIPOS>MOLECULE
OAG
   37    39     1     0     0
SMALL
bcc


@<TRIPOS>ATOM
      1 C1          0.5130   -0.4490   -0.2000 c3        1 OAG      0.140100
      2 N1          1.6790    0.4550    0.0460 n4        1 OAG     -0.620400
      3 CL2         3.8360   -1.6240    0.4110 cl        1 OAG     -0.046400
      4 CL5         1.6510    1.9340    4.9720 cl        1 OAG      0.039600
      5 C9         -0.3740   -1.4530   -2.3190 ca        1 OAG     -0.056000
      6 C1'         2.2040    0.2850    1.4090 ca        1 OAG     -0.083400
      7 N1'        -2.1100    0.2300   -5.1850 nb        1 OAG     -0.539000
      8 C10        -0.1030   -0.3330   -1.5600 ca        1 OAG     -0.183600
      9 C11         3.2310   -0.6510    1.6600 ca        1 OAG      0.022400
     10 C12         3.2700    0.0430    3.9800 ca        1 OAG     -0.040000
     11 C2'        -2.3990   -0.8600   -5.9160 ca        1 OAG      0.764900
     12 N2'        -3.1220   -0.6430   -7.2040 n4        1 OAG     -0.817300
     13 C3'         3.7570   -0.7590    2.9500 ca        1 OAG     -0.072000
     14 N3'        -2.1000   -2.1870   -5.6000 nb        1 OAG     -0.658000
     15 C4'        -1.4510   -2.3850   -4.4450 ca        1 OAG      0.597200
     16 N4'        -1.1400   -3.7910   -4.1010 n4        1 OAG     -0.840300
     17 C4A        -1.0660   -1.3190   -3.5570 ca        1 OAG     -0.277600
     18 C5'         2.2410    0.9670    3.7310 ca        1 OAG      0.039400
     19 C6'         1.7050    1.0940    2.4450 ca        1 OAG     -0.104000
     20 C7'        -0.5320    0.9480   -2.0610 ca        1 OAG      0.476200
     21 N8'        -1.1550    1.1330   -3.2080 nb        1 OAG     -0.542000
     22 C8A        -1.4410    0.0180   -3.9860 ca        1 OAG      0.704300
     23 H1          0.8680   -1.5070   -0.0100 hx        1 OAG      0.142700
     24 H1A        -0.2770   -0.2090    0.5800 hx        1 OAG      0.142700
     25 HN1         1.4000    1.4380   -0.0720 hn        1 OAG      0.465800
     26 H9         -0.0660   -2.4490   -1.9600 ha        1 OAG      0.164000
     27 H12         3.7000   -0.0480    4.9980 ha        1 OAG      0.210000
     28 HN2'       -2.5530   -1.0060   -7.9870 hn        1 OAG      0.512133
     29 HN2A       -4.0280   -1.1390   -7.1810 hn        1 OAG      0.512133
     30 H3'         4.5720   -1.4810    3.1530 ha        1 OAG      0.206000
     31 HN4'       -1.5930   -4.0290   -3.2040 hn        1 OAG      0.503133
     32 HN4A       -0.1180   -3.9040   -4.0190 hn        1 OAG      0.503133
     33 H6'         0.9080    1.8360    2.2640 ha        1 OAG      0.170000
     34 H7'        -0.3700    1.8820   -1.4740 h4        1 OAG      0.084100
     35 H121        2.4370    0.2450   -0.6230 hn        1 OAG      0.465800
     36 H2'3       -3.2940    0.3710   -7.3510 hn        1 OAG      0.512133
     37 H4'3       -1.4860   -4.4490   -4.8280 hn        1 OAG      0.503133
@<TRIPOS>BOND
     1    1    2 1   
     2    1    8 1   
     3    1   23 1   
     4    1   24 1   
     5    2    6 1   
     6    2   25 1   
     7    2   35 1   
     8    3    9 1   
     9    4   18 1   
    10    5    8 ar  
    11    5   17 ar  
    12    5   26 1   
    13    6    9 ar  
    14    6   19 ar  
    15    7   11 ar  
    16    7   22 ar  
    17    8   20 ar  
    18    9   13 ar  
    19   10   13 ar  
    20   10   18 ar  
    21   10   27 1   
    22   11   12 1   
    23   11   14 ar  
    24   12   28 1   
    25   12   29 1   
    26   12   36 1   
    27   13   30 1   
    28   14   15 ar  
    29   15   16 1   
    30   15   17 ar  
    31   16   31 1   
    32   16   32 1   
    33   16   37 1   
    34   17   22 ar  
    35   18   19 ar  
    36   19   33 1   
    37   20   21 ar  
    38   20   34 1   
    39   21   22 ar  
@<TRIPOS>SUBSTRUCTURE
     1 OAG         1 TEMP              0 ****  ****    0 ROOT
