@<TRIPOS>MOLECULE
OAG
   34    36     1     0     0
SMALL
bcc


@<TRIPOS>ATOM
      1 C1          0.0310    0.0960   -0.0150 c3        1 OAG      0.247100
      2 N1          1.3660   -0.4560    0.1010 nh        1 OAG     -0.733600
      3 CL2         4.3620   -0.7030   -0.1360 cl        1 OAG     -0.097400
      4 CL5         1.3670    0.5890    5.1170 cl        1 OAG     -0.089400
      5 C9         -0.6170   -1.1320   -2.1110 ca        1 OAG     -0.008000
      6 C1'         2.0890   -0.2150    1.2720 ca        1 OAG      0.171600
      7 N1'        -2.1090    0.2180   -5.2530 nb        1 OAG     -0.773000
      8 C10        -0.4910    0.0520   -1.4150 ca        1 OAG     -0.283600
      9 C11         3.5030   -0.3560    1.2950 ca        1 OAG     -0.051600
     10 C12         3.5680    0.0760    3.6750 ca        1 OAG     -0.162000
     11 C2'        -2.2450   -0.9640   -5.9360 ca        1 OAG      0.934900
     12 N2'        -2.8880   -0.9210   -7.1680 nh        1 OAG     -0.938500
     13 C3'         4.2210   -0.2160    2.4810 ca        1 OAG     -0.077000
     14 N3'        -1.8260   -2.2280   -5.5000 nb        1 OAG     -0.836000
     15 C4'        -1.3050   -2.3040   -4.2550 ca        1 OAG      0.753200
     16 N4'        -0.9570   -3.5470   -3.7670 nh        1 OAG     -0.955500
     17 C4A        -1.1430   -1.1200   -3.4200 ca        1 OAG     -0.400600
     18 C5'         2.1790    0.2270    3.6660 ca        1 OAG      0.057400
     19 C6'         1.4410    0.0900    2.4930 ca        1 OAG     -0.185000
     20 C7'        -0.9090    1.2570   -2.0610 ca        1 OAG      0.462200
     21 N8'        -1.4200    1.3280   -3.2740 nb        1 OAG     -0.656000
     22 C8A        -1.5630    0.1390   -3.9950 ca        1 OAG      0.729300
     23 H1         -0.6480   -0.5200    0.6460 h1        1 OAG      0.051200
     24 H1A        -0.0060    1.1610    0.3650 h1        1 OAG      0.051200
     25 HN1         1.9070   -0.3850   -0.7380 hn        1 OAG      0.415800
     26 H9         -0.3100   -2.0720   -1.6260 ha        1 OAG      0.139000
     27 H12         4.1400    0.1870    4.6070 ha        1 OAG      0.153000
     28 HN2'       -3.0300   -0.0340   -7.5880 hn        1 OAG      0.440300
     29 HN2A       -2.8210   -1.7130   -7.7610 hn        1 OAG      0.440300
     30 H3'         5.3170   -0.3340    2.4750 ha        1 OAG      0.151000
     31 HN4'       -0.3430   -3.5900   -2.9930 hn        1 OAG      0.435300
     32 HN4A       -0.9810   -4.3310   -4.3770 hn        1 OAG      0.435300
     33 H6'         0.3470    0.2110    2.5250 ha        1 OAG      0.153000
     34 H7'        -0.8150    2.2240   -1.5280 h4        1 OAG      0.027100
@<TRIPOS>BOND
     1    1    2 1   
     2    1    8 1   
     3    1   23 1   
     4    1   24 1   
     5    2    6 1   
     6    2   25 1   
     7    3    9 1   
     8    4   18 1   
     9    5    8 ar  
    10    5   17 ar  
    11    5   26 1   
    12    6    9 ar  
    13    6   19 ar  
    14    7   11 ar  
    15    7   22 ar  
    16    8   20 ar  
    17    9   13 ar  
    18   10   13 ar  
    19   10   18 ar  
    20   10   27 1   
    21   11   12 1   
    22   11   14 ar  
    23   12   28 1   
    24   12   29 1   
    25   13   30 1   
    26   14   15 ar  
    27   15   16 1   
    28   15   17 ar  
    29   16   31 1   
    30   16   32 1   
    31   17   22 ar  
    32   18   19 ar  
    33   19   33 1   
    34   20   21 ar  
    35   20   34 1   
    36   21   22 ar  
@<TRIPOS>SUBSTRUCTURE
     1 OAG         1 TEMP              0 ****  ****    0 ROOT
