@<TRIPOS>MOLECULE
OAG
   34    36     1     0     0
SMALL
bcc


@<TRIPOS>ATOM
      1 C1          0.0270    0.0840   -0.0020 c3        1 OAG      0.248100
      2 N1          1.3570   -0.4780    0.1090 nu        1 OAG     -0.734600
      3 Cl2         4.3480   -0.7520   -0.1620 cl        1 OAG     -0.095400
      4 Cl5         1.4300    0.6620    5.1030 cl        1 OAG     -0.090400
      5 C9         -0.5750   -1.1310   -2.1230 ca        1 OAG     -0.011000
      6 C1'         2.0970   -0.2210    1.2660 ca        1 OAG      0.172600
      7 N1'        -2.1080    0.2240   -5.2420 nb        1 OAG     -0.773000
      8 C10        -0.5100    0.0390   -1.3960 ca        1 OAG     -0.282600
      9 C11         3.5110   -0.3710    1.2720 ca        1 OAG     -0.051600
     10 C12         3.6090    0.1070    3.6430 ca        1 OAG     -0.162000
     11 C2'        -2.1530   -0.9400   -5.9680 ca        1 OAG      0.934900
     12 N2'        -2.5830   -0.8550   -7.2880 nv        1 OAG     -0.938500
     13 C3'         4.2450   -0.2130    2.4470 ca        1 OAG     -0.077000
     14 N3'        -1.7750   -2.2120   -5.5200 nb        1 OAG     -0.836000
     15 C4'        -1.2480   -2.2920   -4.2780 ca        1 OAG      0.754200
     16 N4'        -0.7920   -3.5190   -3.8410 nv        1 OAG     -0.957500
     17 C4A        -1.1190   -1.1170   -3.4250 ca        1 OAG     -0.400600
     18 C5'         2.2210    0.2670    3.6490 ca        1 OAG      0.057400
     19 C6'         1.4670    0.1120    2.4880 ca        1 OAG     -0.186000
     20 C7'        -1.0080    1.2340   -2.0060 ca        1 OAG      0.461200
     21 N8'        -1.5220    1.3080   -3.2170 nb        1 OAG     -0.655000
     22 C8A        -1.5870    0.1350   -3.9740 ca        1 OAG      0.729300
     23 H1         -0.6530   -0.5230    0.6680 h1        1 OAG      0.050200
     24 H1A         0.0020    1.1510    0.3740 h1        1 OAG      0.050200
     25 HN1         1.8870   -0.4360   -0.7390 hn        1 OAG      0.417800
     26 H9         -0.1930   -2.0610   -1.6730 ha        1 OAG      0.139000
     27 H12         4.1940    0.2310    4.5650 ha        1 OAG      0.153000
     28 HN2'       -3.0280   -0.0180   -7.5790 hn        1 OAG      0.440300
     29 HN2A       -2.8130   -1.6950   -7.7610 hn        1 OAG      0.440300
     30 H3'         5.3390   -0.3390    2.4290 ha        1 OAG      0.151000
     31 HN4'       -0.9690   -4.3270   -4.3900 hn        1 OAG      0.435800
     32 HN4A       -0.6450   -3.6460   -2.8710 hn        1 OAG      0.435800
     33 H6'         0.3740    0.2400    2.5320 ha        1 OAG      0.152000
     34 H7'        -0.9740    2.1880   -1.4440 h4        1 OAG      0.027100
@<TRIPOS>BOND
     1    1    2 1   
     2    1    8 1   
     3    1   23 1   
     4    1   24 1   
     5    2    6 1   
     6    2   25 1   
     7    3    9 1   
     8    4   18 1   
     9    5    8 ar  
    10    5   17 ar  
    11    5   26 1   
    12    6    9 ar  
    13    6   19 ar  
    14    7   11 ar  
    15    7   22 ar  
    16    8   20 ar  
    17    9   13 ar  
    18   10   13 ar  
    19   10   18 ar  
    20   10   27 1   
    21   11   12 1   
    22   11   14 ar  
    23   12   28 1   
    24   12   29 1   
    25   13   30 1   
    26   14   15 ar  
    27   15   16 1   
    28   15   17 ar  
    29   16   31 1   
    30   16   32 1   
    31   17   22 ar  
    32   18   19 ar  
    33   19   33 1   
    34   20   21 ar  
    35   20   34 1   
    36   21   22 ar  
@<TRIPOS>SUBSTRUCTURE
     1 OAG         1 TEMP              0 ****  ****    0 ROOT
