@<TRIPOS>MOLECULE
OAG
   34    30     1     0     0
SMALL
bcc


@<TRIPOS>ATOM
      1 C1         -0.0710    0.1010    1.2650 c3        1 OAG      0.004000
      2 N1          1.1740    0.7710    1.4630 n3        1 OAG     -0.290000
      3 CL2         1.6210    3.6190    1.8510 cl        1 OAG     -0.017000
      4 CL5         3.2020   -0.8730    5.9080 cl        1 OAG     -0.012000
      5 C9         -0.7090   -1.0050   -0.8750 c1        1 OAG     -0.010000
      6 C1'         1.6210    1.0670    2.7800 c2        1 OAG      0.091000
      7 N1'        -2.3250    0.2720   -3.8640 n1        1 OAG     -0.246000
      8 C10        -0.4460    0.1540   -0.2040 c1        1 OAG     -0.210000
      9 C11         2.1190    2.3510    2.9380 c2        1 OAG     -0.130000
     10 C12         3.3040    1.6480    4.9050 c1        1 OAG     -0.162000
     11 C2'        -2.5890   -0.8860   -4.5370 c1        1 OAG      0.214000
     12 N2'        -3.1200   -0.7490   -5.8470 n2        1 OAG     -0.334000
     13 C3'         2.9610    2.6410    4.0010 c1        1 OAG     -0.077000
     14 N3'        -2.2280   -2.0940   -3.9950 n2        1 OAG     -0.308000
     15 C4'        -1.6140   -2.1390   -2.7990 c1        1 OAG      0.230000
     16 N4'        -1.5100   -3.5510   -2.7130 n3        1 OAG     -0.352000
     17 C4A        -1.3440   -0.9630   -2.1130 c1        1 OAG     -0.269000
     18 C5'         2.8060    0.3650    4.7470 c2        1 OAG     -0.021000
     19 C6'         1.9640    0.0740    3.6840 c2        1 OAG     -0.185000
     20 C7'        -0.8120    1.3700   -0.7550 c1        1 OAG     -0.004000
     21 N8'        -1.4340    1.4110   -1.9660 n1        1 OAG     -0.129000
     22 C8A        -1.7020    0.2310   -2.6510 c1        1 OAG      0.138000
     23 H1         -0.7660    0.5410    1.7960 h1        1 OAG      0.090000
     24 H1A         0.0130   -0.8340    1.5480 h1        1 OAG      0.090000
     25 HN1         1.6950    0.9850    0.7450 hn        1 OAG      0.213000
     26 H9         -0.4270   -1.8610   -0.5000 ha        1 OAG      0.139000
     27 H12         3.8970    1.8530    5.6530 ha        1 OAG      0.153000
     28 HN2'       -3.3760   -1.4910   -6.3160 hn        1 OAG      0.234000
     29 HN2A       -3.2120    0.0820   -6.2180 hn        1 OAG      0.234000
     30 H3'         3.3120    3.5450    4.1120 ha        1 OAG      0.151000
     31 HN4'       -1.1380   -3.9380   -1.9720 hn        1 OAG      0.230000
     32 HN4A       -1.8070   -4.0740   -3.4010 hn        1 OAG      0.230000
     33 H6'         1.5880   -0.8210    3.5910 ha        1 OAG      0.153000
     34 H7'        -0.6480    2.1970   -0.2630 ha        1 OAG      0.164000
@<TRIPOS>BOND
     1    1    2 1   
     2    1    8 1   
     3    1   23 1   
     4    1   24 1   
     5    2    6 1   
     6    2   25 1   
     7    3    9 1   
     8    4   18 1   
     9    5   17 1   
    10    5   26 1   
    11    6    9 1   
    12    6   19 1   
    13    7   11 1   
    14    8   20 1   
    15    9   13 1   
    16   10   18 1   
    17   10   27 1   
    18   11   14 1   
    19   12   28 1   
    20   12   29 1   
    21   13   30 1   
    22   14   15 1   
    23   15   16 1   
    24   16   31 1   
    25   16   32 1   
    26   17   22 1   
    27   18   19 1   
    28   19   33 1   
    29   20   34 1   
    30   21   22 1   
@<TRIPOS>SUBSTRUCTURE
     1 OAG         1 TEMP              0 ****  ****    0 ROOT
