@<TRIPOS>MOLECULE
OAG
   34    36     1     0     0
SMALL
bcc


@<TRIPOS>ATOM
      1 C1         -0.5270    0.9130    0.4960 c3        1 OAG      0.247100
      2 N1         -1.1980   -0.1630   -0.2050 nh        1 OAG     -0.733600
      3 CL2        -2.3860   -2.8790   -0.7600 cl        1 OAG     -0.096400
      4 CL5        -5.6950    2.1990    0.4670 cl        1 OAG     -0.089400
      5 C9          1.7500    0.5260   -0.4960 ca        1 OAG     -0.009000
      6 C1'        -2.5910   -0.2420   -0.1300 ca        1 OAG      0.171600
      7 N1'         5.0390    0.2040    1.2360 nb        1 OAG     -0.772000
      8 C10         0.9470    0.6960    0.6120 ca        1 OAG     -0.282600
      9 C11        -3.2670   -1.4580   -0.4260 ca        1 OAG     -0.051600
     10 C12        -5.4230   -0.3890   -0.1770 ca        1 OAG     -0.162000
     11 C2'         5.8320    0.0110    0.1330 ca        1 OAG      0.932900
     12 N2'         7.1820   -0.2470    0.3510 nh        1 OAG     -0.936500
     13 C3'        -4.6590   -1.5190   -0.4510 ca        1 OAG     -0.077000
     14 N3'         5.4070   -0.0020   -1.2020 nb        1 OAG     -0.833000
     15 C4'         4.0860    0.1720   -1.4270 ca        1 OAG      0.750200
     16 N4'         3.6480    0.2330   -2.7360 nh        1 OAG     -0.953500
     17 C4A         3.1410    0.3500   -0.3310 ca        1 OAG     -0.399600
     18 C5'        -4.7740    0.8100    0.1250 ca        1 OAG      0.057400
     19 C6'        -3.3840    0.8950    0.1540 ca        1 OAG     -0.185000
     20 C7'         1.5710    0.6920    1.8980 ca        1 OAG      0.461200
     21 N8'         2.8620    0.5400    2.1130 nb        1 OAG     -0.655000
     22 C8A         3.6940    0.3610    1.0040 ca        1 OAG      0.729300
     23 H1         -0.7100    1.8630   -0.0900 h1        1 OAG      0.051200
     24 H1A        -0.9660    1.0650    1.5280 h1        1 OAG      0.051200
     25 HN1        -0.7320   -1.0450   -0.1330 hn        1 OAG      0.415800
     26 H9          1.2900    0.5360   -1.4970 ha        1 OAG      0.139000
     27 H12        -6.5210   -0.4450   -0.1970 ha        1 OAG      0.153000
     28 HN2'        7.5460   -0.0670    1.2560 hn        1 OAG      0.439300
     29 HN2A        7.8000   -0.1740   -0.4210 hn        1 OAG      0.439300
     30 H3'        -5.1600   -2.4720   -0.6870 ha        1 OAG      0.151000
     31 HN4'        4.2810    0.0020   -3.4660 hn        1 OAG      0.433800
     32 HN4A        2.6850    0.0880   -2.9090 hn        1 OAG      0.433800
     33 H6'        -2.9060    1.8590    0.3910 ha        1 OAG      0.153000
     34 H7'         0.9510    0.8280    2.8070 h4        1 OAG      0.027100
@<TRIPOS>BOND
     1    1    2 1   
     2    1    8 1   
     3    1   23 1   
     4    1   24 1   
     5    2    6 1   
     6    2   25 1   
     7    3    9 1   
     8    4   18 1   
     9    5    8 ar  
    10    5   17 ar  
    11    5   26 1   
    12    6    9 ar  
    13    6   19 ar  
    14    7   11 ar  
    15    7   22 ar  
    16    8   20 ar  
    17    9   13 ar  
    18   10   13 ar  
    19   10   18 ar  
    20   10   27 1   
    21   11   12 1   
    22   11   14 ar  
    23   12   28 1   
    24   12   29 1   
    25   13   30 1   
    26   14   15 ar  
    27   15   16 1   
    28   15   17 ar  
    29   16   31 1   
    30   16   32 1   
    31   17   22 ar  
    32   18   19 ar  
    33   19   33 1   
    34   20   21 ar  
    35   20   34 1   
    36   21   22 ar  
@<TRIPOS>SUBSTRUCTURE
     1 OAG         1 TEMP              0 ****  ****    0 ROOT
