@<TRIPOS>MOLECULE
OAH
   34    36     1     0     0
SMALL
bcc


@<TRIPOS>ATOM
      1 P          -0.1780   -1.2050    1.3300 p5        1 OAH      1.324900
      2 N1         -3.1900   -7.3780   -7.0600 nb        1 OAH     -0.803000
      3 C2         -2.2330   -7.8010   -6.1830 ca        1 OAH      0.644900
      4 N3         -1.6050   -7.1410   -5.1900 nb        1 OAH     -0.705000
      5 C4         -2.0170   -5.8400   -5.0690 ca        1 OAH      0.432800
      6 C5         -3.0270   -5.2390   -5.9490 ca        1 OAH     -0.208200
      7 C6         -3.5890   -6.0720   -6.9670 ca        1 OAH      0.699200
      8 N6         -4.4860   -5.5310   -7.8880 nv        1 OAH     -0.930500
      9 N7         -3.2430   -3.9060   -5.5820 nc        1 OAH     -0.597100
     10 C8         -2.4160   -3.7000   -4.5370 cd        1 OAH      0.446700
     11 N9         -1.6520   -4.8280   -4.1790 na        1 OAH     -0.252000
     12 C1'        -0.6650   -4.9190   -3.0920 c3        1 OAH      0.249800
     13 O1P         1.2760   -1.4100    1.6350 o         1 OAH     -0.920167
     14 C2'        -1.2550   -5.4250   -1.7570 c3        1 OAH     -0.129400
     15 O2P        -0.9980   -2.4760    1.4590 o         1 OAH     -0.920167
     16 C3'        -1.0920   -4.2540   -0.7670 c3        1 OAH      0.172100
     17 O3'        -0.1620   -4.6510    0.2030 oh        1 OAH     -0.682800
     18 O3P        -0.8330    0.0710    1.7590 o         1 OAH     -0.920167
     19 C4'        -0.6330   -3.0700   -1.6440 c3        1 OAH      0.060100
     20 O4'        -0.1050   -3.6380   -2.8740 os        1 OAH     -0.424600
     21 C5'         0.4400   -2.1400   -1.0340 c3        1 OAH      0.235400
     22 O5'        -0.1630   -1.0820   -0.4060 os        1 OAH     -0.562200
     23 HN6        -4.9310   -4.6940   -7.5840 hn        1 OAH      0.408300
     24 HN6A       -5.0760   -6.1750   -8.3620 hn        1 OAH      0.408300
     25 H1'         0.1640   -5.5820   -3.4780 h2        1 OAH      0.079700
     26 H2'        -0.6640   -6.3070   -1.4110 hc        1 OAH      0.054200
     27 H2'A       -2.3250   -5.7240   -1.8430 hc        1 OAH      0.054200
     28 H3'        -2.0620   -3.9780   -0.2670 h1        1 OAH      0.075700
     29 HO3'       -0.1650   -3.9250    0.8970 ho        1 OAH      0.512000
     30 H4'        -1.5280   -2.4530   -1.9330 h1        1 OAH      0.034700
     31 H5'         1.0960   -2.7210   -0.3280 h1        1 OAH      0.013200
     32 H5'A        1.0690   -1.7640   -1.8940 h1        1 OAH      0.013200
     33 H2         -1.9340   -8.8630   -6.3100 h5        1 OAH      0.031100
     34 H8         -2.2990   -2.7540   -3.9810 h5        1 OAH      0.104800
@<TRIPOS>BOND
     1    1   13 1   
     2    1   15 1   
     3    1   18 1   
     4    1   22 1   
     5    2    3 ar  
     6    2    7 ar  
     7    3    4 ar  
     8    3   33 1   
     9    4    5 ar  
    10    5    6 ar  
    11    5   11 1   
    12    6    7 ar  
    13    6    9 1   
    14    7    8 1   
    15    8   23 1   
    16    8   24 1   
    17    9   10 2   
    18   10   11 1   
    19   10   34 1   
    20   11   12 1   
    21   12   14 1   
    22   12   20 1   
    23   12   25 1   
    24   14   16 1   
    25   14   26 1   
    26   14   27 1   
    27   16   17 1   
    28   16   19 1   
    29   16   28 1   
    30   17   29 1   
    31   19   20 1   
    32   19   21 1   
    33   19   30 1   
    34   21   22 1   
    35   21   31 1   
    36   21   32 1   
@<TRIPOS>SUBSTRUCTURE
     1 OAH         1 TEMP              0 ****  ****    0 ROOT
