@<TRIPOS>MOLECULE
OAH
   34    36     1     0     0
SMALL
bcc


@<TRIPOS>ATOM
      1 P          -0.0890   -1.1770    1.2900 p5        1 OAH      1.324900
      2 N1         -3.2780   -7.3910   -7.0040 nb        1 OAH     -0.803000
      3 C2         -2.3050   -7.8120   -6.1430 ca        1 OAH      0.644900
      4 N3         -1.6560   -7.1470   -5.1660 nb        1 OAH     -0.705000
      5 C4         -2.0640   -5.8440   -5.0450 ca        1 OAH      0.432800
      6 C5         -3.0900   -5.2470   -5.9080 ca        1 OAH     -0.208200
      7 C6         -3.6730   -6.0840   -6.9090 ca        1 OAH      0.699200
      8 N6         -4.5870   -5.5460   -7.8160 nh        1 OAH     -0.930500
      9 N7         -3.2960   -3.9110   -5.5430 nc        1 OAH     -0.597100
     10 C8         -2.4480   -3.7010   -4.5160 cd        1 OAH      0.446700
     11 N9         -1.6790   -4.8280   -4.1680 na        1 OAH     -0.252000
     12 C1'        -0.6710   -4.9150   -3.1000 c3        1 OAH      0.249800
     13 O1P         1.3710   -1.3830    1.5680 o         1 OAH     -0.920167
     14 C2'        -1.2350   -5.4120   -1.7510 c3        1 OAH     -0.129400
     15 O2P        -0.9090   -2.4450    1.4430 o         1 OAH     -0.920167
     16 C3'        -1.0510   -4.2360   -0.7710 c3        1 OAH      0.172100
     17 O3'        -0.1020   -4.6300    0.1830 oh        1 OAH     -0.682800
     18 O3P        -0.7330    0.1020    1.7250 o         1 OAH     -0.920167
     19 C4'        -0.6070   -3.0570   -1.6630 c3        1 OAH      0.060100
     20 O4'        -0.1040   -3.6340   -2.9010 os        1 OAH     -0.424600
     21 C5'         0.4800   -2.1260   -1.0800 c3        1 OAH      0.235400
     22 O5'        -0.1080   -1.0640   -0.4470 os        1 OAH     -0.562200
     23 HN6        -5.0240   -4.7070   -7.5080 hn        1 OAH      0.408300
     24 HN6A       -5.1880   -6.1920   -8.2750 hn        1 OAH      0.408300
     25 H1'         0.1490   -5.5810   -3.4980 h2        1 OAH      0.079700
     26 H2'        -0.6390   -6.2940   -1.4110 hc        1 OAH      0.054200
     27 H2'A       -2.3070   -5.7100   -1.8140 hc        1 OAH      0.054200
     28 H3'        -2.0090   -3.9550   -0.2540 h1        1 OAH      0.075700
     29 HO3'       -0.0890   -3.8990    0.8730 ho        1 OAH      0.512000
     30 H4'        -1.5060   -2.4410   -1.9380 h1        1 OAH      0.034700
     31 H5'         1.1490   -2.7050   -0.3840 h1        1 OAH      0.013200
     32 H5'A        1.0930   -1.7570   -1.9540 h1        1 OAH      0.013200
     33 H2         -2.0100   -8.8740   -6.2700 h5        1 OAH      0.031100
     34 H8         -2.3180   -2.7520   -3.9690 h5        1 OAH      0.104800
@<TRIPOS>BOND
     1    1   13 1   
     2    1   15 1   
     3    1   18 1   
     4    1   22 1   
     5    2    3 ar  
     6    2    7 ar  
     7    3    4 ar  
     8    3   33 1   
     9    4    5 ar  
    10    5    6 ar  
    11    5   11 1   
    12    6    7 ar  
    13    6    9 1   
    14    7    8 1   
    15    8   23 1   
    16    8   24 1   
    17    9   10 2   
    18   10   11 1   
    19   10   34 1   
    20   11   12 1   
    21   12   14 1   
    22   12   20 1   
    23   12   25 1   
    24   14   16 1   
    25   14   26 1   
    26   14   27 1   
    27   16   17 1   
    28   16   19 1   
    29   16   28 1   
    30   17   29 1   
    31   19   20 1   
    32   19   21 1   
    33   19   30 1   
    34   21   22 1   
    35   21   31 1   
    36   21   32 1   
@<TRIPOS>SUBSTRUCTURE
     1 OAH         1 TEMP              0 ****  ****    0 ROOT
