@<TRIPOS>MOLECULE
OAH
   34    28     1     0     0
SMALL
bcc


@<TRIPOS>ATOM
      1 P           2.9300    3.9130    1.0900 p3        1 OAH      2.505000
      2 N1          1.0320   -4.4840   -1.1510 n1        1 OAH     -0.278000
      3 C2          1.4750   -3.2930   -1.6520 c1        1 OAH     -0.019000
      4 N3          0.9120   -2.1240   -1.2320 n1        1 OAH     -0.186000
      5 C4         -0.0940   -2.1420   -0.3130 c1        1 OAH     -0.088000
      6 C5         -0.5320   -3.3180    0.1820 c1        1 OAH     -0.088000
      7 C6          0.0420   -4.5050   -0.2450 c1        1 OAH      0.178000
      8 N6         -0.1260   -5.8790    0.0660 n3        1 OAH     -0.329000
      9 N7         -1.5280   -3.0540    1.0700 n1        1 OAH     -0.172500
     10 C8         -1.7000   -1.7140    1.1190 c1        1 OAH      0.002000
     11 N9         -0.8170   -1.1470    0.2670 n1        1 OAH     -0.172500
     12 C1'        -0.7210    0.2750    0.4010 c2        1 OAH      0.161000
     13 O1P         2.1660    5.0330    1.7560 o         1 OAH     -1.236000
     14 C2'        -1.7980    0.9900   -0.5440 c3        1 OAH     -0.202000
     15 O2P         4.1960    4.4620    0.4770 o         1 OAH     -1.236000
     16 C3'        -1.3550    2.1730   -0.7580 c3        1 OAH      0.040000
     17 O3'        -1.8990    3.1240    0.2670 oh        1 OAH     -0.384000
     18 O3P         3.2820    2.8640    2.1170 os        1 OAH     -1.261000
     19 C4'         0.1740    2.0530   -0.6160 c3        1 OAH     -0.078000
     20 O4'         0.4280    0.6770    0.0070 os        1 OAH     -0.274000
     21 C5'         0.6650    3.0640    0.2210 c3        1 OAH      0.093000
     22 O5'         2.0350    3.2650   -0.0400 os        1 OAH     -0.730000
     23 H2          2.1960   -3.2790   -2.3100 ha        1 OAH      0.166000
     24 HN6        -0.7120   -6.1320    0.7190 hn        1 OAH      0.205000
     25 HN6A        0.3590   -6.5110   -0.3830 hn        1 OAH      0.205000
     26 H8         -2.3550   -1.2390    1.6660 DU        1 OAH      0.253000
     27 H1'        -0.8670    0.5360    1.3340 h4        1 OAH      0.118000
     28 H2'        -2.6670    1.0320   -0.0940 hc        1 OAH      0.095500
     29 H2'A       -1.8800    0.5020   -1.3910 hc        1 OAH      0.095500
     30 H3'        -1.5910    2.4680   -1.6590 h1        1 OAH      0.097000
     31 HO3'       -2.5690    3.5890   -0.0860 ho        1 OAH      0.274000
     32 H4'         0.5980    2.1070   -1.4950 h1        1 OAH      0.158000
     33 H5'         0.5470    2.7990    1.1580 h1        1 OAH      0.043500
     34 H5'A        0.1750    3.8960    0.0510 h1        1 OAH      0.043500
@<TRIPOS>BOND
     1    1   13 1   
     2    1   15 1   
     3    1   22 1   
     4    2    7 1   
     5    3    4 1   
     6    3   23 1   
     7    5    6 1   
     8    7    8 1   
     9    8   24 1   
    10    8   25 1   
    11    9   10 1   
    12   10   11 1   
    13   12   14 1   
    14   12   20 1   
    15   12   27 1   
    16   14   16 1   
    17   14   28 1   
    18   14   29 1   
    19   16   17 1   
    20   16   19 1   
    21   16   30 1   
    22   17   31 1   
    23   19   20 1   
    24   19   21 1   
    25   19   32 1   
    26   21   22 1   
    27   21   33 1   
    28   21   34 1   
@<TRIPOS>SUBSTRUCTURE
     1 OAH         1 TEMP              0 ****  ****    0 ROOT
