@<TRIPOS>MOLECULE
OAH
   34    36     1     0     0
SMALL
bcc


@<TRIPOS>ATOM
      1 P           4.7530    0.5640   -0.7370 p5        1 OAH      1.324900
      2 N1         -6.0870   -0.0290    0.3130 nb        1 OAH     -0.804000
      3 C2         -5.4120    1.1250    0.5940 ca        1 OAH      0.644900
      4 N3         -4.0910    1.3920    0.5710 nb        1 OAH     -0.706000
      5 C4         -3.3330    0.3100    0.2080 ca        1 OAH      0.433800
      6 C5         -3.9170   -0.9940   -0.1290 ca        1 OAH     -0.208200
      7 C6         -5.3410   -1.1090   -0.0760 ca        1 OAH      0.700200
      8 N6         -5.9560   -2.2940   -0.4790 nh        1 OAH     -0.932500
      9 N7         -2.8980   -1.9030   -0.4370 nc        1 OAH     -0.597100
     10 C8         -1.7570   -1.1990   -0.3020 cd        1 OAH      0.446700
     11 N9         -1.9530    0.1440    0.0750 na        1 OAH     -0.251000
     12 C1'        -0.9100    1.1450    0.3470 c3        1 OAH      0.247800
     13 O1P         5.2760    1.5040    0.3100 o         1 OAH     -0.920167
     14 C2'        -0.4160    1.8830   -0.9170 c3        1 OAH     -0.129400
     15 O2P         3.8290    1.2390   -1.7340 o         1 OAH     -0.920167
     16 C3'         1.0770    1.5190   -1.0470 c3        1 OAH      0.171100
     17 O3'         1.8150    2.6870   -0.8100 oh        1 OAH     -0.682800
     18 O3P         5.6610   -0.5020   -1.2660 o         1 OAH     -0.920167
     19 C4'         1.2940    0.4060   -0.0010 c3        1 OAH      0.060100
     20 O4'         0.1980    0.5030    0.9500 os        1 OAH     -0.424600
     21 C5'         2.6260    0.4490    0.7810 c3        1 OAH      0.235400
     22 O5'         3.5590   -0.3340    0.1560 os        1 OAH     -0.562200
     23 HN6        -6.8800   -2.4490   -0.1500 hn        1 OAH      0.408800
     24 HN6A       -5.3610   -3.0910   -0.4670 hn        1 OAH      0.408800
     25 H1'        -1.3420    1.8480    1.1170 h2        1 OAH      0.082700
     26 H2'        -0.9750    1.5900   -1.8350 hc        1 OAH      0.053700
     27 H2'A       -0.5320    2.9840   -0.7640 hc        1 OAH      0.053700
     28 H3'         1.3320    1.1140   -2.0640 h1        1 OAH      0.075700
     29 HO3'        2.7700    2.4540   -1.0190 ho        1 OAH      0.513000
     30 H4'         1.1980   -0.5970   -0.5010 h1        1 OAH      0.034700
     31 H5'         2.9790    1.5140    0.8820 h1        1 OAH      0.013200
     32 H5'A        2.4110    0.0360    1.8110 h1        1 OAH      0.013200
     33 H2         -6.0630    1.9730    0.8910 h5        1 OAH      0.031100
     34 H8         -0.7360   -1.5890   -0.4500 h5        1 OAH      0.102800
@<TRIPOS>BOND
     1    1   13 1   
     2    1   15 1   
     3    1   18 1   
     4    1   22 1   
     5    2    3 ar  
     6    2    7 ar  
     7    3    4 ar  
     8    3   33 1   
     9    4    5 ar  
    10    5    6 ar  
    11    5   11 1   
    12    6    7 ar  
    13    6    9 1   
    14    7    8 1   
    15    8   23 1   
    16    8   24 1   
    17    9   10 2   
    18   10   11 1   
    19   10   34 1   
    20   11   12 1   
    21   12   14 1   
    22   12   20 1   
    23   12   25 1   
    24   14   16 1   
    25   14   26 1   
    26   14   27 1   
    27   16   17 1   
    28   16   19 1   
    29   16   28 1   
    30   17   29 1   
    31   19   20 1   
    32   19   21 1   
    33   19   30 1   
    34   21   22 1   
    35   21   31 1   
    36   21   32 1   
@<TRIPOS>SUBSTRUCTURE
     1 OAH         1 TEMP              0 ****  ****    0 ROOT
