@<TRIPOS>MOLECULE
OAH
   34    36     1     0     0
SMALL
bcc


@<TRIPOS>ATOM
      1 P          -0.1050   -1.2180    1.3170 p5        1 OAH      1.324900
      2 N1         -3.2600   -7.3670   -7.0370 nb        1 OAH     -0.803000
      3 C2         -2.2800   -7.7880   -6.1840 ca        1 OAH      0.644900
      4 N3         -1.6350   -7.1290   -5.2020 nb        1 OAH     -0.705000
      5 C4         -2.0540   -5.8320   -5.0640 ca        1 OAH      0.432800
      6 C5         -3.0890   -5.2340   -5.9170 ca        1 OAH     -0.208200
      7 C6         -3.6680   -6.0650   -6.9260 ca        1 OAH      0.699200
      8 N6         -4.5900   -5.5260   -7.8230 nh        1 OAH     -0.930500
      9 N7         -3.3070   -3.9050   -5.5360 nc        1 OAH     -0.597100
     10 C8         -2.4580   -3.6980   -4.5100 cd        1 OAH      0.446700
     11 N9         -1.6770   -4.8220   -4.1770 na        1 OAH     -0.252000
     12 C1'        -0.6640   -4.9110   -3.1140 c3        1 OAH      0.249800
     13 O1P         1.3570   -1.4130    1.5890 o         1 OAH     -0.920167
     14 C2'        -1.2190   -5.4290   -1.7680 c3        1 OAH     -0.129400
     15 O2P        -0.9120   -2.4960    1.4580 o         1 OAH     -0.920167
     16 C3'        -1.0430   -4.2620   -0.7760 c3        1 OAH      0.172100
     17 O3'        -0.0880   -4.6580    0.1710 oh        1 OAH     -0.682800
     18 O3P        -0.7600    0.0500    1.7690 o         1 OAH     -0.920167
     19 C4'        -0.6130   -3.0700   -1.6560 c3        1 OAH      0.060100
     20 O4'        -0.1090   -3.6270   -2.9010 os        1 OAH     -0.424600
     21 C5'         0.4660   -2.1350   -1.0650 c3        1 OAH      0.235400
     22 O5'        -0.1300   -1.0850   -0.4180 os        1 OAH     -0.562200
     23 HN6        -5.0350   -4.6950   -7.5030 hn        1 OAH      0.408300
     24 HN6A       -5.1860   -6.1720   -8.2870 hn        1 OAH      0.408300
     25 H1'         0.1610   -5.5650   -3.5220 h2        1 OAH      0.079700
     26 H2'        -0.6130   -6.3090   -1.4400 hc        1 OAH      0.054200
     27 H2'A       -2.2880   -5.7370   -1.8310 hc        1 OAH      0.054200
     28 H3'        -2.0030   -3.9970   -0.2520 h1        1 OAH      0.075700
     29 HO3'       -0.0800   -3.9350    0.8690 ho        1 OAH      0.512000
     30 H4'        -1.5190   -2.4580   -1.9210 h1        1 OAH      0.034700
     31 H5'         1.0730   -1.7490   -1.9370 h1        1 OAH      0.013200
     32 H5'A        1.1430   -2.7150   -0.3770 h1        1 OAH      0.013200
     33 H2         -1.9760   -8.8460   -6.3250 h5        1 OAH      0.031100
     34 H8         -2.3350   -2.7550   -3.9510 h5        1 OAH      0.104800
@<TRIPOS>BOND
     1    1   13 1   
     2    1   15 1   
     3    1   18 1   
     4    1   22 1   
     5    2    3 ar  
     6    2    7 ar  
     7    3    4 ar  
     8    3   33 1   
     9    4    5 ar  
    10    5    6 ar  
    11    5   11 1   
    12    6    7 ar  
    13    6    9 1   
    14    7    8 1   
    15    8   23 1   
    16    8   24 1   
    17    9   10 2   
    18   10   11 1   
    19   10   34 1   
    20   11   12 1   
    21   12   14 1   
    22   12   20 1   
    23   12   25 1   
    24   14   16 1   
    25   14   26 1   
    26   14   27 1   
    27   16   17 1   
    28   16   19 1   
    29   16   28 1   
    30   17   29 1   
    31   19   20 1   
    32   19   21 1   
    33   19   30 1   
    34   21   22 1   
    35   21   31 1   
    36   21   32 1   
@<TRIPOS>SUBSTRUCTURE
     1 OAH         1 TEMP              0 ****  ****    0 ROOT
