@<TRIPOS>MOLECULE
OAI
   24    17     1     0     0
SMALL
bcc


@<TRIPOS>ATOM
      1 C1         -1.4000    0.0960   -1.1530 c1        1 OAI     -0.079000
      2 C2          0.0010    0.0290   -1.0670 c1        1 OAI     -0.244000
      3 C3          0.6170   -0.0610    0.1720 c1        1 OAI      0.163000
      4 C4         -0.1500   -0.0860    1.3290 c1        1 OAI     -0.177000
      5 C5         -1.5330   -0.0190    1.2450 c1        1 OAI     -0.051000
      6 C6         -2.1580    0.0730   -0.0100 c1        1 OAI     -0.079000
      7 C9         -3.4820    0.1580   -0.3780 c1        1 OAI     -0.157000
      8 C10        -3.5380    0.2350   -1.7550 c1        1 OAI     -0.187000
      9 N11        -2.2580    0.1970   -2.2330 n1        1 OAI     -0.206000
     10 N12         1.9120   -0.6270    0.2910 n         1 OAI     -0.309000
     11 C13         3.0370    0.0570   -0.2380 c2        1 OAI      0.244000
     12 C14         4.4230   -0.5290   -0.0790 c2        1 OAI      0.360000
     13 O15         5.0610   -0.3560    0.9930 o         1 OAI     -0.545000
     14 O16         4.9410   -1.1860   -1.0200 o         1 OAI     -0.545000
     15 O17         2.8900    1.1280   -0.7930 o         1 OAI     -0.435000
     16 C18         0.4240    0.4020    2.6400 c2        1 OAI      0.360000
     17 O19         0.7210   -0.4240    3.5430 o         1 OAI     -0.577000
     18 O20         0.6130    1.6320    2.8250 o         1 OAI     -0.577000
     19 H2          0.5410    0.0460   -1.8800 ha        1 OAI      0.165000
     20 H5         -2.0720   -0.0360    2.0590 ha        1 OAI      0.142000
     21 H9         -4.2470    0.1640    0.2280 DU        1 OAI      0.149000
     22 H10        -4.3480    0.3160   -2.2920 DU        1 OAI      0.149000
     23 H11        -2.0120    0.2320   -3.1100 DU        1 OAI      0.149000
     24 H12         2.0180   -1.4440    0.6830 hn        1 OAI      0.286000
@<TRIPOS>BOND
     1    1    6 1   
     2    2    3 1   
     3    2   19 1   
     4    3   10 1   
     5    4    5 1   
     6    4   16 1   
     7    5   20 1   
     8    7    8 1   
     9    8    9 1   
    10   10   11 1   
    11   10   24 1   
    12   11   12 1   
    13   11   15 1   
    14   12   13 1   
    15   12   14 1   
    16   16   17 1   
    17   16   18 1   
@<TRIPOS>SUBSTRUCTURE
     1 OAI         1 TEMP              0 ****  ****    0 ROOT
