@<TRIPOS>MOLECULE
OAI
   24    25     1     0     0
SMALL
bcc


@<TRIPOS>ATOM
      1 C1          1.2200   -0.2040   -2.1120 ca        1 OAI     -0.040200
      2 C2          1.2230   -0.2540   -0.7200 ca        1 OAI     -0.239000
      3 C3         -0.0010   -0.1120   -0.0240 ca        1 OAI      0.154600
      4 C4         -1.2180    0.0580   -0.7770 ca        1 OAI     -0.196600
      5 C5         -1.1920    0.1130   -2.1630 ca        1 OAI     -0.051000
      6 C6          0.0090   -0.0080   -2.8610 ca        1 OAI     -0.175800
      7 C9          0.3900    0.0290   -4.2580 cc        1 OAI     -0.145200
      8 C10         1.7650   -0.1300   -4.3160 cd        1 OAI     -0.214100
      9 N11         2.2950   -0.3740   -3.0240 na        1 OAI     -0.183400
     10 N12        -0.0410   -0.1360    1.3680 n         1 OAI     -0.456100
     11 C13         1.0310   -0.0760    2.2570 c         1 OAI      0.551100
     12 C14         0.6980   -0.1690    3.7820 c         1 OAI      0.889600
     13 O15         0.7150   -1.3180    4.2910 o         1 OAI     -0.810300
     14 O16         0.4900    0.9140    4.3830 o         1 OAI     -0.810300
     15 O17         2.2160    0.0490    1.8810 o         1 OAI     -0.675100
     16 C18        -2.5960    0.1850   -0.1440 c         1 OAI      0.912200
     17 O19        -2.8390   -0.3770    0.9630 o         1 OAI     -0.842800
     18 O20        -3.4770    0.8300   -0.7890 o         1 OAI     -0.842800
     19 H2          2.1690   -0.3990   -0.1780 ha        1 OAI      0.164000
     20 H5         -2.1410    0.2680   -2.7010 ha        1 OAI      0.142000
     21 H9         -0.2910    0.1520   -5.0930 ha        1 OAI      0.124000
     22 H10         2.4240   -0.1600   -5.1820 h4        1 OAI      0.125000
     23 H11         3.1850   -0.0140   -2.7840 hn        1 OAI      0.247700
     24 H12        -0.9640   -0.1900    1.7710 hn        1 OAI      0.372500
@<TRIPOS>BOND
     1    1    2 ar  
     2    1    6 ar  
     3    1    9 1   
     4    2    3 ar  
     5    2   19 1   
     6    3    4 ar  
     7    3   10 1   
     8    4    5 ar  
     9    4   16 1   
    10    5    6 ar  
    11    5   20 1   
    12    6    7 1   
    13    7    8 2   
    14    7   21 1   
    15    8    9 1   
    16    8   22 1   
    17    9   23 1   
    18   10   11 1   
    19   10   24 1   
    20   11   12 1   
    21   11   15 2   
    22   12   13 1   
    23   12   14 1   
    24   16   17 1   
    25   16   18 1   
@<TRIPOS>SUBSTRUCTURE
     1 OAI         1 TEMP              0 ****  ****    0 ROOT
