@<TRIPOS>MOLECULE
OAI
   24    25     1     0     0
SMALL
bcc


@<TRIPOS>ATOM
      1 C1         -0.0590    0.0020    0.0180 ca        1 OAI     -0.040200
      2 C2          1.3280    0.1070   -0.0560 ca        1 OAI     -0.239000
      3 C3          2.0800    0.1430    1.1430 ca        1 OAI      0.154600
      4 C4          1.3890    0.0490    2.4040 ca        1 OAI     -0.196600
      5 C5          0.0050   -0.0460    2.4490 ca        1 OAI     -0.051000
      6 C6         -0.7480   -0.0650    1.2770 ca        1 OAI     -0.175800
      7 C9         -2.1620   -0.1260    0.9690 cc        1 OAI     -0.145200
      8 C10        -2.2880   -0.0870   -0.4100 cd        1 OAI     -0.214100
      9 N11        -1.0120   -0.1080   -1.0280 na        1 OAI     -0.183400
     10 N12         3.4670    0.2660    1.1160 ns        1 OAI     -0.456100
     11 C13         4.2780    0.5800    0.0270 c         1 OAI      0.551100
     12 C14         5.8220    0.6070    0.2730 c         1 OAI      0.889600
     13 O15         6.4440   -0.4640    0.0580 o         1 OAI     -0.810300
     14 O16         6.3210    1.7070    0.6160 o         1 OAI     -0.810300
     15 O17         3.8200    0.8360   -1.1070 o         1 OAI     -0.675100
     16 C18         2.0890    0.0410    3.7560 c         1 OAI      0.912200
     17 O19         3.2600   -0.4260    3.8600 o         1 OAI     -0.842800
     18 O20         1.4370    0.4740    4.7530 o         1 OAI     -0.842800
     19 H2          1.8240    0.1630   -1.0360 ha        1 OAI      0.164000
     20 H5         -0.4860   -0.0920    3.4350 ha        1 OAI      0.142000
     21 H9         -2.9620   -0.1970    1.6990 ha        1 OAI      0.124000
     22 H10        -3.1850   -0.1150   -1.0260 h4        1 OAI      0.125000
     23 H11        -0.8650    0.4040   -1.8630 hn        1 OAI      0.247700
     24 H12         3.9290    0.1220    2.0010 hn        1 OAI      0.372500
@<TRIPOS>BOND
     1    1    2 ar  
     2    1    6 ar  
     3    1    9 1   
     4    2    3 ar  
     5    2   19 1   
     6    3    4 ar  
     7    3   10 1   
     8    4    5 ar  
     9    4   16 1   
    10    5    6 ar  
    11    5   20 1   
    12    6    7 1   
    13    7    8 2   
    14    7   21 1   
    15    8    9 1   
    16    8   22 1   
    17    9   23 1   
    18   10   11 1   
    19   10   24 1   
    20   11   12 1   
    21   11   15 2   
    22   12   13 1   
    23   12   14 1   
    24   16   17 1   
    25   16   18 1   
@<TRIPOS>SUBSTRUCTURE
     1 OAI         1 TEMP              0 ****  ****    0 ROOT
