@<TRIPOS>MOLECULE
OAI
   25    26     1     0     0
SMALL
bcc


@<TRIPOS>ATOM
      1 C1          0.2530    0.0830    0.0300 ca        1 OAI     -0.049200
      2 C2          1.6400    0.2090    0.1610 ca        1 OAI     -0.150000
      3 C3          2.1670    0.1930    1.4580 ca        1 OAI      0.035600
      4 C4          1.3440    0.0480    2.6090 ca        1 OAI     -0.156600
      5 C5         -0.0340   -0.0790    2.4550 ca        1 OAI     -0.053000
      6 C6         -0.6040   -0.0630    1.1850 ca        1 OAI     -0.090800
      7 C9         -1.9540   -0.1670    0.6770 cc        1 OAI     -0.190200
      8 C10        -1.8800   -0.0850   -0.7110 cd        1 OAI     -0.117100
      9 N11        -0.5510    0.0690   -1.1150 na        1 OAI     -0.196400
     10 N12         3.6150    0.3160    1.6260 n4        1 OAI     -0.572200
     11 C13         4.3030    1.0720    0.5100 c         1 OAI      0.401100
     12 C14         4.8280    0.1440   -0.6710 c         1 OAI      0.907600
     13 O15         4.3280    0.3970   -1.7810 o         1 OAI     -0.735800
     14 O16         5.6420   -0.7220   -0.2990 o         1 OAI     -0.735800
     15 O17         4.4330    2.2760    0.6590 o         1 OAI     -0.492100
     16 C18         1.8830    0.0200    4.0370 c         1 OAI      0.913200
     17 O19         1.0710   -0.2240    4.9640 o         1 OAI     -0.813800
     18 O20         3.1200    0.2440    4.2350 o         1 OAI     -0.813800
     19 H2          2.2800    0.3150   -0.7340 ha        1 OAI      0.179000
     20 H5         -0.6550   -0.1950    3.3600 ha        1 OAI      0.173000
     21 H9         -2.8490   -0.2870    1.2780 ha        1 OAI      0.152000
     22 H10        -2.6790   -0.1230   -1.4520 h4        1 OAI      0.153000
     23 H11        -0.2240    0.1400   -2.0400 hn        1 OAI      0.299700
     24 H12         4.0160   -0.6280    1.6510 hn        1 OAI      0.475800
     25 H122        3.7880    0.7580    2.5640 hn        1 OAI      0.475800
@<TRIPOS>BOND
     1    1    2 ar  
     2    1    6 ar  
     3    1    9 1   
     4    2    3 ar  
     5    2   19 1   
     6    3    4 ar  
     7    3   10 1   
     8    4    5 ar  
     9    4   16 1   
    10    5    6 ar  
    11    5   20 1   
    12    6    7 1   
    13    7    8 2   
    14    7   21 1   
    15    8    9 1   
    16    8   22 1   
    17    9   23 1   
    18   10   11 1   
    19   10   24 1   
    20   10   25 1   
    21   11   12 1   
    22   11   15 2   
    23   12   13 1   
    24   12   14 1   
    25   16   17 1   
    26   16   18 1   
@<TRIPOS>SUBSTRUCTURE
     1 OAI         1 TEMP              0 ****  ****    0 ROOT
