@<TRIPOS>MOLECULE
OAK
   37    35     1     0     0
SMALL
bcc


@<TRIPOS>ATOM
      1 C9          3.5630    2.6300   -0.8360 c1        1 OAK     -0.017500
      2 C10         4.9590    2.7000   -0.8420 c1        1 OAK     -0.063000
      3 C11         5.7130    1.5610   -0.5750 c1        1 OAK     -0.063000
      4 C12         5.0800    0.3580   -0.3040 c1        1 OAK     -0.063000
      5 C13         3.6870    0.2870   -0.2990 c1        1 OAK     -0.063000
      6 C8          2.9310    1.4230   -0.5650 cg        1 OAK     -0.097200
      7 C7          1.3570    1.3490   -0.5240 c         1 OAK      0.614300
      8 O7          0.6850    2.3530   -0.7640 o         1 OAK     -0.576100
      9 N1          0.7140    0.1150   -0.2560 n         1 OAK     -0.545900
     10 C1         -0.6920    0.0400   -0.2690 c3        1 OAK      0.247500
     11 O5         -1.1820    0.0870    1.1170 os        1 OAK     -0.441600
     12 C5         -2.5930   -0.1430    1.2200 c3        1 OAK      0.149100
     13 C6         -2.9630   -0.2600    2.6640 c3        1 OAK      0.135400
     14 O6         -2.9830    1.0150    3.2460 oh        1 OAK     -0.595800
     15 C4         -3.0390   -1.4180    0.4980 c3        1 OAK      0.118100
     16 O4         -4.4880   -1.4750    0.5050 oh        1 OAK     -0.594800
     17 C3         -2.5610   -1.4690   -0.9020 c3        1 OAK      0.108100
     18 O3         -2.8660   -2.8090   -1.4670 oh        1 OAK     -0.608800
     19 C2         -1.1180   -1.2340   -1.0000 c3        1 OAK      0.086100
     20 O2         -0.7580   -1.1220   -2.3970 oh        1 OAK     -0.602800
     21 H9          3.0320    3.4270   -1.0230 ha        1 OAK      0.099500
     22 H10         5.4150    3.5660   -1.0380 ha        1 OAK      0.080250
     23 H11         6.7190    1.6100   -0.5770 ha        1 OAK      0.080250
     24 H12         5.5970   -0.4240   -0.1200 ha        1 OAK      0.080250
     25 H13         3.2510   -0.5460   -0.1100 ha        1 OAK      0.080250
     26 HN1         1.2050   -0.6260   -0.0980 hn        1 OAK      0.307500
     27 H1         -1.0420    0.8030   -0.7500 h2        1 OAK      0.103700
     28 H5         -3.0890    0.6650    0.8100 h1        1 OAK      0.083700
     29 H6         -2.2760   -0.8470    3.1480 h1        1 OAK      0.046200
     30 H6A        -3.8410   -0.6620    2.7370 h1        1 OAK      0.046200
     31 HO6        -3.3520    0.9670    4.0530 ho        1 OAK      0.403000
     32 H4         -2.6840   -2.1990    0.9840 h1        1 OAK      0.058700
     33 HO4        -4.7390   -2.2820    0.6070 ho        1 OAK      0.425000
     34 H3         -3.0380   -0.7810   -1.4290 h1        1 OAK      0.068700
     35 HO3        -3.5030   -2.7250   -2.1400 ho        1 OAK      0.428000
     36 H2         -0.6390   -2.0040   -0.6050 h1        1 OAK      0.058700
     37 HO2        -0.4610   -1.9290   -2.6980 ho        1 OAK      0.423000
@<TRIPOS>BOND
     1    1    6 3   
     2    1   21 1   
     3    2    3 3   
     4    2   22 1   
     5    3   23 1   
     6    4    5 3   
     7    4   24 1   
     8    5   25 1   
     9    6    7 1   
    10    7    8 2   
    11    7    9 1   
    12    9   10 1   
    13    9   26 1   
    14   10   11 1   
    15   10   19 1   
    16   10   27 1   
    17   11   12 1   
    18   12   13 1   
    19   12   15 1   
    20   12   28 1   
    21   13   14 1   
    22   13   29 1   
    23   13   30 1   
    24   14   31 1   
    25   15   16 1   
    26   15   17 1   
    27   15   32 1   
    28   16   33 1   
    29   17   18 1   
    30   17   19 1   
    31   17   34 1   
    32   18   35 1   
    33   19   20 1   
    34   19   36 1   
    35   20   37 1   
@<TRIPOS>SUBSTRUCTURE
     1 OAK         1 TEMP              0 ****  ****    0 ROOT
