@<TRIPOS>MOLECULE
OAK
   38    39     1     0     0
SMALL
bcc


@<TRIPOS>ATOM
      1 C9         -0.4260    0.5570    0.1080 ca        1 OAK     -0.067500
      2 C10         0.8540    1.1030    0.0230 ca        1 OAK     -0.123000
      3 C11         1.7480    0.9640    1.0840 ca        1 OAK     -0.055000
      4 C12         1.3650    0.2720    2.2380 ca        1 OAK     -0.123000
      5 C13         0.0890   -0.2710    2.3390 ca        1 OAK     -0.067500
      6 C8         -0.8140   -0.1240    1.2730 ca        1 OAK     -0.202600
      7 C7         -2.1630   -0.6900    1.2960 c         1 OAK      0.588700
      8 O7         -2.8300   -1.1100    0.3630 o         1 OAK     -0.419100
      9 N1         -2.8220   -0.7490    2.6690 ny        1 OAK     -0.681800
     10 C1         -4.3030   -0.4860    2.6290 c3        1 OAK      0.329300
     11 O5         -4.4440    0.9290    2.5820 os        1 OAK     -0.421600
     12 C5         -5.8170    1.3210    2.3750 c3        1 OAK      0.145100
     13 C6         -5.7960    2.8490    2.2850 c3        1 OAK      0.137400
     14 O6         -5.2760    3.1720    1.0100 oh        1 OAK     -0.597800
     15 C4         -6.6710    0.8400    3.5620 c3        1 OAK      0.081100
     16 O4         -8.0200    1.1150    3.2340 oh        1 OAK     -0.580800
     17 C3         -6.5030   -0.6820    3.7500 c3        1 OAK      0.081100
     18 O3         -7.1160   -1.1100    4.9520 oh        1 OAK     -0.594800
     19 C2         -5.0110   -1.0150    3.9050 c3        1 OAK      0.108100
     20 O2         -4.7570   -2.4010    3.9630 oh        1 OAK     -0.620800
     21 H9         -1.1330    0.6570   -0.7340 ha        1 OAK      0.149000
     22 H10         1.1570    1.6420   -0.8910 ha        1 OAK      0.167000
     23 H11         2.7610    1.3940    1.0130 ha        1 OAK      0.167000
     24 H12         2.0790    0.1520    3.0690 ha        1 OAK      0.167000
     25 H13        -0.1780   -0.8360    3.2450 ha        1 OAK      0.149000
     26 HN1        -2.6940   -1.6910    3.0660 hn        1 OAK      0.473300
     27 H1         -4.7240   -0.9780    1.6990 hx        1 OAK      0.134700
     28 H5         -6.1900    0.8800    1.4090 h1        1 OAK      0.097700
     29 H6         -6.8500    3.2170    2.4080 h1        1 OAK      0.059200
     30 H6A        -5.1360    3.2820    3.0830 h1        1 OAK      0.059200
     31 HO6        -5.5390    4.0820    0.8210 ho        1 OAK      0.424000
     32 H4         -6.3610    1.3710    4.5030 h1        1 OAK      0.075700
     33 HO4        -8.4920    1.2560    4.0650 ho        1 OAK      0.426000
     34 H3         -6.9410   -1.2290    2.8690 h1        1 OAK      0.080700
     35 HO3        -8.0710   -1.1090    4.7990 ho        1 OAK      0.435000
     36 H2         -4.6070   -0.5150    4.8300 h1        1 OAK      0.082700
     37 HO2        -5.4100   -2.7920    4.5650 ho        1 OAK      0.465000
     38 H121       -2.3750   -0.0550    3.2790 hn        1 OAK      0.473300
@<TRIPOS>BOND
     1    1    2 ar  
     2    1    6 ar  
     3    1   21 1   
     4    2    3 ar  
     5    2   22 1   
     6    3    4 ar  
     7    3   23 1   
     8    4    5 ar  
     9    4   24 1   
    10    5    6 ar  
    11    5   25 1   
    12    6    7 1   
    13    7    8 2   
    14    7    9 1   
    15    9   10 1   
    16    9   26 1   
    17    9   38 1   
    18   10   11 1   
    19   10   19 1   
    20   10   27 1   
    21   11   12 1   
    22   12   13 1   
    23   12   15 1   
    24   12   28 1   
    25   13   14 1   
    26   13   29 1   
    27   13   30 1   
    28   14   31 1   
    29   15   16 1   
    30   15   17 1   
    31   15   32 1   
    32   16   33 1   
    33   17   18 1   
    34   17   19 1   
    35   17   34 1   
    36   18   35 1   
    37   19   20 1   
    38   19   36 1   
    39   20   37 1   
@<TRIPOS>SUBSTRUCTURE
     1 OAK         1 TEMP              0 ****  ****    0 ROOT
