@<TRIPOS>MOLECULE
OAK
   37    38     1     0     0
SMALL
bcc


@<TRIPOS>ATOM
      1 C9         -3.9830    0.8980    0.7530 ca        1 OAK     -0.087500
      2 C10        -5.2690    1.0860    0.2460 ca        1 OAK     -0.138500
      3 C11        -5.7180    0.3120   -0.8240 ca        1 OAK     -0.105000
      4 C12        -4.8830   -0.6530   -1.3870 ca        1 OAK     -0.138500
      5 C13        -3.5940   -0.8420   -0.8890 ca        1 OAK     -0.087500
      6 C8         -3.1400   -0.0610    0.1790 ca        1 OAK     -0.148600
      7 C7         -1.7780   -0.2260    0.7600 c         1 OAK      0.665700
      8 O7         -1.5680   -0.0990    1.9800 o         1 OAK     -0.576100
      9 N1         -0.7480   -0.5910   -0.1170 n         1 OAK     -0.545900
     10 C1          0.6290   -0.4440    0.2930 c3        1 OAK      0.247500
     11 O5          1.1430    0.7210   -0.3860 os        1 OAK     -0.441600
     12 C5          2.4650    1.0610    0.0320 c3        1 OAK      0.149100
     13 C6          2.8180    2.3660   -0.6850 c3        1 OAK      0.135400
     14 O6          2.3590    3.4250    0.1390 oh        1 OAK     -0.595800
     15 C4          3.4270   -0.0670   -0.3810 c3        1 OAK      0.118100
     16 O4          4.7180    0.2840    0.0810 oh        1 OAK     -0.594800
     17 C3          2.9640   -1.3850    0.2600 c3        1 OAK      0.108100
     18 O3          3.8150   -2.3980   -0.2490 oh        1 OAK     -0.608800
     19 C2          1.4990   -1.6680   -0.1110 c3        1 OAK      0.086100
     20 O2          1.1420   -2.8280    0.6190 oh        1 OAK     -0.602800
     21 H9         -3.6240    1.4910    1.6090 ha        1 OAK      0.147000
     22 H10        -5.9280    1.8430    0.6960 ha        1 OAK      0.138500
     23 H11        -6.7340    0.4600   -1.2210 ha        1 OAK      0.137000
     24 H12        -5.2410   -1.2700   -2.2240 ha        1 OAK      0.138500
     25 H13        -2.9520   -1.6170   -1.3340 ha        1 OAK      0.147000
     26 HN1        -0.9110   -0.4090   -1.0840 hn        1 OAK      0.307500
     27 H1          0.6860   -0.2960    1.4140 h2        1 OAK      0.103700
     28 H5          2.4930    1.2130    1.1470 h1        1 OAK      0.083700
     29 H6          3.9340    2.4280   -0.8010 h1        1 OAK      0.046200
     30 H6A         2.3210    2.4050   -1.6900 h1        1 OAK      0.046200
     31 HO6         2.4880    4.2380   -0.3620 ho        1 OAK      0.403000
     32 H4          3.4410   -0.1780   -1.5000 h1        1 OAK      0.058700
     33 HO4         5.2800   -0.4890   -0.0670 ho        1 OAK      0.425000
     34 H3          3.0690   -1.3330    1.3800 h1        1 OAK      0.068700
     35 HO3         3.4900   -3.2360    0.1080 ho        1 OAK      0.428000
     36 H2          1.4150   -1.8680   -1.2140 h1        1 OAK      0.058700
     37 HO2         0.2000   -2.9830    0.4800 ho        1 OAK      0.423000
@<TRIPOS>BOND
     1    1    2 ar  
     2    1    6 ar  
     3    1   21 1   
     4    2    3 ar  
     5    2   22 1   
     6    3    4 ar  
     7    3   23 1   
     8    4    5 ar  
     9    4   24 1   
    10    5    6 ar  
    11    5   25 1   
    12    6    7 1   
    13    7    8 2   
    14    7    9 1   
    15    9   10 1   
    16    9   26 1   
    17   10   11 1   
    18   10   19 1   
    19   10   27 1   
    20   11   12 1   
    21   12   13 1   
    22   12   15 1   
    23   12   28 1   
    24   13   14 1   
    25   13   29 1   
    26   13   30 1   
    27   14   31 1   
    28   15   16 1   
    29   15   17 1   
    30   15   32 1   
    31   16   33 1   
    32   17   18 1   
    33   17   19 1   
    34   17   34 1   
    35   18   35 1   
    36   19   20 1   
    37   19   36 1   
    38   20   37 1   
@<TRIPOS>SUBSTRUCTURE
     1 OAK         1 TEMP              0 ****  ****    0 ROOT
