@<TRIPOS>MOLECULE
OAK
   38    39     1     0     0
SMALL
bcc


@<TRIPOS>ATOM
      1 C9         -0.4270    0.5700    0.1100 ca        1 OAK     -0.067500
      2 C10         0.8500    1.1220    0.0260 ca        1 OAK     -0.123000
      3 C11         1.7440    0.9830    1.0870 ca        1 OAK     -0.055000
      4 C12         1.3640    0.2880    2.2400 ca        1 OAK     -0.123000
      5 C13         0.0900   -0.2610    2.3390 ca        1 OAK     -0.067500
      6 C8         -0.8130   -0.1160    1.2740 ca        1 OAK     -0.202600
      7 C7         -2.1600   -0.6870    1.2960 c         1 OAK      0.588700
      8 O7         -2.8250   -1.1070    0.3620 o         1 OAK     -0.419100
      9 N1         -2.8190   -0.7500    2.6680 n4        1 OAK     -0.681800
     10 C1         -4.3000   -0.4900    2.6270 c3        1 OAK      0.329300
     11 O5         -4.4450    0.9250    2.5820 os        1 OAK     -0.421600
     12 C5         -5.8180    1.3150    2.3750 c3        1 OAK      0.145100
     13 C6         -5.8010    2.8420    2.2880 c3        1 OAK      0.137400
     14 O6         -5.2810    3.1690    1.0120 oh        1 OAK     -0.597800
     15 C4         -6.6710    0.8300    3.5610 c3        1 OAK      0.081100
     16 O4         -8.0210    1.1030    3.2330 oh        1 OAK     -0.580800
     17 C3         -6.5010   -0.6910    3.7480 c3        1 OAK      0.081100
     18 O3         -7.1130   -1.1230    4.9490 oh        1 OAK     -0.594800
     19 C2         -5.0080   -1.0210    3.9030 c3        1 OAK      0.108100
     20 O2         -4.7510   -2.4080    3.9590 oh        1 OAK     -0.620800
     21 H9         -1.1350    0.6690   -0.7320 ha        1 OAK      0.149000
     22 H10         1.1510    1.6630   -0.8860 ha        1 OAK      0.167000
     23 H11         2.7560    1.4170    1.0170 ha        1 OAK      0.167000
     24 H12         2.0790    0.1690    3.0700 ha        1 OAK      0.167000
     25 H13        -0.1740   -0.8280    3.2440 ha        1 OAK      0.149000
     26 HN1        -2.3740   -0.0560    3.2800 hn        1 OAK      0.473300
     27 H1         -4.7200   -0.9810    1.6970 hx        1 OAK      0.134700
     28 H5         -6.1910    0.8740    1.4090 h1        1 OAK      0.097700
     29 H6         -5.1410    3.2760    3.0860 h1        1 OAK      0.059200
     30 H6A        -6.8560    3.2080    2.4100 h1        1 OAK      0.059200
     31 HO6        -5.5470    4.0780    0.8240 ho        1 OAK      0.424000
     32 H4         -6.3630    1.3610    4.5030 h1        1 OAK      0.075700
     33 HO4        -8.4940    1.2410    4.0650 ho        1 OAK      0.426000
     34 H3         -6.9370   -1.2390    2.8660 h1        1 OAK      0.080700
     35 HO3        -8.0680   -1.1230    4.7960 ho        1 OAK      0.435000
     36 H2         -4.6050   -0.5220    4.8290 h1        1 OAK      0.082700
     37 HO2        -5.4040   -2.8000    4.5610 ho        1 OAK      0.465000
     38 H121       -2.6900   -1.6920    3.0630 hn        1 OAK      0.473300
@<TRIPOS>BOND
     1    1    2 ar  
     2    1    6 ar  
     3    1   21 1   
     4    2    3 ar  
     5    2   22 1   
     6    3    4 ar  
     7    3   23 1   
     8    4    5 ar  
     9    4   24 1   
    10    5    6 ar  
    11    5   25 1   
    12    6    7 1   
    13    7    8 2   
    14    7    9 1   
    15    9   10 1   
    16    9   26 1   
    17    9   38 1   
    18   10   11 1   
    19   10   19 1   
    20   10   27 1   
    21   11   12 1   
    22   12   13 1   
    23   12   15 1   
    24   12   28 1   
    25   13   14 1   
    26   13   29 1   
    27   13   30 1   
    28   14   31 1   
    29   15   16 1   
    30   15   17 1   
    31   15   32 1   
    32   16   33 1   
    33   17   18 1   
    34   17   19 1   
    35   17   34 1   
    36   18   35 1   
    37   19   20 1   
    38   19   36 1   
    39   20   37 1   
@<TRIPOS>SUBSTRUCTURE
     1 OAK         1 TEMP              0 ****  ****    0 ROOT
