@<TRIPOS>MOLECULE
OAK
   38    39     1     0     0
SMALL
bcc


@<TRIPOS>ATOM
      1 C9         -0.4340    0.5560    0.0980 ca        1 OAK     -0.067500
      2 C10         0.8460    1.1030    0.0090 ca        1 OAK     -0.123000
      3 C11         1.7430    0.9650    1.0670 ca        1 OAK     -0.055000
      4 C12         1.3640    0.2740    2.2230 ca        1 OAK     -0.123000
      5 C13         0.0880   -0.2700    2.3280 ca        1 OAK     -0.067500
      6 C8         -0.8180   -0.1250    1.2650 ca        1 OAK     -0.202600
      7 C7         -2.1660   -0.6920    1.2930 c         1 OAK      0.588700
      8 O7         -2.8360   -1.1130    0.3620 o         1 OAK     -0.419100
      9 N1         -2.8210   -0.7500    2.6670 n4        1 OAK     -0.681800
     10 C1         -4.3020   -0.4870    2.6310 c3        1 OAK      0.329300
     11 O5         -4.4440    0.9280    2.5840 os        1 OAK     -0.421600
     12 C5         -5.8160    1.3210    2.3810 c3        1 OAK      0.145100
     13 C6         -5.7950    2.8480    2.2900 c3        1 OAK      0.137400
     14 O6         -5.2800    3.1710    1.0120 oh        1 OAK     -0.597800
     15 C4         -6.6670    0.8400    3.5710 c3        1 OAK      0.081100
     16 O4         -8.0170    1.1150    3.2470 oh        1 OAK     -0.580800
     17 C3         -6.4990   -0.6810    3.7600 c3        1 OAK      0.081100
     18 O3         -7.1090   -1.1090    4.9640 oh        1 OAK     -0.594800
     19 C2         -5.0060   -1.0140    3.9100 c3        1 OAK      0.108100
     20 O2         -4.7520   -2.4010    3.9690 oh        1 OAK     -0.620800
     21 H9         -1.1430    0.6540   -0.7410 ha        1 OAK      0.149000
     22 H10         1.1450    1.6410   -0.9060 ha        1 OAK      0.167000
     23 H11         2.7560    1.3960    0.9930 ha        1 OAK      0.167000
     24 H12         2.0810    0.1550    3.0520 ha        1 OAK      0.167000
     25 H13        -0.1750   -0.8350    3.2350 ha        1 OAK      0.149000
     26 HN1        -2.3730   -0.0560    3.2760 hn        1 OAK      0.473300
     27 H1         -4.7260   -0.9790    1.7030 hx        1 OAK      0.134700
     28 H5         -6.1930    0.8790    1.4170 h1        1 OAK      0.097700
     29 H6         -5.1320    3.2820    3.0850 h1        1 OAK      0.059200
     30 H6A        -6.8490    3.2160    2.4160 h1        1 OAK      0.059200
     31 HO6        -5.5440    4.0800    0.8230 ho        1 OAK      0.424000
     32 H4         -6.3540    1.3720    4.5110 h1        1 OAK      0.075700
     33 HO4        -8.4860    1.2570    4.0790 ho        1 OAK      0.426000
     34 H3         -6.9400   -1.2290    2.8800 h1        1 OAK      0.080700
     35 HO3        -8.0640   -1.1070    4.8130 ho        1 OAK      0.435000
     36 H2         -4.6000   -0.5140    4.8340 h1        1 OAK      0.082700
     37 HO2        -5.4040   -2.7910    4.5730 ho        1 OAK      0.465000
     38 H121       -2.6930   -1.6920    3.0640 hn        1 OAK      0.473300
@<TRIPOS>BOND
     1    1    2 ar  
     2    1    6 ar  
     3    1   21 1   
     4    2    3 ar  
     5    2   22 1   
     6    3    4 ar  
     7    3   23 1   
     8    4    5 ar  
     9    4   24 1   
    10    5    6 ar  
    11    5   25 1   
    12    6    7 1   
    13    7    8 2   
    14    7    9 1   
    15    9   10 1   
    16    9   26 1   
    17    9   38 1   
    18   10   11 1   
    19   10   19 1   
    20   10   27 1   
    21   11   12 1   
    22   12   13 1   
    23   12   15 1   
    24   12   28 1   
    25   13   14 1   
    26   13   29 1   
    27   13   30 1   
    28   14   31 1   
    29   15   16 1   
    30   15   17 1   
    31   15   32 1   
    32   16   33 1   
    33   17   18 1   
    34   17   19 1   
    35   17   34 1   
    36   18   35 1   
    37   19   20 1   
    38   19   36 1   
    39   20   37 1   
@<TRIPOS>SUBSTRUCTURE
     1 OAK         1 TEMP              0 ****  ****    0 ROOT
