@<TRIPOS>MOLECULE
OAL
   31    33     1     0     0
SMALL
bcc


@<TRIPOS>ATOM
      1 C1          0.0220    0.2860    0.0340 ca        1 OAL     -0.088000
      2 C2          1.4130    0.1950    0.0480 ca        1 OAL     -0.133000
      3 C3          2.0860   -0.1050    1.2360 ca        1 OAL     -0.087600
      4 C4          1.3770   -0.3350    2.4240 ca        1 OAL     -0.145600
      5 C5         -0.0290   -0.2310    2.3940 ca        1 OAL      0.160100
      6 C6         -0.7050    0.0800    1.2010 ca        1 OAL     -0.219000
      7 C7          2.0930   -0.6850    3.6730 c         1 OAL      0.604300
      8 C8          3.5140   -0.3250    3.7400 ca        1 OAL     -0.237600
      9 C9          4.2310   -0.0790    2.5430 ca        1 OAL     -0.147600
     10 C10         3.5700   -0.1610    1.2340 c         1 OAL      0.589300
     11 C11         4.2010   -0.2300    4.9640 ca        1 OAL      0.173100
     12 C12         5.5810    0.1390    5.0160 ca        1 OAL     -0.012300
     13 C13         6.2470    0.3610    3.8160 ca        1 OAL     -0.104000
     14 C14         5.5820    0.2460    2.5900 ca        1 OAL     -0.101000
     15 C15         6.2820    0.2600    6.3130 c3        1 OAL     -0.181100
     16 C16         7.2950    1.4310    6.3690 c         1 OAL      0.916600
     17 O1         -0.7050   -0.4290    3.5720 oh        1 OAL     -0.461100
     18 O2          1.4970   -1.2590    4.6010 o         1 OAL     -0.554100
     19 O3          3.6330   -0.4900    6.1820 oh        1 OAL     -0.491100
     20 O5          8.2960    1.3940    5.5950 o         1 OAL     -0.834800
     21 O4          7.0810    2.3410    7.2130 o         1 OAL     -0.834800
     22 O6          4.1950   -0.2440    0.1650 o         1 OAL     -0.546100
     23 HC1        -0.5030    0.5240   -0.9030 ha        1 OAL      0.131000
     24 HC2         1.9980    0.3550   -0.8720 ha        1 OAL      0.157000
     25 HC6        -1.8010    0.1580    1.1980 ha        1 OAL      0.130000
     26 HC13        7.3160    0.6580    3.8600 ha        1 OAL      0.211000
     27 HC14        6.1300    0.4190    1.6500 ha        1 OAL      0.144000
     28 H151        5.5430    0.3900    7.1460 hc        1 OAL      0.057200
     29 H152        6.8570   -0.6850    6.4990 hc        1 OAL      0.057200
     30 HO1        -1.6520   -0.3310    3.3910 ho        1 OAL      0.410000
     31 HO3         2.6750   -0.6010    6.0880 ho        1 OAL      0.439000
@<TRIPOS>BOND
     1    1    2 ar  
     2    1    6 ar  
     3    1   23 1   
     4    2    3 ar  
     5    2   24 1   
     6    3    4 ar  
     7    3   10 1   
     8    4    5 ar  
     9    4    7 1   
    10    5    6 ar  
    11    5   17 1   
    12    6   25 1   
    13    7    8 1   
    14    7   18 2   
    15    8    9 ar  
    16    8   11 ar  
    17    9   10 1   
    18    9   14 ar  
    19   10   22 2   
    20   11   12 ar  
    21   11   19 1   
    22   12   13 ar  
    23   12   15 1   
    24   13   14 ar  
    25   13   26 1   
    26   14   27 1   
    27   15   16 1   
    28   15   28 1   
    29   15   29 1   
    30   16   20 1   
    31   16   21 1   
    32   17   30 1   
    33   19   31 1   
@<TRIPOS>SUBSTRUCTURE
     1 OAL         1 TEMP              0 ****  ****    0 ROOT
