@<TRIPOS>MOLECULE
OAL
   31    28     1     0     0
SMALL
bcc


@<TRIPOS>ATOM
      1 C1         -3.4260   -0.1020   -3.3870 c1        1 OAL     -0.132000
      2 C2         -2.0370   -0.0830   -3.3700 c1        1 OAL     -0.136000
      3 C3         -1.3510   -0.0470   -2.1480 c1        1 OAL     -0.070000
      4 C4         -2.0570   -0.0310   -0.9610 c1        1 OAL     -0.184000
      5 C5         -3.4580   -0.0500   -0.9800 c1        1 OAL      0.134000
      6 C6         -4.1370   -0.0860   -2.1920 c1        1 OAL     -0.132000
      7 C7         -1.3080    0.0110    0.3750 c2        1 OAL      0.328000
      8 C8          0.2250    0.0350    0.3940 c2        1 OAL     -0.176000
      9 C9          0.9290    0.0540   -0.7930 c2        1 OAL     -0.114000
     10 C10         0.1800   -0.0020   -2.1290 c2        1 OAL      0.309000
     11 C11         0.9110    0.0770    1.6160 c1        1 OAL      0.172000
     12 C12         2.2980    0.1360    1.6320 c1        1 OAL     -0.059000
     13 C13         3.0080    0.1550    0.4350 c1        1 OAL     -0.110000
     14 C14         2.3300    0.1140   -0.7760 c1        1 OAL     -0.117000
     15 C15         3.0600    0.7360    2.7910 c3        1 OAL     -0.230000
     16 C16         3.8910   -0.3370    3.4570 c2        1 OAL      0.340000
     17 O1         -4.4260    0.0780    0.0330 oh        1 OAL     -0.269000
     18 O2         -1.9290    0.0440    1.4190 o         1 OAL     -0.303000
     19 O3          0.1230   -0.0760    2.7720 oh        1 OAL     -0.271000
     20 O5          5.0600   -0.5700    3.0520 o         1 OAL     -0.556500
     21 O4          3.4170   -0.9910    4.4240 o         1 OAL     -0.556500
     22 O6          0.8000    0.0140   -3.1730 o         1 OAL     -0.312000
     23 HC1        -3.9040   -0.1270   -4.2390 ha        1 OAL      0.137000
     24 HC2        -1.5390   -0.0940   -4.2100 ha        1 OAL      0.152000
     25 HC6        -5.1130   -0.0990   -2.2040 ha        1 OAL      0.137000
     26 HC13        3.9830    0.1960    0.4470 ha        1 OAL      0.141000
     27 HC14        2.8280    0.1260   -1.6150 ha        1 OAL      0.141000
     28 H151        2.4280    1.1090    3.4380 hc        1 OAL      0.088000
     29 H152        3.6470    1.4460    2.4630 hc        1 OAL      0.088000
     30 HO1        -4.6130   -0.7240    0.3680 ho        1 OAL      0.263000
     31 HO3         0.1800   -0.9140    3.0610 ho        1 OAL      0.299000
@<TRIPOS>BOND
     1    1    6 1   
     2    1   23 1   
     3    2    3 1   
     4    2   24 1   
     5    3   10 1   
     6    4    5 1   
     7    4    7 1   
     8    5   17 1   
     9    6   25 1   
    10    7    8 1   
    11    7   18 1   
    12    8    9 1   
    13    8   11 1   
    14    9   10 1   
    15    9   14 1   
    16   10   22 1   
    17   11   19 1   
    18   12   13 1   
    19   12   15 1   
    20   13   26 1   
    21   14   27 1   
    22   15   16 1   
    23   15   28 1   
    24   15   29 1   
    25   16   20 1   
    26   16   21 1   
    27   17   30 1   
    28   19   31 1   
@<TRIPOS>SUBSTRUCTURE
     1 OAL         1 TEMP              0 ****  ****    0 ROOT
