@<TRIPOS>MOLECULE
OAL
   31    33     1     0     0
SMALL
bcc


@<TRIPOS>ATOM
      1 C1          0.0060    0.2850    0.0490 ca        1 OAL     -0.088000
      2 C2          1.3970    0.1940    0.0570 ca        1 OAL     -0.133000
      3 C3          2.0760   -0.1050    1.2420 ca        1 OAL     -0.087600
      4 C4          1.3730   -0.3360    2.4330 ca        1 OAL     -0.145600
      5 C5         -0.0340   -0.2320    2.4090 ca        1 OAL      0.160100
      6 C6         -0.7150    0.0790    1.2200 ca        1 OAL     -0.219000
      7 C7          2.0950   -0.6850    3.6790 c         1 OAL      0.604300
      8 C8          3.5160   -0.3250    3.7400 ca        1 OAL     -0.237600
      9 C9          4.2280   -0.0780    2.5390 ca        1 OAL     -0.147600
     10 C10         3.5600   -0.1610    1.2330 c         1 OAL      0.589300
     11 C11         4.2090   -0.2300    4.9600 ca        1 OAL      0.173100
     12 C12         5.5890    0.1400    5.0050 ca        1 OAL     -0.012300
     13 C13         6.2490    0.3620    3.8030 ca        1 OAL     -0.104000
     14 C14         5.5790    0.2470    2.5790 ca        1 OAL     -0.101000
     15 C15         6.2950    0.2610    6.3000 c3        1 OAL     -0.181100
     16 C16         7.3090    1.4320    6.3500 c         1 OAL      0.916600
     17 O1         -0.7030   -0.4300    3.5910 oh        1 OAL     -0.461100
     18 O2          1.5040   -1.2590    4.6090 o         1 OAL     -0.554100
     19 O3          3.6470   -0.4900    6.1800 oh        1 OAL     -0.491100
     20 O5          8.3070    1.3950    5.5720 o         1 OAL     -0.834800
     21 O4          7.0990    2.3410    7.1960 o         1 OAL     -0.834800
     22 O6          4.1800   -0.2430    0.1610 o         1 OAL     -0.546100
     23 HC1        -0.5230    0.5230   -0.8850 ha        1 OAL      0.131000
     24 HC2         1.9780    0.3540   -0.8660 ha        1 OAL      0.157000
     25 HC6        -1.8110    0.1560    1.2210 ha        1 OAL      0.130000
     26 HC13        7.3190    0.6600    3.8410 ha        1 OAL      0.211000
     27 HC14        6.1220    0.4200    1.6370 ha        1 OAL      0.144000
     28 H151        5.5610    0.3910    7.1360 hc        1 OAL      0.057200
     29 H152        6.8720   -0.6840    6.4820 hc        1 OAL      0.057200
     30 HO1        -1.6510   -0.3330    3.4150 ho        1 OAL      0.410000
     31 HO3         2.6880   -0.6010    6.0910 ho        1 OAL      0.439000
@<TRIPOS>BOND
     1    1    2 ar  
     2    1    6 ar  
     3    1   23 1   
     4    2    3 ar  
     5    2   24 1   
     6    3    4 ar  
     7    3   10 1   
     8    4    5 ar  
     9    4    7 1   
    10    5    6 ar  
    11    5   17 1   
    12    6   25 1   
    13    7    8 1   
    14    7   18 2   
    15    8    9 ar  
    16    8   11 ar  
    17    9   10 1   
    18    9   14 ar  
    19   10   22 2   
    20   11   12 ar  
    21   11   19 1   
    22   12   13 ar  
    23   12   15 1   
    24   13   14 ar  
    25   13   26 1   
    26   14   27 1   
    27   15   16 1   
    28   15   28 1   
    29   15   29 1   
    30   16   20 1   
    31   16   21 1   
    32   17   30 1   
    33   19   31 1   
@<TRIPOS>SUBSTRUCTURE
     1 OAL         1 TEMP              0 ****  ****    0 ROOT
