@<TRIPOS>MOLECULE
OAL
   31    33     1     0     0
SMALL
bcc


@<TRIPOS>ATOM
      1 C1          0.4860    0.6390   -4.8820 ca        1 OAL     -0.090000
      2 C2          1.3550    0.4970   -3.7960 ca        1 OAL     -0.136000
      3 C3          0.8730    0.0580   -2.5640 ca        1 OAL     -0.082600
      4 C4         -0.4880   -0.2580   -2.3880 ca        1 OAL     -0.208600
      5 C5         -1.3480   -0.1230   -3.4970 ca        1 OAL      0.187100
      6 C6         -0.8570    0.3350   -4.7420 ca        1 OAL     -0.168000
      7 C7         -0.9740   -0.7160   -1.0690 c         1 OAL      0.620300
      8 C8         -0.1030   -0.5450    0.0930 ca        1 OAL     -0.240600
      9 C9          1.2670   -0.2280   -0.0920 ca        1 OAL     -0.143600
     10 C10         1.8310   -0.0690   -1.4380 c         1 OAL      0.587300
     11 C11        -0.5790   -0.6940    1.4110 ca        1 OAL      0.184100
     12 C12         0.2790   -0.5030    2.5390 ca        1 OAL     -0.016300
     13 C13         1.6140   -0.1980    2.3070 ca        1 OAL     -0.098000
     14 C14         2.1060   -0.0680    1.0020 ca        1 OAL     -0.100000
     15 C15        -0.2420   -0.6430    3.9170 c3        1 OAL     -0.182100
     16 C16         0.3290    0.4060    4.9060 c         1 OAL      0.917600
     17 O1         -2.6890   -0.3930   -3.5080 oh        1 OAL     -0.514100
     18 O2         -2.1130   -1.2240   -0.9720 o         1 OAL     -0.626100
     19 O3         -1.8590   -1.0510    1.7320 oh        1 OAL     -0.490100
     20 O5          1.5710    0.3890    5.1430 o         1 OAL     -0.833300
     21 O4         -0.4900    1.1960    5.4440 o         1 OAL     -0.833300
     22 O6          3.0540   -0.0220   -1.6480 o         1 OAL     -0.546100
     23 HC1         0.8730    0.9930   -5.8500 ha        1 OAL      0.132000
     24 HC2         2.4270    0.7260   -3.9030 ha        1 OAL      0.157000
     25 HC6        -1.5600    0.4370   -5.5800 ha        1 OAL      0.148000
     26 HC13        2.2730   -0.0320    3.1860 ha        1 OAL      0.213000
     27 HC14        3.1700    0.1700    0.8390 ha        1 OAL      0.148000
     28 H151        0.0430   -1.6560    4.3080 hc        1 OAL      0.057200
     29 H152       -1.3600   -0.5660    3.9250 hc        1 OAL      0.057200
     30 HO1        -2.9790   -0.7220   -2.6410 ho        1 OAL      0.462000
     31 HO3        -2.4380   -0.9750    0.9590 ho        1 OAL      0.440000
@<TRIPOS>BOND
     1    1    2 ar  
     2    1    6 ar  
     3    1   23 1   
     4    2    3 ar  
     5    2   24 1   
     6    3    4 ar  
     7    3   10 1   
     8    4    5 ar  
     9    4    7 1   
    10    5    6 ar  
    11    5   17 1   
    12    6   25 1   
    13    7    8 1   
    14    7   18 2   
    15    8    9 ar  
    16    8   11 ar  
    17    9   10 1   
    18    9   14 ar  
    19   10   22 2   
    20   11   12 ar  
    21   11   19 1   
    22   12   13 ar  
    23   12   15 1   
    24   13   14 ar  
    25   13   26 1   
    26   14   27 1   
    27   15   16 1   
    28   15   28 1   
    29   15   29 1   
    30   16   20 1   
    31   16   21 1   
    32   17   30 1   
    33   19   31 1   
@<TRIPOS>SUBSTRUCTURE
     1 OAL         1 TEMP              0 ****  ****    0 ROOT
