@<TRIPOS>MOLECULE
OAM
   39    41     1     0     0
SMALL
bcc


@<TRIPOS>ATOM
      1 CAA         0.0750    0.1310   -0.0790 c3        1 OAM     -0.119400
      2 CAB         1.5540    0.1330   -0.0220 cc        1 OAM      0.355800
      3 NAC         2.3470    0.1580    1.0930 nd        1 OAM     -0.342000
      4 NAD         3.6110    0.1250    0.7360 nd        1 OAM     -0.382000
      5 CAE         3.7060    0.0800   -0.6360 cc        1 OAM      0.486000
      6 CAF         4.9140    0.0260   -1.4000 cc        1 OAM     -0.384800
      7 CAG         5.2230   -0.7530   -2.5760 cc        1 OAM      0.338200
      8 NAH         6.5080   -0.5660   -2.9500 nd        1 OAM     -0.510800
      9 NAI         7.0620    0.2960   -2.0720 na        1 OAM      0.058400
     10 CAJ         8.4180    0.7750   -2.1410 c3        1 OAM      0.040600
     11 CAK         6.1310    0.7010   -1.0830 cd        1 OAM      0.169300
     12 NAL         6.3750    1.6490   -0.1030 nv        1 OAM     -0.796200
     13 NAM         2.3940    0.0760   -1.1580 na        1 OAM     -0.329700
     14 CAN         1.9800    0.1600   -2.5250 c3        1 OAM      0.045300
     15 CAO         1.7280    1.5850   -3.0260 c3        1 OAM     -0.127400
     16 CAP         1.3490    1.5170   -4.5080 c3        1 OAM      0.043300
     17 NAQ         1.0630    2.7850   -5.1060 na        1 OAM     -0.212900
     18 CAR         2.0000    3.7240   -5.5520 cc        1 OAM     -0.252600
     19 CAS         1.2590    4.8300   -6.0050 cd        1 OAM      0.292200
     20 NAT        -0.1060    4.5940   -5.8350 nd        1 OAM     -0.663000
     21 CAU        -0.2040    3.3660   -5.2870 cc        1 OAM      0.387400
     22 HAA        -0.2910   -0.8180   -0.5460 hc        1 OAM      0.059367
     23 HAAA       -0.3490    0.2100    0.9530 hc        1 OAM      0.059367
     24 HAAB       -0.2900    0.9970   -0.6870 hc        1 OAM      0.059367
     25 HAG         4.5690   -1.4420   -3.1120 h4        1 OAM      0.041100
     26 HAJ         8.9580    0.4950   -1.1960 h1        1 OAM      0.059700
     27 HAJA        8.9510    0.3200   -3.0170 h1        1 OAM      0.059700
     28 HAJB        8.4140    1.8930   -2.2480 h1        1 OAM      0.059700
     29 HNAL        5.6740    1.6680    0.6090 hn        1 OAM      0.416800
     30 HNAA        7.3060    1.6570    0.2540 hn        1 OAM      0.416800
     31 HAN         2.7760   -0.3160   -3.1660 h1        1 OAM      0.064700
     32 HANA        1.0280   -0.4400   -2.6330 h1        1 OAM      0.064700
     33 HAO         0.9040    2.0620   -2.4340 hc        1 OAM      0.071200
     34 HAOA        2.6470    2.2120   -2.8930 hc        1 OAM      0.071200
     35 HAP         2.1990    1.0420   -5.0790 h1        1 OAM      0.060700
     36 HAPA        0.4370    0.8630   -4.6250 h1        1 OAM      0.060700
     37 HAR         3.0710    3.5380   -5.5230 h4        1 OAM      0.178000
     38 HAS         1.6260    5.7610   -6.4350 h4        1 OAM      0.043100
     39 HAU        -1.1330    2.8520   -5.0220 h5        1 OAM      0.059100
@<TRIPOS>BOND
     1    1    2 1   
     2    1   22 1   
     3    1   23 1   
     4    1   24 1   
     5    2    3 2   
     6    2   13 1   
     7    3    4 1   
     8    4    5 2   
     9    5    6 1   
    10    5   13 1   
    11    6    7 1   
    12    6   11 2   
    13    7    8 2   
    14    7   25 1   
    15    8    9 1   
    16    9   10 1   
    17    9   11 1   
    18   10   26 1   
    19   10   27 1   
    20   10   28 1   
    21   11   12 1   
    22   12   29 1   
    23   12   30 1   
    24   13   14 1   
    25   14   15 1   
    26   14   31 1   
    27   14   32 1   
    28   15   16 1   
    29   15   33 1   
    30   15   34 1   
    31   16   17 1   
    32   16   35 1   
    33   16   36 1   
    34   17   18 1   
    35   17   21 1   
    36   18   19 2   
    37   18   37 1   
    38   19   20 1   
    39   19   38 1   
    40   20   21 2   
    41   21   39 1   
@<TRIPOS>SUBSTRUCTURE
     1 OAM         1 TEMP              0 ****  ****    0 ROOT
