@<TRIPOS>MOLECULE
OAM
   39    34     1     0     0
SMALL
bcc


@<TRIPOS>ATOM
      1 CAA        -2.8320   -0.4780    2.7390 c3        1 OAM     -0.142000
      2 CAB        -1.3130   -0.3580    2.7160 c2        1 OAM     -0.093000
      3 NAC        -0.5110   -0.2390    3.7960 n2        1 OAM     -0.075000
      4 NAD         0.7670   -0.2310    3.3680 n2        1 OAM     -0.131000
      5 CAE         0.7580   -0.3450    2.0330 c2        1 OAM      0.035000
      6 CAF         1.9000   -0.3690    1.1920 c2        1 OAM     -0.212000
      7 CAG         2.3800    0.6830    0.4600 c1        1 OAM     -0.004500
      8 NAH         3.5540    0.3080   -0.0870 n2        1 OAM     -0.117000
      9 NAI         3.8130   -0.9890    0.3030 n2        1 OAM     -0.117000
     10 CAJ         4.9330   -1.7700   -0.0910 c2        1 OAM     -0.058000
     11 CAK         2.7970   -1.4000    1.0860 c1        1 OAM     -0.004500
     12 NAL         2.7120   -2.6430    1.7510 n2        1 OAM     -0.310000
     13 NAM        -0.5350   -0.4240    1.6290 n2        1 OAM     -0.173000
     14 CAN        -0.9940   -0.5870    0.2610 c2        1 OAM     -0.018000
     15 CAO        -1.3220    0.8220   -0.3550 c3        1 OAM     -0.209000
     16 CAP        -2.4670    0.6790   -1.3930 c3        1 OAM     -0.017000
     17 NAQ        -2.2380    1.6140   -2.5140 n3        1 OAM     -0.169000
     18 CAR        -2.0770    1.2730   -3.7890 c1        1 OAM     -0.164000
     19 CAS        -2.0210    2.4330   -4.5360 c1        1 OAM     -0.171000
     20 NAT        -2.1500    3.4660   -3.7040 n2        1 OAM     -0.137000
     21 CAU        -2.2860    2.9760   -2.4450 c1        1 OAM     -0.100000
     22 HAA        -3.2300    0.3930    2.5410 hc        1 OAM      0.098000
     23 HAAA       -3.1180   -1.1260    2.0680 hc        1 OAM      0.098000
     24 HAAB       -3.1240   -0.7780    3.6320 hc        1 OAM      0.098000
     25 HAG         1.9510    1.5470    0.3550 DU        1 OAM      0.182250
     26 HAJ         5.4460   -2.0290    0.7020 ha        1 OAM      0.099000
     27 HAJA        5.5000   -1.2470   -0.6890 ha        1 OAM      0.099000
     28 HAJB        4.6210   -2.5790   -0.5590 ha        1 OAM      0.099000
     29 HNAL        2.1950   -2.7280    2.4750 hn        1 OAM      0.217000
     30 HNAA        3.2430   -3.3480    1.4810 hn        1 OAM      0.217000
     31 HAN        -0.2960   -1.0170   -0.2660 ha        1 OAM      0.107500
     32 HANA       -1.8020   -1.1430    0.2520 ha        1 OAM      0.107500
     33 HAO        -1.6040    1.4370    0.3630 hc        1 OAM      0.109000
     34 HAOA       -0.5230    1.1790   -0.7950 hc        1 OAM      0.109000
     35 HAP        -2.4850   -0.2270   -1.7300 h1        1 OAM      0.100500
     36 HAPA       -3.3290    0.8880   -0.9620 h1        1 OAM      0.100500
     37 HAR        -2.0090    0.3670   -4.1350 DU        1 OAM      0.182250
     38 HAS        -1.9070    2.4880   -5.5140 DU        1 OAM      0.182250
     39 HAU        -2.3970    3.5040   -1.6370 DU        1 OAM      0.182250
@<TRIPOS>BOND
     1    1    2 1   
     2    1   22 1   
     3    1   23 1   
     4    1   24 1   
     5    2    3 1   
     6    2   13 1   
     7    3    4 1   
     8    4    5 1   
     9    5    6 1   
    10    5   13 1   
    11    6    7 1   
    12    6   11 1   
    13    7    8 1   
    14    8    9 1   
    15    9   11 1   
    16   10   26 1   
    17   10   27 1   
    18   10   28 1   
    19   12   29 1   
    20   12   30 1   
    21   14   15 1   
    22   14   31 1   
    23   14   32 1   
    24   15   16 1   
    25   15   33 1   
    26   15   34 1   
    27   16   17 1   
    28   16   35 1   
    29   16   36 1   
    30   17   18 1   
    31   17   21 1   
    32   18   19 1   
    33   19   20 1   
    34   20   21 1   
@<TRIPOS>SUBSTRUCTURE
     1 OAM         1 TEMP              0 ****  ****    0 ROOT
