@<TRIPOS>MOLECULE
OAM
   39    41     1     0     0
SMALL
bcc


@<TRIPOS>ATOM
      1 CAA        -0.1440    4.0440   -0.1050 c3        1 OAM     -0.119400
      2 CAB         0.8340    2.9470   -0.2740 cc        1 OAM      0.355800
      3 NAC         2.0010    2.9700   -0.9890 nd        1 OAM     -0.342000
      4 NAD         2.6090    1.8100   -0.8800 nd        1 OAM     -0.382000
      5 CAE         1.8640    0.9680   -0.0860 cc        1 OAM      0.486000
      6 CAF         2.2010   -0.3750    0.2740 cc        1 OAM     -0.384800
      7 CAG         2.0620   -1.0480    1.5440 cc        1 OAM      0.338200
      8 NAH         2.5670   -2.2990    1.4800 nd        1 OAM     -0.510800
      9 NAI         3.0380   -2.4810    0.2290 na        1 OAM      0.058400
     10 CAJ         3.6330   -3.7010   -0.2530 c3        1 OAM      0.040600
     11 CAK         2.8460   -1.3270   -0.5710 cd        1 OAM      0.169300
     12 NAL         3.1380   -1.2390   -1.9230 nh        1 OAM     -0.796200
     13 NAM         0.7140    1.6730    0.3290 na        1 OAM     -0.329700
     14 CAN        -0.4150    1.1850    1.0600 c3        1 OAM      0.045300
     15 CAO        -1.5600    0.6630    0.1870 c3        1 OAM     -0.127400
     16 CAP        -2.6630    0.1260    1.1040 c3        1 OAM      0.043300
     17 NAQ        -3.8120   -0.3780    0.4170 na        1 OAM     -0.212900
     18 CAR        -3.9330   -1.6300   -0.1970 cc        1 OAM     -0.252600
     19 CAS        -5.2080   -1.6530   -0.7880 cd        1 OAM      0.292200
     20 NAT        -5.8650   -0.4430   -0.5610 nd        1 OAM     -0.663000
     21 CAU        -5.0090    0.3130    0.1560 cc        1 OAM      0.387400
     22 HAA        -1.1570    3.7160   -0.4480 hc        1 OAM      0.059367
     23 HAAA       -0.2050    4.3420    0.9720 hc        1 OAM      0.059367
     24 HAAB        0.1700    4.9340   -0.7070 hc        1 OAM      0.059367
     25 HAG         1.6510   -0.6470    2.4710 h4        1 OAM      0.041100
     26 HAJ         3.0310   -4.0940   -1.1150 h1        1 OAM      0.059700
     27 HAJA        4.6810   -3.4900   -0.5980 h1        1 OAM      0.059700
     28 HAJB        3.6630   -4.4720    0.5620 h1        1 OAM      0.059700
     29 HNAL        3.1110   -0.3030   -2.2710 hn        1 OAM      0.416800
     30 HNAA        3.9440   -1.7490   -2.2140 hn        1 OAM      0.416800
     31 HAN        -0.0650    0.3530    1.7360 h1        1 OAM      0.064700
     32 HANA       -0.8010    2.0300    1.7030 h1        1 OAM      0.064700
     33 HAO        -1.9580    1.4870   -0.4610 hc        1 OAM      0.071200
     34 HAOA       -1.1930   -0.1520   -0.4900 hc        1 OAM      0.071200
     35 HAP        -2.2360   -0.7070    1.7350 h1        1 OAM      0.060700
     36 HAPA       -3.0020    0.9520    1.7940 h1        1 OAM      0.060700
     37 HAR        -3.1420   -2.3750   -0.1590 h4        1 OAM      0.178000
     38 HAS        -5.6790   -2.4580   -1.3500 h4        1 OAM      0.043100
     39 HAU        -5.1960    1.3280    0.5190 h5        1 OAM      0.059100
@<TRIPOS>BOND
     1    1    2 1   
     2    1   22 1   
     3    1   23 1   
     4    1   24 1   
     5    2    3 2   
     6    2   13 1   
     7    3    4 1   
     8    4    5 2   
     9    5    6 1   
    10    5   13 1   
    11    6    7 1   
    12    6   11 2   
    13    7    8 2   
    14    7   25 1   
    15    8    9 1   
    16    9   10 1   
    17    9   11 1   
    18   10   26 1   
    19   10   27 1   
    20   10   28 1   
    21   11   12 1   
    22   12   29 1   
    23   12   30 1   
    24   13   14 1   
    25   14   15 1   
    26   14   31 1   
    27   14   32 1   
    28   15   16 1   
    29   15   33 1   
    30   15   34 1   
    31   16   17 1   
    32   16   35 1   
    33   16   36 1   
    34   17   18 1   
    35   17   21 1   
    36   18   19 2   
    37   18   37 1   
    38   19   20 1   
    39   19   38 1   
    40   20   21 2   
    41   21   39 1   
@<TRIPOS>SUBSTRUCTURE
     1 OAM         1 TEMP              0 ****  ****    0 ROOT
