@<TRIPOS>MOLECULE
OAM
   40    42     1     0     0
SMALL
bcc


@<TRIPOS>ATOM
      1 CAA         0.1470   -0.0260    0.0920 c3        1 OAM     -0.140400
      2 CAB         1.6140    0.1650    0.0430 cc        1 OAM      0.417800
      3 NAC         2.4750    0.2660    1.1180 nd        1 OAM     -0.317000
      4 NAD         3.6910    0.4200    0.6820 nd        1 OAM     -0.405000
      5 CAE         3.6990    0.4290   -0.7030 cc        1 OAM      0.377000
      6 CAF         4.8860    0.5800   -1.4850 cc        1 OAM     -0.157800
      7 CAG         5.1010    0.6460   -2.9070 cc        1 OAM      0.314200
      8 NAH         6.4270    0.7990   -3.1780 nd        1 OAM     -0.407800
      9 NAI         7.0920    0.8400   -2.0270 na        1 OAM      0.135400
     10 CAJ         8.5250    0.9980   -1.8960 c3        1 OAM      0.008600
     11 CAK         6.1950    0.7110   -0.9370 cd        1 OAM     -0.135700
     12 NAL         6.5460    0.7180    0.4610 n4        1 OAM     -0.659000
     13 NAM         2.3730    0.2570   -1.1390 na        1 OAM     -0.282700
     14 CAN         1.8650    0.2090   -2.4840 c3        1 OAM      0.027300
     15 CAO         1.6890    1.5760   -3.1440 c3        1 OAM     -0.133400
     16 CAP         1.0720    1.3750   -4.5350 c3        1 OAM      0.049300
     17 NAQ         0.9360    2.5770   -5.2910 na        1 OAM     -0.227900
     18 CAR         1.8610    3.0930   -6.2120 cc        1 OAM     -0.263600
     19 CAS         1.3450    4.3290   -6.6300 cd        1 OAM      0.311200
     20 NAT         0.1360    4.5910   -5.9800 nd        1 OAM     -0.647000
     21 CAU        -0.0900    3.5350   -5.1760 cc        1 OAM      0.396400
     22 HAA        -0.1270   -1.0210   -0.3430 hc        1 OAM      0.081033
     23 HAAA       -0.2090    0.0100    1.1540 hc        1 OAM      0.081033
     24 HAAB       -0.3690    0.7810   -0.4870 hc        1 OAM      0.081033
     25 HAG         4.3600    0.5960   -3.7100 h4        1 OAM      0.077100
     26 HAJ         8.9490    0.1040   -1.3650 h1        1 OAM      0.087367
     27 HAJA        8.9990    1.0750   -2.9140 h1        1 OAM      0.087367
     28 HAJB        8.7430    1.9380   -1.3220 h1        1 OAM      0.087367
     29 HNAL        6.0520    1.5000    0.9220 hn        1 OAM      0.478800
     30 HNAA        6.2230   -0.1660    0.8880 hn        1 OAM      0.478800
     31 HAN         0.8630   -0.3150   -2.4460 h1        1 OAM      0.079700
     32 HANA        2.5650   -0.4250   -3.1020 h1        1 OAM      0.079700
     33 HAO         2.6780    2.0970   -3.2280 hc        1 OAM      0.071700
     34 HAOA        1.0190    2.2270   -2.5220 hc        1 OAM      0.071700
     35 HAP         1.7150    0.6560   -5.1200 h1        1 OAM      0.064200
     36 HAPA        0.0500    0.9130   -4.4130 h1        1 OAM      0.064200
     37 HAR         2.7570    2.5520   -6.5050 h4        1 OAM      0.174000
     38 HAS         1.7610    5.0290   -7.3550 h4        1 OAM      0.053100
     39 HAU        -0.9600    3.3960   -4.5260 h5        1 OAM      0.063100
     40 HAL3        7.5570    0.8190    0.5970 hn        1 OAM      0.478800
@<TRIPOS>BOND
     1    1    2 1   
     2    1   22 1   
     3    1   23 1   
     4    1   24 1   
     5    2    3 2   
     6    2   13 1   
     7    3    4 1   
     8    4    5 2   
     9    5    6 1   
    10    5   13 1   
    11    6    7 1   
    12    6   11 2   
    13    7    8 2   
    14    7   25 1   
    15    8    9 1   
    16    9   10 1   
    17    9   11 1   
    18   10   26 1   
    19   10   27 1   
    20   10   28 1   
    21   11   12 1   
    22   12   29 1   
    23   12   30 1   
    24   12   40 1   
    25   13   14 1   
    26   14   15 1   
    27   14   31 1   
    28   14   32 1   
    29   15   16 1   
    30   15   33 1   
    31   15   34 1   
    32   16   17 1   
    33   16   35 1   
    34   16   36 1   
    35   17   18 1   
    36   17   21 1   
    37   18   19 2   
    38   18   37 1   
    39   19   20 1   
    40   19   38 1   
    41   20   21 2   
    42   21   39 1   
@<TRIPOS>SUBSTRUCTURE
     1 OAM         1 TEMP              0 ****  ****    0 ROOT
