@<TRIPOS>MOLECULE
OAM
   39    41     1     0     0
SMALL
bcc


@<TRIPOS>ATOM
      1 CAA         0.0760    0.1180   -0.0850 c3        1 OAM     -0.119400
      2 CAB         1.5540    0.1220   -0.0270 cc        1 OAM      0.355800
      3 NAC         2.3470    0.1440    1.0880 nd        1 OAM     -0.342000
      4 NAD         3.6110    0.1150    0.7330 nd        1 OAM     -0.382000
      5 CAE         3.7070    0.0750   -0.6390 cc        1 OAM      0.486000
      6 CAF         4.9150    0.0250   -1.4030 cc        1 OAM     -0.384800
      7 CAG         5.2270   -0.7490   -2.5820 cc        1 OAM      0.338200
      8 NAH         6.5110   -0.5580   -2.9540 nd        1 OAM     -0.510800
      9 NAI         7.0640    0.3010   -2.0730 na        1 OAM      0.058400
     10 CAJ         8.4190    0.7820   -2.1390 c3        1 OAM      0.040600
     11 CAK         6.1310    0.7010   -1.0830 cd        1 OAM      0.169300
     12 NAL         6.3730    1.6460   -0.1010 nh        1 OAM     -0.796200
     13 NAM         2.3960    0.0710   -1.1620 na        1 OAM     -0.329700
     14 CAN         1.9810    0.1580   -2.5290 c3        1 OAM      0.045300
     15 CAO         1.7260    1.5840   -3.0260 c3        1 OAM     -0.127400
     16 CAP         1.3490    1.5210   -4.5090 c3        1 OAM      0.043300
     17 NAQ         1.0600    2.7900   -5.1020 na        1 OAM     -0.212900
     18 CAR         1.9950    3.7340   -5.5440 cc        1 OAM     -0.252600
     19 CAS         1.2510    4.8390   -5.9930 cd        1 OAM      0.292200
     20 NAT        -0.1140    4.5990   -5.8250 nd        1 OAM     -0.663000
     21 CAU        -0.2080    3.3690   -5.2810 cc        1 OAM      0.387400
     22 HAA        -0.3490    0.1930    0.9470 hc        1 OAM      0.059367
     23 HAAA       -0.2900    0.9860   -0.6890 hc        1 OAM      0.059367
     24 HAAB       -0.2880   -0.8300   -0.5560 hc        1 OAM      0.059367
     25 HAG         4.5730   -1.4370   -3.1210 h4        1 OAM      0.041100
     26 HAJ         8.9530    0.3320   -3.0170 h1        1 OAM      0.059700
     27 HAJA        8.9580    0.4990   -1.1950 h1        1 OAM      0.059700
     28 HAJB        8.4130    1.9000   -2.2420 h1        1 OAM      0.059700
     29 HNAL        7.3040    1.6540    0.2580 hn        1 OAM      0.416800
     30 HNAA        5.6720    1.6620    0.6120 hn        1 OAM      0.416800
     31 HAN         1.0320   -0.4430   -2.6400 h1        1 OAM      0.064700
     32 HANA        2.7800   -0.3140   -3.1710 h1        1 OAM      0.064700
     33 HAO         2.6440    2.2130   -2.8900 hc        1 OAM      0.071200
     34 HAOA        0.9010    2.0580   -2.4330 hc        1 OAM      0.071200
     35 HAP         2.2010    1.0500   -5.0800 h1        1 OAM      0.060700
     36 HAPA        0.4390    0.8640   -4.6290 h1        1 OAM      0.060700
     37 HAR         3.0660    3.5500   -5.5150 h4        1 OAM      0.178000
     38 HAS         1.6160    5.7720   -6.4200 h4        1 OAM      0.043100
     39 HAU        -1.1360    2.8520   -5.0180 h5        1 OAM      0.059100
@<TRIPOS>BOND
     1    1    2 1   
     2    1   22 1   
     3    1   23 1   
     4    1   24 1   
     5    2    3 2   
     6    2   13 1   
     7    3    4 1   
     8    4    5 2   
     9    5    6 1   
    10    5   13 1   
    11    6    7 1   
    12    6   11 2   
    13    7    8 2   
    14    7   25 1   
    15    8    9 1   
    16    9   10 1   
    17    9   11 1   
    18   10   26 1   
    19   10   27 1   
    20   10   28 1   
    21   11   12 1   
    22   12   29 1   
    23   12   30 1   
    24   13   14 1   
    25   14   15 1   
    26   14   31 1   
    27   14   32 1   
    28   15   16 1   
    29   15   33 1   
    30   15   34 1   
    31   16   17 1   
    32   16   35 1   
    33   16   36 1   
    34   17   18 1   
    35   17   21 1   
    36   18   19 2   
    37   18   37 1   
    38   19   20 1   
    39   19   38 1   
    40   20   21 2   
    41   21   39 1   
@<TRIPOS>SUBSTRUCTURE
     1 OAM         1 TEMP              0 ****  ****    0 ROOT
