@<TRIPOS>MOLECULE
OAN
   45    46     1     0     0
SMALL
bcc


@<TRIPOS>ATOM
      1 CAH         0.2240   -0.6210   -0.1120 c3        1 OAN     -0.196100
      2 CAG         1.4450    0.2260   -0.1050 c         1 OAN      0.578100
      3 OAN         1.9920    0.7820    0.8320 o         1 OAN     -0.412100
      4 NAI         2.1130    0.4360   -1.4660 ny        1 OAN     -0.674800
      5 CAB         3.5850    0.1580   -1.4400 c3        1 OAN      0.080200
      6 CAC         4.2700    0.6280   -2.7450 c3        1 OAN      0.128100
      7 OAJ         3.9490    1.9960   -2.8990 oh        1 OAN     -0.624800
      8 CAD         5.7840    0.3980   -2.5880 c3        1 OAN      0.099100
      9 OAK         6.3330    0.7850   -3.8310 oh        1 OAN     -0.601800
     10 CAE         6.0640   -1.0820   -2.2930 c3        1 OAN      0.064100
     11 CAF         7.5340   -1.3070   -1.8980 c3        1 OAN      0.130400
     12 OAM         8.3670   -0.9230   -2.9680 oh        1 OAN     -0.594800
     13 OAL         5.3110   -1.5480   -1.1570 os        1 OAN     -0.398400
     14 CAA         3.9490   -1.3060   -1.2310 c2        1 OAN      0.516600
     15 NAY         3.0160   -2.1970   -1.0350 n2        1 OAN     -0.435200
     16 OAQ         3.3660   -3.4420   -0.8320 os        1 OAN     -0.199600
     17 CAP         2.3140   -4.3320   -0.3800 c         1 OAN      0.770100
     18 OAR         1.2450   -3.8450   -0.0020 o         1 OAN     -0.539000
     19 NAO         2.7550   -5.6180   -0.5150 ns        1 OAN     -0.412100
     20 CAS         2.1130   -6.7310    0.0870 ca        1 OAN      0.029600
     21 CAT         0.7510   -6.7090    0.4450 ca        1 OAN     -0.148500
     22 CAU         0.1630   -7.8490    0.9870 ca        1 OAN     -0.101500
     23 CAV         0.9070   -9.0120    1.1790 ca        1 OAN     -0.125000
     24 CAW         2.2560   -9.0360    0.8260 ca        1 OAN     -0.101500
     25 CAX         2.8670   -7.9090    0.2860 ca        1 OAN     -0.148500
     26 HAH1       -0.4150   -0.4520   -1.0120 hc        1 OAN      0.126367
     27 HAH2        0.5220   -1.7100   -0.0710 hc        1 OAN      0.126367
     28 HAH3       -0.3710   -0.3880    0.8110 hc        1 OAN      0.126367
     29 HAI         2.0050    1.4230   -1.7490 hn        1 OAN      0.470800
     30 HAB         4.0110    0.7440   -0.5620 hx        1 OAN      0.155700
     31 HAC         3.8880    0.0530   -3.6360 h1        1 OAN      0.081700
     32 HAJ         4.5870    2.3770   -3.5250 ho        1 OAN      0.471000
     33 HAD         6.1910    1.0450   -1.7600 h1        1 OAN      0.077700
     34 HAK         7.3000    0.7230   -3.7590 ho        1 OAN      0.459000
     35 HAE         5.7970   -1.7050   -3.1900 h1        1 OAN      0.077700
     36 HAF1        7.6870   -2.3770   -1.6050 h1        1 OAN      0.080700
     37 HAF2        7.8170   -0.6370   -1.0420 h1        1 OAN      0.080700
     38 HAM         8.4010   -1.6530   -3.6000 ho        1 OAN      0.422000
     39 HAO         3.7030   -5.7520   -0.8020 hn        1 OAN      0.345500
     40 HAT         0.1450   -5.7990    0.3050 ha        1 OAN      0.149500
     41 HAU        -0.9020   -7.8250    1.2650 ha        1 OAN      0.147500
     42 HAV         0.4330   -9.9090    1.6070 ha        1 OAN      0.150000
     43 HAW         2.8490   -9.9520    0.9750 ha        1 OAN      0.147500
     44 HAX         3.9340   -7.9510    0.0160 ha        1 OAN      0.149500
     45 HAI2        1.6580   -0.1580   -2.1660 hn        1 OAN      0.470800
@<TRIPOS>BOND
     1    1    2 1   
     2    1   26 1   
     3    1   27 1   
     4    1   28 1   
     5    2    3 2   
     6    2    4 1   
     7    4    5 1   
     8    4   29 1   
     9    4   45 1   
    10    5    6 1   
    11    5   14 1   
    12    5   30 1   
    13    6    7 1   
    14    6    8 1   
    15    6   31 1   
    16    7   32 1   
    17    8    9 1   
    18    8   10 1   
    19    8   33 1   
    20    9   34 1   
    21   10   11 1   
    22   10   13 1   
    23   10   35 1   
    24   11   12 1   
    25   11   36 1   
    26   11   37 1   
    27   12   38 1   
    28   13   14 1   
    29   14   15 2   
    30   15   16 1   
    31   16   17 1   
    32   17   18 2   
    33   17   19 1   
    34   19   20 1   
    35   19   39 1   
    36   20   21 ar  
    37   20   25 ar  
    38   21   22 ar  
    39   21   40 1   
    40   22   23 ar  
    41   22   41 1   
    42   23   24 ar  
    43   23   42 1   
    44   24   25 ar  
    45   24   43 1   
    46   25   44 1   
@<TRIPOS>SUBSTRUCTURE
     1 OAN         1 TEMP              0 ****  ****    0 ROOT
