@<TRIPOS>MOLECULE
OAN
   45    46     1     0     0
SMALL
bcc


@<TRIPOS>ATOM
      1 CAH         0.2360   -0.6100   -0.0950 c3        1 OAN     -0.196100
      2 CAG         1.4610    0.2320   -0.0900 c         1 OAN      0.578100
      3 OAN         2.0130    0.7820    0.8460 o         1 OAN     -0.412100
      4 NAI         2.1250    0.4420   -1.4530 n4        1 OAN     -0.674800
      5 CAB         3.5950    0.1570   -1.4330 c3        1 OAN      0.080200
      6 CAC         4.2780    0.6280   -2.7400 c3        1 OAN      0.128100
      7 OAJ         3.9630    1.9980   -2.8890 oh        1 OAN     -0.624800
      8 CAD         5.7920    0.3910   -2.5880 c3        1 OAN      0.099100
      9 OAK         6.3390    0.7780   -3.8320 oh        1 OAN     -0.601800
     10 CAE         6.0660   -1.0920   -2.2980 c3        1 OAN      0.064100
     11 CAF         7.5370   -1.3240   -1.9090 c3        1 OAN      0.130400
     12 OAM         8.3670   -0.9400   -2.9810 oh        1 OAN     -0.594800
     13 OAL         5.3150   -1.5580   -1.1610 os        1 OAN     -0.398400
     14 CAA         3.9540   -1.3090   -1.2290 c2        1 OAN      0.516600
     15 NAY         3.0180   -2.1960   -1.0320 n2        1 OAN     -0.435200
     16 OAQ         3.3620   -3.4430   -0.8340 os        1 OAN     -0.199600
     17 CAP         2.3080   -4.3290   -0.3810 c         1 OAN      0.770100
     18 OAR         1.2420   -3.8390    0.0010 o         1 OAN     -0.539000
     19 NAO         2.7430   -5.6170   -0.5200 n         1 OAN     -0.412100
     20 CAS         2.0970   -6.7290    0.0790 ca        1 OAN      0.029600
     21 CAT         0.7370   -6.7020    0.4410 ca        1 OAN     -0.148500
     22 CAU         0.1450   -7.8410    0.9820 ca        1 OAN     -0.101500
     23 CAV         0.8830   -9.0080    1.1680 ca        1 OAN     -0.125000
     24 CAW         2.2320   -9.0370    0.8120 ca        1 OAN     -0.101500
     25 CAX         2.8470   -7.9110    0.2740 ca        1 OAN     -0.148500
     26 HAH1       -0.3550   -0.3770    0.8310 hc        1 OAN      0.126367
     27 HAH2       -0.4060   -0.4350   -0.9930 hc        1 OAN      0.126367
     28 HAH3        0.5290   -1.7010   -0.0590 hc        1 OAN      0.126367
     29 HAI         1.6650   -0.1480   -2.1530 hn        1 OAN      0.470800
     30 HAB         4.0280    0.7390   -0.5550 hx        1 OAN      0.155700
     31 HAC         3.8910    0.0570   -3.6300 h1        1 OAN      0.081700
     32 HAJ         4.6010    2.3770   -3.5150 ho        1 OAN      0.471000
     33 HAD         6.2040    1.0330   -1.7600 h1        1 OAN      0.077700
     34 HAK         7.3060    0.7130   -3.7630 ho        1 OAN      0.459000
     35 HAE         5.7940   -1.7110   -3.1960 h1        1 OAN      0.077700
     36 HAF1        7.6860   -2.3960   -1.6200 h1        1 OAN      0.080700
     37 HAF2        7.8260   -0.6580   -1.0520 h1        1 OAN      0.080700
     38 HAM         8.3960   -1.6680   -3.6150 ho        1 OAN      0.422000
     39 HAO         3.6890   -5.7550   -0.8110 hn        1 OAN      0.345500
     40 HAT         0.1340   -5.7890    0.3060 ha        1 OAN      0.149500
     41 HAU        -0.9200   -7.8120    1.2630 ha        1 OAN      0.147500
     42 HAV         0.4060   -9.9030    1.5950 ha        1 OAN      0.150000
     43 HAW         2.8210   -9.9560    0.9570 ha        1 OAN      0.147500
     44 HAX         3.9120   -7.9570    0.0010 ha        1 OAN      0.149500
     45 HAI2        2.0200    1.4300   -1.7330 hn        1 OAN      0.470800
@<TRIPOS>BOND
     1    1    2 1   
     2    1   26 1   
     3    1   27 1   
     4    1   28 1   
     5    2    3 2   
     6    2    4 1   
     7    4    5 1   
     8    4   29 1   
     9    4   45 1   
    10    5    6 1   
    11    5   14 1   
    12    5   30 1   
    13    6    7 1   
    14    6    8 1   
    15    6   31 1   
    16    7   32 1   
    17    8    9 1   
    18    8   10 1   
    19    8   33 1   
    20    9   34 1   
    21   10   11 1   
    22   10   13 1   
    23   10   35 1   
    24   11   12 1   
    25   11   36 1   
    26   11   37 1   
    27   12   38 1   
    28   13   14 1   
    29   14   15 2   
    30   15   16 1   
    31   16   17 1   
    32   17   18 2   
    33   17   19 1   
    34   19   20 1   
    35   19   39 1   
    36   20   21 ar  
    37   20   25 ar  
    38   21   22 ar  
    39   21   40 1   
    40   22   23 ar  
    41   22   41 1   
    42   23   24 ar  
    43   23   42 1   
    44   24   25 ar  
    45   24   43 1   
    46   25   44 1   
@<TRIPOS>SUBSTRUCTURE
     1 OAN         1 TEMP              0 ****  ****    0 ROOT
