@<TRIPOS>MOLECULE
OAN
   44    45     1     0     0
SMALL
bcc


@<TRIPOS>ATOM
      1 CAH         0.6170    4.1970    1.1640 c3        1 OAN     -0.173100
      2 CAG         1.1690    2.8140    1.4050 c         1 OAN      0.670100
      3 OAN         1.2520    2.3260    2.5470 o         1 OAN     -0.598100
      4 NAI         1.5750    2.0970    0.2890 n         1 OAN     -0.558900
      5 CAB         2.2040    0.8160    0.3890 c3        1 OAN      0.079400
      6 CAC         3.4830    0.6990   -0.4860 c3        1 OAN      0.132100
      7 OAJ         4.3750    1.7190   -0.0790 oh        1 OAN     -0.588800
      8 CAD         4.1200   -0.6860   -0.2640 c3        1 OAN      0.077100
      9 OAK         5.2350   -0.7200   -1.1410 oh        1 OAN     -0.598800
     10 CAE         3.1150   -1.7900   -0.6010 c3        1 OAN      0.069100
     11 CAF         3.6200   -3.1780   -0.1880 c3        1 OAN      0.138400
     12 OAM         2.8310   -4.1960   -0.7570 oh        1 OAN     -0.588800
     13 OAL         1.9010   -1.6170    0.1480 os        1 OAN     -0.439400
     14 CAA         1.3070   -0.3660   -0.0010 c2        1 OAN      0.539600
     15 NAY         0.0540   -0.2410   -0.3510 n2        1 OAN     -0.464200
     16 OAQ        -0.5720   -1.3570   -0.6870 os        1 OAN     -0.173600
     17 CAP        -1.9910   -1.3520   -0.7830 c         1 OAN      0.765100
     18 OAR        -2.3510   -2.3920   -1.3460 o         1 OAN     -0.512000
     19 NAO        -2.7370   -0.3170   -0.2650 n         1 OAN     -0.457100
     20 CAS        -4.1430   -0.2450   -0.2890 ca        1 OAN      0.071600
     21 CAT        -4.9530   -1.2080   -0.9230 ca        1 OAN     -0.167500
     22 CAU        -6.3380   -1.0660   -0.9100 ca        1 OAN     -0.102500
     23 CAV        -6.9420    0.0180   -0.2780 ca        1 OAN     -0.153000
     24 CAW        -6.1460    0.9750    0.3520 ca        1 OAN     -0.102500
     25 CAX        -4.7610    0.8550    0.3530 ca        1 OAN     -0.167500
     26 HAH1        1.4100    4.8600    0.7400 hc        1 OAN      0.069367
     27 HAH2       -0.2470    4.1630    0.4580 hc        1 OAN      0.069367
     28 HAH3        0.2740    4.6190    2.1400 hc        1 OAN      0.069367
     29 HAI         1.5320    2.5190   -0.6070 hn        1 OAN      0.318500
     30 HAB         2.4900    0.6420    1.4760 h1        1 OAN      0.127700
     31 HAC         3.2350    0.8250   -1.5770 h1        1 OAN      0.058700
     32 HAJ         5.2020    1.5650   -0.5570 ho        1 OAN      0.427000
     33 HAD         4.4620   -0.7800    0.8040 h1        1 OAN      0.068700
     34 HAK         5.7240   -1.5300   -0.9510 ho        1 OAN      0.417000
     35 HAE         2.8730   -1.7760   -1.7000 h1        1 OAN      0.084700
     36 HAF1        4.6510   -3.3440   -0.6000 h1        1 OAN      0.056200
     37 HAF2        3.6300   -3.2630    0.9310 h1        1 OAN      0.056200
     38 HAM         1.9230   -4.0610   -0.4520 ho        1 OAN      0.424000
     39 HAO        -2.2640    0.4380    0.1810 hn        1 OAN      0.344500
     40 HAT        -4.5040   -2.0790   -1.4300 ha        1 OAN      0.152500
     41 HAU        -6.9590   -1.8270   -1.4090 ha        1 OAN      0.135500
     42 HAV        -8.0360    0.1200   -0.2740 ha        1 OAN      0.135000
     43 HAW        -6.6140    1.8340    0.8550 ha        1 OAN      0.135500
     44 HAX        -4.1560    1.6220    0.8610 ha        1 OAN      0.152500
@<TRIPOS>BOND
     1    1    2 1   
     2    1   26 1   
     3    1   27 1   
     4    1   28 1   
     5    2    3 2   
     6    2    4 1   
     7    4    5 1   
     8    4   29 1   
     9    5    6 1   
    10    5   14 1   
    11    5   30 1   
    12    6    7 1   
    13    6    8 1   
    14    6   31 1   
    15    7   32 1   
    16    8    9 1   
    17    8   10 1   
    18    8   33 1   
    19    9   34 1   
    20   10   11 1   
    21   10   13 1   
    22   10   35 1   
    23   11   12 1   
    24   11   36 1   
    25   11   37 1   
    26   12   38 1   
    27   13   14 1   
    28   14   15 2   
    29   15   16 1   
    30   16   17 1   
    31   17   18 2   
    32   17   19 1   
    33   19   20 1   
    34   19   39 1   
    35   20   21 ar  
    36   20   25 ar  
    37   21   22 ar  
    38   21   40 1   
    39   22   23 ar  
    40   22   41 1   
    41   23   24 ar  
    42   23   42 1   
    43   24   25 ar  
    44   24   43 1   
    45   25   44 1   
@<TRIPOS>SUBSTRUCTURE
     1 OAN         1 TEMP              0 ****  ****    0 ROOT
