@<TRIPOS>MOLECULE
OAN
   44    42     1     0     0
SMALL
bcc


@<TRIPOS>ATOM
      1 CAH        -3.6770    2.7660    1.6490 c3        1 OAN     -0.244000
      2 CAG        -2.1660    2.7240    1.7180 c2        1 OAN      0.300000
      3 OAN        -1.6000    2.9390    2.7710 o         1 OAN     -0.345000
      4 NAI        -1.4090    2.4690    0.5450 n         1 OAN     -0.365000
      5 CAB         0.0300    2.4650    0.6030 c3        1 OAN      0.020000
      6 CAC         0.6220    3.5870   -0.2110 c3        1 OAN     -0.008000
      7 OAJ         0.2260    4.8440    0.3730 oh        1 OAN     -0.327000
      8 CAD         2.1130    3.5320   -0.2670 c3        1 OAN      0.013000
      9 OAK         2.5790    4.5340   -1.1820 oh        1 OAN     -0.319000
     10 CAE         2.6270    2.1780   -0.7200 c3        1 OAN     -0.006000
     11 CAF         4.1350    2.1560   -0.5720 c3        1 OAN     -0.011000
     12 OAM         4.6250    0.8860   -0.9420 oh        1 OAN     -0.319000
     13 OAL         2.0730    1.0850    0.0310 os        1 OAN     -0.240000
     14 CAA         0.6210    1.1170    0.1000 c2        1 OAN      0.029000
     15 NAY        -0.1250    0.0990   -0.2320 n1        1 OAN     -0.046000
     16 OAQ         0.4540   -1.0590   -0.6670 o         1 OAN     -0.272000
     17 CAP        -0.4280   -2.1350   -0.4750 c2        1 OAN      0.419000
     18 OAR        -1.4880   -1.9570    0.0920 o         1 OAN     -0.272000
     19 NAO        -0.0810   -3.4290   -0.9420 n         1 OAN     -0.291000
     20 CAS        -0.8540   -4.5540   -0.5540 c2        1 OAN      0.067000
     21 CAT        -1.7660   -5.1070   -1.4400 c2        1 OAN     -0.154000
     22 CAU        -2.4790   -6.2400   -1.0830 c1        1 OAN     -0.103000
     23 CAV        -2.2820   -6.8200    0.1600 c1        1 OAN     -0.126000
     24 CAW        -1.3710   -6.2680    1.0460 c1        1 OAN     -0.126000
     25 CAX        -0.6570   -5.1340    0.6890 c1        1 OAN     -0.172000
     26 HAH1       -3.9970    2.0560    1.0530 hc        1 OAN      0.111333
     27 HAH2       -3.9640    3.6370    1.3030 hc        1 OAN      0.111333
     28 HAH3       -4.0490    2.6320    2.5460 hc        1 OAN      0.111333
     29 HAI        -1.8340    2.3140   -0.2470 hn        1 OAN      0.224000
     30 HAB         0.1850    2.5930    1.5600 h1        1 OAN      0.170000
     31 HAC         0.2700    3.5370   -1.1210 h1        1 OAN      0.099000
     32 HAJ        -0.0940    5.3780   -0.2610 ho        1 OAN      0.223000
     33 HAD         2.4700    3.7240    0.6220 h1        1 OAN      0.107000
     34 HAK         2.8790    5.2350   -0.7260 ho        1 OAN      0.227000
     35 HAE         2.4020    2.0570   -1.6640 h1        1 OAN      0.123000
     36 HAF1        4.3740    2.3390    0.3610 h1        1 OAN      0.107000
     37 HAF2        4.5300    2.8400   -1.1500 h1        1 OAN      0.107000
     38 HAM         5.5140    0.8900   -0.9100 ho        1 OAN      0.211000
     39 HAO         0.6500   -3.5400   -1.4760 hn        1 OAN      0.252000
     40 HAT        -1.9050   -4.6980   -2.3160 ha        1 OAN      0.170000
     41 HAU        -3.1210   -6.6300   -1.7070 ha        1 OAN      0.138000
     42 HAV        -2.7840   -7.6190    0.4110 ha        1 OAN      0.136000
     43 HAW        -1.2320   -6.6760    1.9210 ha        1 OAN      0.136000
     44 HAX        -0.0160   -4.7450    1.3130 ha        1 OAN      0.134000
@<TRIPOS>BOND
     1    1    2 1   
     2    1   26 1   
     3    1   27 1   
     4    1   28 1   
     5    2    3 1   
     6    2    4 1   
     7    4    5 1   
     8    4   29 1   
     9    5    6 1   
    10    5   14 1   
    11    5   30 1   
    12    6    7 1   
    13    6    8 1   
    14    6   31 1   
    15    7   32 1   
    16    8    9 1   
    17    8   10 1   
    18    8   33 1   
    19    9   34 1   
    20   10   11 1   
    21   10   13 1   
    22   10   35 1   
    23   11   12 1   
    24   11   36 1   
    25   11   37 1   
    26   12   38 1   
    27   13   14 1   
    28   14   15 1   
    29   16   17 1   
    30   17   18 1   
    31   17   19 1   
    32   19   20 1   
    33   19   39 1   
    34   20   21 1   
    35   20   25 1   
    36   21   22 1   
    37   21   40 1   
    38   22   41 1   
    39   23   24 1   
    40   23   42 1   
    41   24   43 1   
    42   25   44 1   
@<TRIPOS>SUBSTRUCTURE
     1 OAN         1 TEMP              0 ****  ****    0 ROOT
