@<TRIPOS>MOLECULE
OAN
   46    47     1     0     0
SMALL
bcc


@<TRIPOS>ATOM
      1 CAH        -0.3770    0.5150   -0.2660 c3        1 OAN     -0.190100
      2 CAG         1.0620    0.1820   -0.0790 c         1 OAN      0.571100
      3 OAN         1.6310   -0.2910    0.8860 o         1 OAN     -0.388100
      4 NAI         1.9430    0.5030   -1.2950 n4        1 OAN     -0.682800
      5 CAB         3.3340   -0.0400   -1.2180 c3        1 OAN      0.066200
      6 CAC         4.2790    0.7040   -2.1950 c3        1 OAN      0.128100
      7 OAJ         4.1990    2.0690   -1.8460 oh        1 OAN     -0.616800
      8 CAD         5.7000    0.1370   -2.0010 c3        1 OAN      0.090100
      9 OAK         6.5020    0.8620   -2.9110 oh        1 OAN     -0.576800
     10 CAE         5.6810   -1.3460   -2.3770 c3        1 OAN      0.078100
     11 CAF         7.0000   -2.0660   -2.0450 c3        1 OAN      0.135400
     12 OAM         7.0010   -3.3420   -2.6370 oh        1 OAN     -0.591800
     13 OAL         4.6910   -2.0780   -1.6160 os        1 OAN     -0.418400
     14 CAA         3.4440   -1.5370   -1.4560 c2        1 OAN      0.583600
     15 NAY         2.4030   -2.3390   -1.3270 n2        1 OAN     -0.443200
     16 OAQ         2.5320   -3.6320   -1.5630 os        1 OAN     -0.125600
     17 CAP         3.3960   -4.4170   -0.7990 c         1 OAN      0.595100
     18 OAR         4.0710   -4.0110    0.1280 o         1 OAN     -0.370000
     19 NAO         3.3780   -5.8260   -1.2840 n4        1 OAN     -0.481200
     20 CAS         2.6730   -6.7220   -0.3550 ca        1 OAN     -0.081400
     21 CAT         1.4030   -7.2160   -0.7040 ca        1 OAN     -0.091500
     22 CAU         0.7690   -8.1050    0.1610 ca        1 OAN     -0.100000
     23 CAV         1.3820   -8.4920    1.3560 ca        1 OAN     -0.053000
     24 CAW         2.6390   -7.9870    1.6960 ca        1 OAN     -0.100000
     25 CAX         3.2960   -7.0970    0.8500 ca        1 OAN     -0.091500
     26 HAH1       -0.8470   -0.1820   -1.0080 hc        1 OAN      0.125033
     27 HAH2       -0.8990    0.3890    0.7230 hc        1 OAN      0.125033
     28 HAH3       -0.5180    1.5720   -0.6090 hc        1 OAN      0.125033
     29 HAI         1.4740    0.1620   -2.1410 hn        1 OAN      0.478800
     30 HAB         3.7020    0.1460   -0.1520 hx        1 OAN      0.171700
     31 HAC         3.9570    0.5650   -3.2670 h1        1 OAN      0.088700
     32 HAJ         4.9230    2.5330   -2.3010 ho        1 OAN      0.481000
     33 HAD         6.0430    0.2820   -0.9400 h1        1 OAN      0.089700
     34 HAK         7.4060    0.8850   -2.5630 ho        1 OAN      0.448000
     35 HAE         5.4280   -1.4730   -3.4670 h1        1 OAN      0.096700
     36 HAF1        7.8500   -1.4260   -2.3970 h1        1 OAN      0.084700
     37 HAF2        7.0760   -2.2450   -0.9370 h1        1 OAN      0.084700
     38 HAM         7.4190   -3.2710   -3.5060 ho        1 OAN      0.427000
     39 HAO         2.9240   -5.8670   -2.2090 hn        1 OAN      0.487800
     40 HAT         0.9040   -6.9250   -1.6430 ha        1 OAN      0.163000
     41 HAU        -0.2240   -8.5070   -0.1060 ha        1 OAN      0.182000
     42 HAV         0.8710   -9.2010    2.0320 ha        1 OAN      0.183000
     43 HAW         3.1220   -8.2930    2.6410 ha        1 OAN      0.182000
     44 HAX         4.2850   -6.6990    1.1350 ha        1 OAN      0.163000
     45 HAI2        2.0280    1.5330   -1.3650 hn        1 OAN      0.478800
     46 HAO2        4.3610   -6.1380   -1.3650 hn        1 OAN      0.487800
@<TRIPOS>BOND
     1    1    2 1   
     2    1   26 1   
     3    1   27 1   
     4    1   28 1   
     5    2    3 2   
     6    2    4 1   
     7    4    5 1   
     8    4   29 1   
     9    4   45 1   
    10    5    6 1   
    11    5   14 1   
    12    5   30 1   
    13    6    7 1   
    14    6    8 1   
    15    6   31 1   
    16    7   32 1   
    17    8    9 1   
    18    8   10 1   
    19    8   33 1   
    20    9   34 1   
    21   10   11 1   
    22   10   13 1   
    23   10   35 1   
    24   11   12 1   
    25   11   36 1   
    26   11   37 1   
    27   12   38 1   
    28   13   14 1   
    29   14   15 2   
    30   15   16 1   
    31   16   17 1   
    32   17   18 2   
    33   17   19 1   
    34   19   20 1   
    35   19   39 1   
    36   19   46 1   
    37   20   21 ar  
    38   20   25 ar  
    39   21   22 ar  
    40   21   40 1   
    41   22   23 ar  
    42   22   41 1   
    43   23   24 ar  
    44   23   42 1   
    45   24   25 ar  
    46   24   43 1   
    47   25   44 1   
@<TRIPOS>SUBSTRUCTURE
     1 OAN         1 TEMP              0 ****  ****    0 ROOT
