@<TRIPOS>MOLECULE
OAP
   72    68     1     0     0
SMALL
bcc


@<TRIPOS>ATOM
      1 C1         -1.0920   -0.5320    2.2320 c3        1 OAP     -0.324000
      2 C2          0.4210   -0.5370    2.2320 c3        1 OAP      0.046000
      3 C3          0.9250   -0.5400    3.6560 c3        1 OAP     -0.155000
      4 C31         1.2530   -1.9570    4.0720 c3        1 OAP     -0.228000
      5 C32         1.1820   -2.0690    5.5800 c2        1 OAP      0.322000
      6 O31         2.1760   -1.7470    6.2820 o         1 OAP     -0.586500
      7 O32         0.1450   -2.5230    6.1290 o         1 OAP     -0.586500
      8 S11        -1.6890   -2.1910    2.0200 ss        1 OAP      0.176000
      9 C11        -3.4460   -2.2270    2.2930 c2        1 OAP     -0.212000
     10 C12        -4.3140   -2.2760    1.2130 c1        1 OAP     -0.138000
     11 C13        -5.6850   -2.3380    1.4270 c1        1 OAP     -0.123000
     12 C14        -6.1840   -2.3510    2.7200 c1        1 OAP     -0.106000
     13 C15        -5.3150   -2.3020    3.8000 c1        1 OAP     -0.112000
     14 C16        -3.9460   -2.2400    3.5860 c2        1 OAP     -0.130000
     15 C17        -7.6840   -2.3770    2.9540 c3        1 OAP     -0.080000
     16 C18        -8.2220   -3.7580    2.6340 c2        1 OAP     -0.058000
     17 C19        -8.3960   -4.6870    3.6510 c2        1 OAP     -0.114000
     18 C40        -8.9200   -5.9380    3.3650 c1        1 OAP     -0.128000
     19 C41        -9.2700   -6.2610    2.0620 c1        1 OAP     -0.136500
     20 C42        -9.0960   -5.3350    1.0480 c1        1 OAP     -0.136500
     21 C43        -8.5710   -4.0810    1.3350 c1        1 OAP     -0.138000
     22 N21         0.8990    0.6230    1.5620 n         1 OAP     -0.371000
     23 C21         1.8090    0.4930    0.4760 c2        1 OAP      0.302000
     24 O21         2.1640   -0.6090    0.1110 o         1 OAP     -0.391000
     25 C22         2.3180    1.7320   -0.2400 c3        1 OAP     -0.183000
     26 C23         3.3310    1.3260   -1.2960 c3        1 OAP     -0.151000
     27 C24         3.7900    2.5590   -2.0590 c3        1 OAP     -0.158000
     28 C25         4.7400    2.1420   -3.1710 c3        1 OAP     -0.158000
     29 C26         5.3290    3.3810   -3.8270 c3        1 OAP     -0.155000
     30 C27         6.1700    2.9700   -5.0260 c3        1 OAP     -0.125000
     31 C28         6.7250    4.2100   -5.7040 c2        1 OAP     -0.064000
     32 C50         7.9210    4.7610   -5.2690 c2        1 OAP     -0.128000
     33 C51         8.4300    5.8930   -5.8900 c1        1 OAP     -0.130000
     34 C52         7.7430    6.4730   -6.9440 c1        1 OAP     -0.136500
     35 C53         6.5470    5.9220   -7.3790 c1        1 OAP     -0.136500
     36 C54         6.0380    4.7900   -6.7580 c1        1 OAP     -0.128000
     37 H11        -1.4170   -0.1750    3.0820 h1        1 OAP      0.157500
     38 H12A       -1.4160    0.0270    1.4980 h1        1 OAP      0.157500
     39 H2          0.7450   -1.3360    1.7700 h1        1 OAP      0.121000
     40 H31         1.7300    0.0130    3.7180 hc        1 OAP      0.080000
     41 H32         0.2350   -0.1780    4.2470 hc        1 OAP      0.080000
     42 H311        0.6090   -2.5720    3.6690 hc        1 OAP      0.071000
     43 H312        2.1550   -2.1850    3.7710 hc        1 OAP      0.071000
     44 H12        -3.9620   -2.2680    0.3030 ha        1 OAP      0.127000
     45 H13        -6.2960   -2.3730    0.6680 ha        1 OAP      0.117000
     46 H15        -5.6670   -2.3110    4.7110 ha        1 OAP      0.136000
     47 H16        -3.3340   -2.2050    4.3470 ha        1 OAP      0.212000
     48 H171       -7.8720   -2.1620    3.8910 hc        1 OAP      0.088500
     49 H172       -8.1150   -1.7170    2.3750 hc        1 OAP      0.088500
     50 H19        -8.1770   -4.4500    4.5720 ha        1 OAP      0.154000
     51 H40        -9.0240   -6.5980    4.0770 ha        1 OAP      0.130000
     52 H41        -9.6490   -7.1400    1.8620 ha        1 OAP      0.123500
     53 H42        -9.3600   -5.5560    0.1340 ha        1 OAP      0.123500
     54 H43        -8.4580   -3.4740    0.5800 ha        1 OAP      0.123000
     55 HN2         0.6390    1.4510    1.8430 hn        1 OAP      0.222000
     56 H221        2.7430    2.3310    0.4060 hc        1 OAP      0.097000
     57 H222        1.5680    2.1930   -0.6690 hc        1 OAP      0.097000
     58 H231        4.1010    0.9050   -0.8640 hc        1 OAP      0.097500
     59 H232        2.9190    0.6920   -1.9170 hc        1 OAP      0.097500
     60 H241        3.0120    3.0110   -2.4460 hc        1 OAP      0.075500
     61 H242        4.2510    3.1680   -1.4480 hc        1 OAP      0.075500
     62 H251        5.4610    1.5970   -2.7970 hc        1 OAP      0.081000
     63 H252        4.2510    1.6200   -3.8390 hc        1 OAP      0.081000
     64 H261        5.8920    3.8550   -3.1820 hc        1 OAP      0.082000
     65 H262        4.6050    3.9690   -4.1230 hc        1 OAP      0.082000
     66 H271        6.9090    2.4030   -4.7270 hc        1 OAP      0.087500
     67 H272        5.6140    2.4730   -5.6600 hc        1 OAP      0.087500
     68 H50         8.4250    4.3290   -4.5530 ha        1 OAP      0.131000
     69 H51         9.2720    6.2810   -5.5830 ha        1 OAP      0.127000
     70 H52         8.1010    7.2700   -7.3810 ha        1 OAP      0.123500
     71 H53         6.0690    6.3240   -8.1290 ha        1 OAP      0.123500
     72 H54         5.2110    4.3870   -7.0820 ha        1 OAP      0.133000
@<TRIPOS>BOND
     1    1    2 1   
     2    1    8 1   
     3    1   37 1   
     4    1   38 1   
     5    2    3 1   
     6    2   22 1   
     7    2   39 1   
     8    3    4 1   
     9    3   40 1   
    10    3   41 1   
    11    4    5 1   
    12    4   42 1   
    13    4   43 1   
    14    5    6 1   
    15    5    7 1   
    16    8    9 1   
    17    9   10 1   
    18    9   14 1   
    19   10   44 1   
    20   11   12 1   
    21   11   45 1   
    22   12   15 1   
    23   13   14 1   
    24   13   46 1   
    25   14   47 1   
    26   15   16 1   
    27   15   48 1   
    28   15   49 1   
    29   16   17 1   
    30   16   21 1   
    31   17   18 1   
    32   17   50 1   
    33   18   51 1   
    34   19   20 1   
    35   19   52 1   
    36   20   53 1   
    37   21   54 1   
    38   22   23 1   
    39   22   55 1   
    40   23   24 1   
    41   23   25 1   
    42   25   26 1   
    43   25   56 1   
    44   25   57 1   
    45   26   27 1   
    46   26   58 1   
    47   26   59 1   
    48   27   28 1   
    49   27   60 1   
    50   27   61 1   
    51   28   29 1   
    52   28   62 1   
    53   28   63 1   
    54   29   30 1   
    55   29   64 1   
    56   29   65 1   
    57   30   31 1   
    58   30   66 1   
    59   30   67 1   
    60   31   32 1   
    61   31   36 1   
    62   32   33 1   
    63   32   68 1   
    64   33   69 1   
    65   34   35 1   
    66   34   70 1   
    67   35   71 1   
    68   36   72 1   
@<TRIPOS>SUBSTRUCTURE
     1 OAP         1 TEMP              0 ****  ****    0 ROOT
