@<TRIPOS>MOLECULE
OAP
   72    74     1     0     0
SMALL
bcc


@<TRIPOS>ATOM
      1 C1          0.5830    0.2780   -1.8830 c3        1 OAP     -0.050300
      2 C2          0.8660    1.0500   -0.5810 c3        1 OAP      0.109700
      3 C3          2.3660    0.8580   -0.2710 c3        1 OAP     -0.073400
      4 C31         2.7970    1.4520    1.0480 c3        1 OAP     -0.203400
      5 C32         2.8180    0.4400    2.2040 c         1 OAP      0.904600
      6 O31         3.6080    0.6590    3.1620 o         1 OAP     -0.849800
      7 O32         2.0370   -0.5640    2.1710 o         1 OAP     -0.849800
      8 S11        -0.8720    0.9440   -2.6320 ss        1 OAP     -0.129000
      9 C11        -1.0390    0.1140   -4.0890 ca        1 OAP      0.001900
     10 C12        -2.1200    0.5140   -4.8960 ca        1 OAP     -0.143500
     11 C13        -2.3620   -0.1000   -6.1170 ca        1 OAP     -0.108000
     12 C14        -1.5320   -1.1330   -6.5710 ca        1 OAP     -0.113300
     13 C15        -0.4570   -1.5350   -5.7730 ca        1 OAP     -0.108000
     14 C16        -0.2140   -0.9200   -4.5470 ca        1 OAP     -0.143500
     15 C17        -1.8080   -1.8070   -7.8700 c3        1 OAP      0.013200
     16 C18        -1.2280   -1.0990   -9.0490 ca        1 OAP     -0.068300
     17 C19         0.0660   -0.5670   -9.0020 ca        1 OAP     -0.126000
     18 C40         0.6100    0.0620  -10.1210 ca        1 OAP     -0.130500
     19 C41        -0.1330    0.1650  -11.2970 ca        1 OAP     -0.139000
     20 C42        -1.4230   -0.3620  -11.3500 ca        1 OAP     -0.130500
     21 C43        -1.9690   -0.9910  -10.2320 ca        1 OAP     -0.126000
     22 N21         0.0120    0.6120    0.5020 n         1 OAP     -0.541900
     23 C21        -0.8700    1.4810    1.1180 c         1 OAP      0.652100
     24 O21        -1.2060    2.5750    0.6100 o         1 OAP     -0.649100
     25 C22        -1.4940    1.0160    2.4250 c3        1 OAP     -0.142400
     26 C23        -0.4830    1.0580    3.5500 c3        1 OAP     -0.108400
     27 C24        -1.0940    0.5710    4.8470 c3        1 OAP     -0.064400
     28 C25        -0.0670    0.5900    5.9580 c3        1 OAP     -0.087400
     29 C26        -0.6360    0.0280    7.2430 c3        1 OAP     -0.071400
     30 C27         0.3990    0.0580    8.3530 c3        1 OAP     -0.045100
     31 C28        -0.1180   -0.5460    9.6110 ca        1 OAP     -0.062300
     32 C50        -0.2870   -1.9340    9.7070 ca        1 OAP     -0.129500
     33 C51        -0.7630   -2.5060   10.8850 ca        1 OAP     -0.133000
     34 C52        -1.0750   -1.6990   11.9790 ca        1 OAP     -0.144000
     35 C53        -0.9090   -0.3180   11.8910 ca        1 OAP     -0.133000
     36 C54        -0.4330    0.2570   10.7130 ca        1 OAP     -0.129500
     37 H11         1.4540    0.4040   -2.5720 h1        1 OAP      0.066700
     38 H12A        0.4650   -0.8130   -1.6760 h1        1 OAP      0.066700
     39 H2          0.6730    2.1500   -0.7750 h1        1 OAP      0.076700
     40 H31         2.9400    1.3340   -1.1090 hc        1 OAP      0.038200
     41 H32         2.5990   -0.2410   -0.2680 hc        1 OAP      0.038200
     42 H311        2.1240    2.2960    1.3440 hc        1 OAP      0.037200
     43 H312        3.8310    1.8710    0.9450 hc        1 OAP      0.037200
     44 H12        -2.7780    1.3260   -4.5470 ha        1 OAP      0.138500
     45 H13        -3.2120    0.2270   -6.7340 ha        1 OAP      0.124500
     46 H15         0.2020   -2.3480   -6.1120 ha        1 OAP      0.124500
     47 H16         0.6350   -1.2620   -3.9360 ha        1 OAP      0.138500
     48 H171       -1.3850   -2.8500   -7.8490 hc        1 OAP      0.050700
     49 H172       -2.9200   -1.9060   -8.0020 hc        1 OAP      0.050700
     50 H19         0.6460   -0.6410   -8.0690 ha        1 OAP      0.135000
     51 H40         1.6250    0.4810  -10.0730 ha        1 OAP      0.126500
     52 H41         0.2960    0.6620  -12.1780 ha        1 OAP      0.125000
     53 H42        -2.0130   -0.2810  -12.2740 ha        1 OAP      0.126500
     54 H43        -2.9880   -1.4020  -10.2790 ha        1 OAP      0.135000
     55 HN2         0.4280   -0.1020    1.0860 hn        1 OAP      0.362500
     56 H221       -2.3570    1.6950    2.6510 hc        1 OAP      0.053200
     57 H222       -1.8950   -0.0240    2.3060 hc        1 OAP      0.053200
     58 H231        0.4150    0.4210    3.2960 hc        1 OAP      0.083700
     59 H232       -0.1140    2.1090    3.6810 hc        1 OAP      0.083700
     60 H241       -1.9700    1.2140    5.1260 hc        1 OAP      0.024700
     61 H242       -1.4800   -0.4740    4.7100 hc        1 OAP      0.024700
     62 H251        0.8320   -0.0070    5.6440 hc        1 OAP      0.058200
     63 H252        0.2820    1.6420    6.1280 hc        1 OAP      0.058200
     64 H261       -1.5370    0.6200    7.5520 hc        1 OAP      0.034700
     65 H262       -0.9740   -1.0290    7.0770 hc        1 OAP      0.034700
     66 H271        1.3130   -0.5040    8.0190 hc        1 OAP      0.054700
     67 H272        0.7140    1.1200    8.5360 hc        1 OAP      0.054700
     68 H50        -0.0400   -2.5700    8.8430 ha        1 OAP      0.134000
     69 H51        -0.8920   -3.5960   10.9510 ha        1 OAP      0.123000
     70 H52        -1.4500   -2.1520   12.9080 ha        1 OAP      0.121000
     71 H53        -1.1530    0.3210   12.7520 ha        1 OAP      0.123000
     72 H54        -0.3030    1.3470   10.6480 ha        1 OAP      0.134000
@<TRIPOS>BOND
     1    1    2 1   
     2    1    8 1   
     3    1   37 1   
     4    1   38 1   
     5    2    3 1   
     6    2   22 1   
     7    2   39 1   
     8    3    4 1   
     9    3   40 1   
    10    3   41 1   
    11    4    5 1   
    12    4   42 1   
    13    4   43 1   
    14    5    6 1   
    15    5    7 1   
    16    8    9 1   
    17    9   10 ar  
    18    9   14 ar  
    19   10   11 ar  
    20   10   44 1   
    21   11   12 ar  
    22   11   45 1   
    23   12   13 ar  
    24   12   15 1   
    25   13   14 ar  
    26   13   46 1   
    27   14   47 1   
    28   15   16 1   
    29   15   48 1   
    30   15   49 1   
    31   16   17 ar  
    32   16   21 ar  
    33   17   18 ar  
    34   17   50 1   
    35   18   19 ar  
    36   18   51 1   
    37   19   20 ar  
    38   19   52 1   
    39   20   21 ar  
    40   20   53 1   
    41   21   54 1   
    42   22   23 1   
    43   22   55 1   
    44   23   24 2   
    45   23   25 1   
    46   25   26 1   
    47   25   56 1   
    48   25   57 1   
    49   26   27 1   
    50   26   58 1   
    51   26   59 1   
    52   27   28 1   
    53   27   60 1   
    54   27   61 1   
    55   28   29 1   
    56   28   62 1   
    57   28   63 1   
    58   29   30 1   
    59   29   64 1   
    60   29   65 1   
    61   30   31 1   
    62   30   66 1   
    63   30   67 1   
    64   31   32 ar  
    65   31   36 ar  
    66   32   33 ar  
    67   32   68 1   
    68   33   34 ar  
    69   33   69 1   
    70   34   35 ar  
    71   34   70 1   
    72   35   36 ar  
    73   35   71 1   
    74   36   72 1   
@<TRIPOS>SUBSTRUCTURE
     1 OAP         1 TEMP              0 ****  ****    0 ROOT
