@<TRIPOS>MOLECULE
OAP
   73    75     1     0     0
SMALL
bcc


@<TRIPOS>ATOM
      1 C1          0.2730   -0.4090    0.1930 c3        1 OAP     -0.064300
      2 C2          1.8050   -0.4170    0.2810 c3        1 OAP      0.106700
      3 C3          2.1810   -0.6730    1.7550 c3        1 OAP     -0.085400
      4 C31         3.6260   -1.1080    1.9100 c3        1 OAP     -0.188400
      5 C32         4.3340   -0.3140    2.9660 c         1 OAP      0.627100
      6 O31         4.8420   -0.7390    4.0030 o         1 OAP     -0.492000
      7 O32         4.4650    1.0380    2.8040 oh        1 OAP     -0.587100
      8 S11        -0.1990   -0.2020   -1.4960 ss        1 OAP     -0.184000
      9 C11        -1.8950   -0.1480   -1.4830 ca        1 OAP     -0.006100
     10 C12        -2.4930    0.0440   -2.7370 ca        1 OAP     -0.128500
     11 C13        -3.8770    0.1020   -2.8580 ca        1 OAP     -0.108500
     12 C14        -4.6940   -0.0290   -1.7270 ca        1 OAP     -0.078300
     13 C15        -4.0970   -0.2210   -0.4780 ca        1 OAP     -0.108500
     14 C16        -2.7100   -0.2810   -0.3560 ca        1 OAP     -0.128500
     15 C17        -6.1760    0.0690   -1.8590 c3        1 OAP      0.006200
     16 C18        -6.9020   -1.0290   -1.1580 ca        1 OAP     -0.079300
     17 C19        -7.4150   -0.8310    0.1300 ca        1 OAP     -0.125500
     18 C40        -8.1080   -1.8540    0.7750 ca        1 OAP     -0.128000
     19 C41        -8.2950   -3.0820    0.1410 ca        1 OAP     -0.129000
     20 C42        -7.7870   -3.2840   -1.1420 ca        1 OAP     -0.128000
     21 C43        -7.0940   -2.2630   -1.7900 ca        1 OAP     -0.125500
     22 N21         2.4000    0.7980   -0.2370 ns        1 OAP     -0.574900
     23 C21         3.4720    0.7570   -1.1240 c         1 OAP      0.650100
     24 O21         4.1380   -0.2870   -1.2650 o         1 OAP     -0.600100
     25 C22         3.8080    2.0470   -1.8470 c3        1 OAP     -0.150400
     26 C23         5.1160    1.9240   -2.5990 c3        1 OAP     -0.075400
     27 C24         5.4310    3.2020   -3.3450 c3        1 OAP     -0.079400
     28 C25         6.7390    3.0820   -4.0980 c3        1 OAP     -0.079400
     29 C26         7.0580    4.3590   -4.8460 c3        1 OAP     -0.076400
     30 C27         8.3660    4.2350   -5.6040 c3        1 OAP     -0.037100
     31 C28         8.7100    5.4940   -6.3200 ca        1 OAP     -0.078300
     32 C50         9.1710    6.6060   -5.6040 ca        1 OAP     -0.127500
     33 C51         9.5010    7.7840   -6.2710 ca        1 OAP     -0.128000
     34 C52         9.3740    7.8630   -7.6580 ca        1 OAP     -0.133000
     35 C53         8.9170    6.7580   -8.3760 ca        1 OAP     -0.128000
     36 C54         8.5850    5.5790   -7.7110 ca        1 OAP     -0.127500
     37 H11        -0.1110   -1.3820    0.5870 h1        1 OAP      0.076200
     38 H12A       -0.1520    0.4050    0.8290 h1        1 OAP      0.076200
     39 H2          2.1960   -1.2910   -0.3310 h1        1 OAP      0.097700
     40 H31         1.9750    0.2470    2.3630 hc        1 OAP      0.057700
     41 H32         1.5120   -1.4830    2.1480 hc        1 OAP      0.057700
     42 H311        3.6720   -2.1930    2.1940 hc        1 OAP      0.096700
     43 H312        4.1910   -0.9940    0.9420 hc        1 OAP      0.096700
     44 H12        -1.8590    0.1460   -3.6320 ha        1 OAP      0.135500
     45 H13        -4.3300    0.2510   -3.8490 ha        1 OAP      0.138000
     46 H15        -4.7320   -0.3340    0.4150 ha        1 OAP      0.138000
     47 H16        -2.2680   -0.4400    0.6380 ha        1 OAP      0.135500
     48 H171       -6.5030    1.0620   -1.4400 hc        1 OAP      0.057700
     49 H172       -6.4620    0.0610   -2.9460 hc        1 OAP      0.057700
     50 H19        -7.2720    0.1370    0.6320 ha        1 OAP      0.132000
     51 H40        -8.5090   -1.6900    1.7860 ha        1 OAP      0.132500
     52 H41        -8.8420   -3.8880    0.6510 ha        1 OAP      0.132000
     53 H42        -7.9330   -4.2520   -1.6450 ha        1 OAP      0.132500
     54 H43        -6.6940   -2.4260   -2.8020 ha        1 OAP      0.132000
     55 HN2         4.0690    1.3030    1.9630 ho        1 OAP      0.428000
     56 H221        2.9750    2.2790   -2.5640 hc        1 OAP      0.067700
     57 H222        3.8710    2.8910   -1.1110 hc        1 OAP      0.067700
     58 H231        5.0550    1.0620   -3.3160 hc        1 OAP      0.060700
     59 H232        5.9410    1.6860   -1.8770 hc        1 OAP      0.060700
     60 H241        4.6030    3.4340   -4.0660 hc        1 OAP      0.039200
     61 H242        5.4910    4.0580   -2.6220 hc        1 OAP      0.039200
     62 H251        7.5680    2.8500   -3.3780 hc        1 OAP      0.043700
     63 H252        6.6800    2.2260   -4.8210 hc        1 OAP      0.043700
     64 H261        7.1240    5.2150   -4.1240 hc        1 OAP      0.043700
     65 H262        6.2280    4.5930   -5.5640 hc        1 OAP      0.043700
     66 H271        9.1900    3.9820   -4.8830 hc        1 OAP      0.048700
     67 H272        8.2930    3.3850   -6.3340 hc        1 OAP      0.048700
     68 H50         9.2720    6.5450   -4.5110 ha        1 OAP      0.131000
     69 H51         9.8630    8.6530   -5.7020 ha        1 OAP      0.130000
     70 H52         9.6360    8.7920   -8.1840 ha        1 OAP      0.130000
     71 H53         8.8170    6.8160   -9.4700 ha        1 OAP      0.130000
     72 H54         8.2260    4.7100   -8.2820 ha        1 OAP      0.131000
     73 H212        1.8100    1.5970   -0.2630 hn        1 OAP      0.309500
@<TRIPOS>BOND
     1    1    2 1   
     2    1    8 1   
     3    1   37 1   
     4    1   38 1   
     5    2    3 1   
     6    2   22 1   
     7    2   39 1   
     8    3    4 1   
     9    3   40 1   
    10    3   41 1   
    11    4    5 1   
    12    4   42 1   
    13    4   43 1   
    14    5    6 2   
    15    5    7 1   
    16    7   55 1   
    17    8    9 1   
    18    9   10 ar  
    19    9   14 ar  
    20   10   11 ar  
    21   10   44 1   
    22   11   12 ar  
    23   11   45 1   
    24   12   13 ar  
    25   12   15 1   
    26   13   14 ar  
    27   13   46 1   
    28   14   47 1   
    29   15   16 1   
    30   15   48 1   
    31   15   49 1   
    32   16   17 ar  
    33   16   21 ar  
    34   17   18 ar  
    35   17   50 1   
    36   18   19 ar  
    37   18   51 1   
    38   19   20 ar  
    39   19   52 1   
    40   20   21 ar  
    41   20   53 1   
    42   21   54 1   
    43   22   23 1   
    44   22   73 1   
    45   23   24 2   
    46   23   25 1   
    47   25   26 1   
    48   25   56 1   
    49   25   57 1   
    50   26   27 1   
    51   26   58 1   
    52   26   59 1   
    53   27   28 1   
    54   27   60 1   
    55   27   61 1   
    56   28   29 1   
    57   28   62 1   
    58   28   63 1   
    59   29   30 1   
    60   29   64 1   
    61   29   65 1   
    62   30   31 1   
    63   30   66 1   
    64   30   67 1   
    65   31   32 ar  
    66   31   36 ar  
    67   32   33 ar  
    68   32   68 1   
    69   33   34 ar  
    70   33   69 1   
    71   34   35 ar  
    72   34   70 1   
    73   35   36 ar  
    74   35   71 1   
    75   36   72 1   
@<TRIPOS>SUBSTRUCTURE
     1 OAP         1 TEMP              0 ****  ****    0 ROOT
