@<TRIPOS>MOLECULE
OAP
   73    75     1     0     0
SMALL
bcc


@<TRIPOS>ATOM
      1 C1          0.2600   -0.3900    0.2040 c3        1 OAP     -0.064300
      2 C2          1.7900   -0.3890    0.3120 c3        1 OAP      0.106700
      3 C3          2.1480   -0.6270    1.7940 c3        1 OAP     -0.085400
      4 C31         3.5930   -1.0530    1.9720 c3        1 OAP     -0.188400
      5 C32         4.2830   -0.2460    3.0290 c         1 OAP      0.627100
      6 O31         4.7790   -0.6580    4.0770 o         1 OAP     -0.492000
      7 O32         4.4100    1.1060    2.8570 oh        1 OAP     -0.587100
      8 S11        -0.1930   -0.2030   -1.4930 ss        1 OAP     -0.184000
      9 C11        -1.8880   -0.1550   -1.5020 ca        1 OAP     -0.006100
     10 C12        -2.4710    0.0240   -2.7650 ca        1 OAP     -0.128500
     11 C13        -3.8530    0.0750   -2.9040 ca        1 OAP     -0.108500
     12 C14        -4.6850   -0.0490   -1.7830 ca        1 OAP     -0.078300
     13 C15        -4.1020   -0.2290   -0.5240 ca        1 OAP     -0.108500
     14 C16        -2.7170   -0.2830   -0.3850 ca        1 OAP     -0.128500
     15 C17        -6.1650    0.0420   -1.9330 c3        1 OAP      0.006200
     16 C18        -6.8950   -1.0550   -1.2360 ca        1 OAP     -0.079300
     17 C19        -7.4250   -0.8530    0.0440 ca        1 OAP     -0.125500
     18 C40        -8.1220   -1.8740    0.6860 ca        1 OAP     -0.128000
     19 C41        -8.2970   -3.1060    0.0560 ca        1 OAP     -0.129000
     20 C42        -7.7720   -3.3140   -1.2190 ca        1 OAP     -0.128000
     21 C43        -7.0750   -2.2930   -1.8640 ca        1 OAP     -0.125500
     22 N21         2.3850    0.8240   -0.2110 n         1 OAP     -0.574900
     23 C21         3.4680    0.7800   -1.0840 c         1 OAP      0.650100
     24 O21         4.1420   -0.2620   -1.2050 o         1 OAP     -0.600100
     25 C22         3.8060    2.0630   -1.8180 c3        1 OAP     -0.150400
     26 C23         5.1350    1.9470   -2.5330 c3        1 OAP     -0.075400
     27 C24         5.4490    3.2150   -3.2970 c3        1 OAP     -0.079400
     28 C25         6.7800    3.1040   -4.0090 c3        1 OAP     -0.079400
     29 C26         7.0940    4.3700   -4.7780 c3        1 OAP     -0.076400
     30 C27         8.4320    4.2580   -5.4860 c3        1 OAP     -0.037100
     31 C28         8.7400    5.4820   -6.2750 ca        1 OAP     -0.078300
     32 C50         9.7080    6.3910   -5.8310 ca        1 OAP     -0.128000
     33 C51         9.9980    7.5310   -6.5800 ca        1 OAP     -0.128000
     34 C52         9.3250    7.7740   -7.7760 ca        1 OAP     -0.133000
     35 C53         8.3600    6.8720   -8.2240 ca        1 OAP     -0.128000
     36 C54         8.0690    5.7310   -7.4780 ca        1 OAP     -0.128000
     37 H11        -0.1780    0.4280    0.8270 h1        1 OAP      0.076200
     38 H12A       -0.1250   -1.3610    0.6040 h1        1 OAP      0.076200
     39 H2          2.1930   -1.2670   -0.2850 h1        1 OAP      0.097700
     40 H31         1.4780   -1.4360    2.1870 hc        1 OAP      0.057700
     41 H32         1.9300    0.2980    2.3890 hc        1 OAP      0.057700
     42 H311        4.1700   -0.9450    1.0100 hc        1 OAP      0.096700
     43 H312        3.6420   -2.1350    2.2660 hc        1 OAP      0.096700
     44 H12        -1.8260    0.1210   -3.6520 ha        1 OAP      0.135500
     45 H13        -4.2950    0.2140   -3.9020 ha        1 OAP      0.138000
     46 H15        -4.7490   -0.3370    0.3610 ha        1 OAP      0.138000
     47 H16        -2.2870   -0.4320    0.6170 ha        1 OAP      0.135500
     48 H171       -6.4370    0.0260   -3.0250 hc        1 OAP      0.057700
     49 H172       -6.5010    1.0360   -1.5250 hc        1 OAP      0.057700
     50 H19        -7.2920    0.1190    0.5430 ha        1 OAP      0.132000
     51 H40        -8.5370   -1.7070    1.6910 ha        1 OAP      0.132500
     52 H41        -8.8480   -3.9120    0.5640 ha        1 OAP      0.132000
     53 H42        -7.9090   -4.2840   -1.7190 ha        1 OAP      0.132500
     54 H43        -6.6630   -2.4600   -2.8700 ha        1 OAP      0.132000
     55 HN2         4.0240    1.3610    2.0070 ho        1 OAP      0.428000
     56 H221        3.8380    2.9200   -1.0940 hc        1 OAP      0.067700
     57 H222        2.9890    2.2710   -2.5600 hc        1 OAP      0.067700
     58 H231        5.9450    1.7370   -1.7860 hc        1 OAP      0.060700
     59 H232        5.1060    1.0700   -3.2340 hc        1 OAP      0.060700
     60 H241        4.6380    3.4160   -4.0460 hc        1 OAP      0.039700
     61 H242        5.4720    4.0870   -2.5910 hc        1 OAP      0.039700
     62 H251        6.7590    2.2300   -4.7120 hc        1 OAP      0.043700
     63 H252        7.5920    2.9070   -3.2600 hc        1 OAP      0.043700
     64 H261        7.1120    5.2440   -4.0760 hc        1 OAP      0.044200
     65 H262        6.2880    4.5660   -5.5330 hc        1 OAP      0.044200
     66 H271        9.2390    4.0760   -4.7270 hc        1 OAP      0.048700
     67 H272        8.4150    3.3690   -6.1730 hc        1 OAP      0.048700
     68 H50        10.2430    6.2030   -4.8890 ha        1 OAP      0.130500
     69 H51        10.7610    8.2390   -6.2240 ha        1 OAP      0.130000
     70 H52         9.5550    8.6730   -8.3660 ha        1 OAP      0.130000
     71 H53         7.8280    7.0600   -9.1680 ha        1 OAP      0.130000
     72 H54         7.3080    5.0200   -7.8330 ha        1 OAP      0.130500
     73 H212        1.7910    1.6200   -0.2530 hn        1 OAP      0.309500
@<TRIPOS>BOND
     1    1    2 1   
     2    1    8 1   
     3    1   37 1   
     4    1   38 1   
     5    2    3 1   
     6    2   22 1   
     7    2   39 1   
     8    3    4 1   
     9    3   40 1   
    10    3   41 1   
    11    4    5 1   
    12    4   42 1   
    13    4   43 1   
    14    5    6 2   
    15    5    7 1   
    16    7   55 1   
    17    8    9 1   
    18    9   10 ar  
    19    9   14 ar  
    20   10   11 ar  
    21   10   44 1   
    22   11   12 ar  
    23   11   45 1   
    24   12   13 ar  
    25   12   15 1   
    26   13   14 ar  
    27   13   46 1   
    28   14   47 1   
    29   15   16 1   
    30   15   48 1   
    31   15   49 1   
    32   16   17 ar  
    33   16   21 ar  
    34   17   18 ar  
    35   17   50 1   
    36   18   19 ar  
    37   18   51 1   
    38   19   20 ar  
    39   19   52 1   
    40   20   21 ar  
    41   20   53 1   
    42   21   54 1   
    43   22   23 1   
    44   22   73 1   
    45   23   24 2   
    46   23   25 1   
    47   25   26 1   
    48   25   56 1   
    49   25   57 1   
    50   26   27 1   
    51   26   58 1   
    52   26   59 1   
    53   27   28 1   
    54   27   60 1   
    55   27   61 1   
    56   28   29 1   
    57   28   62 1   
    58   28   63 1   
    59   29   30 1   
    60   29   64 1   
    61   29   65 1   
    62   30   31 1   
    63   30   66 1   
    64   30   67 1   
    65   31   32 ar  
    66   31   36 ar  
    67   32   33 ar  
    68   32   68 1   
    69   33   34 ar  
    70   33   69 1   
    71   34   35 ar  
    72   34   70 1   
    73   35   36 ar  
    74   35   71 1   
    75   36   72 1   
@<TRIPOS>SUBSTRUCTURE
     1 OAP         1 TEMP              0 ****  ****    0 ROOT
