@<TRIPOS>MOLECULE
OAP
   73    75     1     0     0
SMALL
bcc


@<TRIPOS>ATOM
      1 C1          0.2620   -0.4160    0.1780 c3        1 OAP     -0.064300
      2 C2          1.7920   -0.4230    0.2750 c3        1 OAP      0.106700
      3 C3          2.1610   -0.6830    1.7500 c3        1 OAP     -0.085400
      4 C31         3.6050   -1.1170    1.9120 c3        1 OAP     -0.188400
      5 C32         4.3060   -0.3270    2.9760 c         1 OAP      0.627100
      6 O31         4.8070   -0.7560    4.0140 o         1 OAP     -0.492000
      7 O32         4.4380    1.0260    2.8210 oh        1 OAP     -0.587100
      8 S11        -0.2020   -0.2050   -1.5130 ss        1 OAP     -0.184000
      9 C11        -1.8970   -0.1540   -1.5090 ca        1 OAP     -0.006100
     10 C12        -2.4890    0.0390   -2.7670 ca        1 OAP     -0.128500
     11 C13        -3.8720    0.0950   -2.8950 ca        1 OAP     -0.108500
     12 C14        -4.6960   -0.0400   -1.7700 ca        1 OAP     -0.078300
     13 C15        -4.1050   -0.2340   -0.5170 ca        1 OAP     -0.108500
     14 C16        -2.7190   -0.2920   -0.3880 ca        1 OAP     -0.128500
     15 C17        -6.1770    0.0550   -1.9090 c3        1 OAP      0.006200
     16 C18        -6.9040   -1.0460   -1.2150 ca        1 OAP     -0.079300
     17 C19        -7.4250   -0.8520    0.0700 ca        1 OAP     -0.125500
     18 C40        -8.1200   -1.8780    0.7090 ca        1 OAP     -0.128000
     19 C41        -8.3010   -3.1040    0.0700 ca        1 OAP     -0.129000
     20 C42        -7.7850   -3.3030   -1.2100 ca        1 OAP     -0.128000
     21 C43        -7.0910   -2.2790   -1.8520 ca        1 OAP     -0.125500
     22 N21         2.3890    0.7950   -0.2360 n         1 OAP     -0.574900
     23 C21         3.4660    0.7590   -1.1160 c         1 OAP      0.650100
     24 O21         4.1350   -0.2830   -1.2560 o         1 OAP     -0.600100
     25 C22         3.8040    2.0510   -1.8350 c3        1 OAP     -0.150400
     26 C23         5.1340    1.9440   -2.5500 c3        1 OAP     -0.075400
     27 C24         5.4470    3.2210   -3.2990 c3        1 OAP     -0.079400
     28 C25         6.7800    3.1190   -4.0100 c3        1 OAP     -0.079400
     29 C26         7.0950    4.3940   -4.7640 c3        1 OAP     -0.076400
     30 C27         8.4340    4.2920   -5.4700 c3        1 OAP     -0.037100
     31 C28         8.7430    5.5260   -6.2440 ca        1 OAP     -0.078300
     32 C50         9.7080    6.4300   -5.7870 ca        1 OAP     -0.128000
     33 C51         9.9980    7.5790   -6.5210 ca        1 OAP     -0.128000
     34 C52         9.3290    7.8350   -7.7160 ca        1 OAP     -0.133000
     35 C53         8.3660    6.9370   -8.1780 ca        1 OAP     -0.128000
     36 C54         8.0750    5.7880   -7.4470 ca        1 OAP     -0.128000
     37 H11        -0.1240   -1.3910    0.5670 h1        1 OAP      0.076200
     38 H12A       -0.1690    0.3950    0.8140 h1        1 OAP      0.076200
     39 H2          2.1880   -1.2940   -0.3370 h1        1 OAP      0.097700
     40 H31         1.4900   -1.4940    2.1370 hc        1 OAP      0.057700
     41 H32         1.9500    0.2350    2.3600 hc        1 OAP      0.057700
     42 H311        4.1760   -0.9980    0.9480 hc        1 OAP      0.096700
     43 H312        3.6510   -2.2030    2.1910 hc        1 OAP      0.096700
     44 H12        -1.8500    0.1440   -3.6580 ha        1 OAP      0.135500
     45 H13        -4.3200    0.2450   -3.8890 ha        1 OAP      0.138000
     46 H15        -4.7450   -0.3500    0.3710 ha        1 OAP      0.138000
     47 H16        -2.2820   -0.4520    0.6090 ha        1 OAP      0.135500
     48 H171       -6.4560    0.0490   -2.9990 hc        1 OAP      0.057700
     49 H172       -6.5080    1.0470   -1.4900 hc        1 OAP      0.057700
     50 H19        -7.2870    0.1150    0.5760 ha        1 OAP      0.132000
     51 H40        -8.5280   -1.7170    1.7180 ha        1 OAP      0.132500
     52 H41        -8.8500   -3.9130    0.5750 ha        1 OAP      0.132000
     53 H42        -7.9260   -4.2690   -1.7160 ha        1 OAP      0.132500
     54 H43        -6.6850   -2.4390   -2.8620 ha        1 OAP      0.132000
     55 HN2         1.7980    1.5940   -0.2630 hn        1 OAP      0.309500
     56 H221        2.9880    2.2660   -2.5750 hc        1 OAP      0.067200
     57 H222        3.8350    2.9000   -1.1010 hc        1 OAP      0.067200
     58 H231        5.9430    1.7270   -1.8040 hc        1 OAP      0.060200
     59 H232        5.1070    1.0750   -3.2600 hc        1 OAP      0.060200
     60 H241        5.4680    4.0850   -2.5840 hc        1 OAP      0.039700
     61 H242        4.6380    3.4290   -4.0470 hc        1 OAP      0.039700
     62 H251        7.5910    2.9140   -3.2620 hc        1 OAP      0.043700
     63 H252        6.7610    2.2530   -4.7230 hc        1 OAP      0.043700
     64 H261        6.2890    4.5970   -5.5190 hc        1 OAP      0.044200
     65 H262        7.1100    5.2600   -4.0520 hc        1 OAP      0.044200
     66 H271        9.2400    4.1010   -4.7120 hc        1 OAP      0.048700
     67 H272        8.4200    3.4110   -6.1670 hc        1 OAP      0.048700
     68 H50        10.2400    6.2330   -4.8440 ha        1 OAP      0.130500
     69 H51        10.7590    8.2850   -6.1540 ha        1 OAP      0.130000
     70 H52         9.5590    8.7410   -8.2950 ha        1 OAP      0.130000
     71 H53         7.8380    7.1350   -9.1220 ha        1 OAP      0.130000
     72 H54         7.3160    5.0790   -7.8120 ha        1 OAP      0.130500
     73 H212        4.0460    1.2940    1.9780 ho        1 OAP      0.428000
@<TRIPOS>BOND
     1    1    2 1   
     2    1    8 1   
     3    1   37 1   
     4    1   38 1   
     5    2    3 1   
     6    2   22 1   
     7    2   39 1   
     8    3    4 1   
     9    3   40 1   
    10    3   41 1   
    11    4    5 1   
    12    4   42 1   
    13    4   43 1   
    14    5    6 2   
    15    5    7 1   
    16    7   73 1   
    17    8    9 1   
    18    9   10 ar  
    19    9   14 ar  
    20   10   11 ar  
    21   10   44 1   
    22   11   12 ar  
    23   11   45 1   
    24   12   13 ar  
    25   12   15 1   
    26   13   14 ar  
    27   13   46 1   
    28   14   47 1   
    29   15   16 1   
    30   15   48 1   
    31   15   49 1   
    32   16   17 ar  
    33   16   21 ar  
    34   17   18 ar  
    35   17   50 1   
    36   18   19 ar  
    37   18   51 1   
    38   19   20 ar  
    39   19   52 1   
    40   20   21 ar  
    41   20   53 1   
    42   21   54 1   
    43   22   23 1   
    44   22   55 1   
    45   23   24 2   
    46   23   25 1   
    47   25   26 1   
    48   25   56 1   
    49   25   57 1   
    50   26   27 1   
    51   26   58 1   
    52   26   59 1   
    53   27   28 1   
    54   27   60 1   
    55   27   61 1   
    56   28   29 1   
    57   28   62 1   
    58   28   63 1   
    59   29   30 1   
    60   29   64 1   
    61   29   65 1   
    62   30   31 1   
    63   30   66 1   
    64   30   67 1   
    65   31   32 ar  
    66   31   36 ar  
    67   32   33 ar  
    68   32   68 1   
    69   33   34 ar  
    70   33   69 1   
    71   34   35 ar  
    72   34   70 1   
    73   35   36 ar  
    74   35   71 1   
    75   36   72 1   
@<TRIPOS>SUBSTRUCTURE
     1 OAP         1 TEMP              0 ****  ****    0 ROOT
