@<TRIPOS>MOLECULE
OAQ
   41    37     1     0     0
SMALL
bcc


@<TRIPOS>ATOM
      1 C1          1.2340   -0.8550   -3.1680 c1        1 OAQ     -0.084000
      2 C2          2.6650   -0.8510   -3.1550 c1        1 OAQ     -0.099000
      3 C3          3.3740   -0.7230   -1.8990 c1        1 OAQ     -0.077000
      4 C4          2.6520   -0.6020   -0.6800 c2        1 OAQ     -0.152000
      5 C5          1.2780   -0.6060   -0.6850 c1        1 OAQ      0.086000
      6 C6          0.5310   -0.7370   -1.9710 c2        1 OAQ     -0.098000
      7 C7         -0.8110    0.1780    0.3940 c3        1 OAQ      0.010000
      8 C8         -1.5860   -0.5660   -0.6370 c3        1 OAQ     -0.173000
      9 C9         -1.0190   -0.6480   -1.9120 c3        1 OAQ     -0.119000
     10 C10         3.4460   -0.9710   -4.4690 c2        1 OAQ      0.025000
     11 C11        -1.5970   -0.0030    1.8360 c3        1 OAQ     -0.093000
     12 C12        -2.0050    2.2140    4.5870 c3        1 OAQ     -0.229000
     13 C13        -4.1750    1.4680    3.5520 c3        1 OAQ     -0.229000
     14 C14        -2.6700    1.1930    3.6250 c3        1 OAQ     -0.024000
     15 N1          0.4790   -0.1860    0.5720 n2        1 OAQ     -0.284000
     16 N2          4.8170   -0.8180   -1.8670 n1        1 OAQ      0.564000
     17 N3         -2.0850    1.3250    2.2980 n3        1 OAQ     -0.310000
     18 O1          5.4380   -1.5700   -0.8770 os        1 OAQ     -0.350000
     19 O2          5.4810   -0.1460   -2.6140 o         1 OAQ     -0.380000
     20 O3          4.2150   -2.1710   -4.4570 oh        1 OAQ     -0.324000
     21 H1          0.7460   -0.9410   -4.0240 ha        1 OAQ      0.148000
     22 H2          3.1260   -0.5170    0.1510 ha        1 OAQ      0.170000
     23 H3         -0.8250    1.1020    0.1620 h1        1 OAQ      0.098000
     24 H4         -1.7080   -1.4430   -0.3230 hc        1 OAQ      0.095000
     25 H5         -2.4690   -0.1010   -0.7350 hc        1 OAQ      0.095000
     26 H6         -1.3920   -1.4960   -2.3610 hc        1 OAQ      0.100500
     27 H7         -1.2800    0.1300   -2.3920 hc        1 OAQ      0.100500
     28 H8          4.0400   -0.2050   -4.5630 h4        1 OAQ      0.097500
     29 H9          2.8140   -0.9930   -5.2260 h4        1 OAQ      0.097500
     30 H10        -2.3940   -0.6320    1.7150 h1        1 OAQ      0.079000
     31 H11        -0.9840   -0.3790    2.5010 h1        1 OAQ      0.079000
     32 H12        -2.2270    3.1180    4.3020 hc        1 OAQ      0.079333
     33 H13        -2.3450    2.0620    5.5240 hc        1 OAQ      0.079333
     34 H14        -1.0410    2.0980    4.5690 hc        1 OAQ      0.079333
     35 H15        -4.5580    1.4210    4.4550 hc        1 OAQ      0.079333
     36 H16        -4.3290    2.3710    3.1740 hc        1 OAQ      0.079333
     37 H17        -4.5980    0.8060    2.9860 hc        1 OAQ      0.079333
     38 H18        -2.5140    0.2410    3.9740 h1        1 OAQ      0.096000
     39 H19         0.5290   -0.8430    1.1990 hn        1 OAQ      0.227000
     40 H20        -2.7260    1.6380    1.7100 hn        1 OAQ      0.158000
     41 H22         4.4720   -2.3620   -5.2710 ho        1 OAQ      0.221000
@<TRIPOS>BOND
     1    1    6 1   
     2    1   21 1   
     3    2    3 1   
     4    3    4 1   
     5    4    5 1   
     6    4   22 1   
     7    5    6 1   
     8    6    9 1   
     9    7    8 1   
    10    7   11 1   
    11    7   15 1   
    12    7   23 1   
    13    8    9 1   
    14    8   24 1   
    15    8   25 1   
    16    9   26 1   
    17    9   27 1   
    18   10   20 1   
    19   10   28 1   
    20   10   29 1   
    21   11   17 1   
    22   11   30 1   
    23   11   31 1   
    24   12   14 1   
    25   12   32 1   
    26   12   33 1   
    27   12   34 1   
    28   13   14 1   
    29   13   35 1   
    30   13   36 1   
    31   13   37 1   
    32   14   17 1   
    33   14   38 1   
    34   15   39 1   
    35   16   19 1   
    36   17   40 1   
    37   20   41 1   
@<TRIPOS>SUBSTRUCTURE
     1 OAQ         1 TEMP              0 ****  ****    0 ROOT
