@<TRIPOS>MOLECULE
OAQ
   41    42     1     0     0
SMALL
bcc


@<TRIPOS>ATOM
      1 C1          2.1930    1.5630    0.1480 ca        1 OAQ     -0.088000
      2 C2          3.0840    0.5060   -0.0670 ca        1 OAQ     -0.054300
      3 C3          2.5470   -0.7900   -0.1980 ca        1 OAQ     -0.143200
      4 C4          1.1670   -1.0190   -0.0990 ca        1 OAQ     -0.134000
      5 C5          0.2830    0.0530    0.1420 ca        1 OAQ      0.141600
      6 C6          0.8200    1.3630    0.2430 ca        1 OAQ     -0.091300
      7 C7         -2.0050    0.9050    0.4590 c3        1 OAQ      0.187500
      8 C8         -1.4730    2.2290   -0.1030 c3        1 OAQ     -0.099400
      9 C9         -0.0920    2.5190    0.4470 c3        1 OAQ     -0.037100
     10 C10         4.5520    0.7630   -0.1570 c3        1 OAQ      0.172700
     11 C11        -3.3690    0.6150   -0.2200 c3        1 OAQ      0.155800
     12 C12        -5.8820   -2.1330    0.2940 c3        1 OAQ     -0.094600
     13 C13        -6.4650    0.2240   -0.2400 c3        1 OAQ     -0.094600
     14 C14        -5.3400   -0.8120   -0.2550 c3        1 OAQ      0.178500
     15 N1         -1.0770   -0.2110    0.3550 nh        1 OAQ     -0.721600
     16 N2          3.4160   -1.9720   -0.4500 no        1 OAQ      0.311200
     17 N3         -4.1680   -0.3560    0.4910 n3        1 OAQ     -0.830200
     18 O1          2.8970   -3.0400   -0.6470 o         1 OAQ     -0.216000
     19 O2          4.6130   -1.8490   -0.4550 o         1 OAQ     -0.216000
     20 O3          4.7940    2.1590   -0.0280 oh        1 OAQ     -0.610800
     21 H1          2.5990    2.5860    0.2380 ha        1 OAQ      0.169000
     22 H2          0.7770   -2.0470   -0.2020 ha        1 OAQ      0.170000
     23 H3         -2.1760    1.0480    1.5710 h1        1 OAQ      0.082700
     24 H4         -1.4400    2.1870   -1.2220 hc        1 OAQ      0.056200
     25 H5         -2.1760    3.0510    0.1890 hc        1 OAQ      0.056200
     26 H6         -0.1610    2.7390    1.5480 hc        1 OAQ      0.063200
     27 H7          0.3260    3.4350   -0.0510 hc        1 OAQ      0.063200
     28 H8          5.0850    0.2060    0.6650 h1        1 OAQ      0.058200
     29 H9          4.9440    0.4040   -1.1500 h1        1 OAQ      0.058200
     30 H10        -3.9530    1.5800   -0.2310 h1        1 OAQ      0.037200
     31 H11        -3.1860    0.3260   -1.2990 h1        1 OAQ      0.037200
     32 H12        -6.7680   -2.4430   -0.3100 hc        1 OAQ      0.040533
     33 H13        -5.1120   -2.9390    0.2340 hc        1 OAQ      0.040533
     34 H14        -6.1990   -2.0200    1.3590 hc        1 OAQ      0.040533
     35 H15        -6.1320    1.1810   -0.7080 hc        1 OAQ      0.040533
     36 H16        -7.3330   -0.1730   -0.8200 hc        1 OAQ      0.040533
     37 H17        -6.7970    0.4340    0.8040 hc        1 OAQ      0.040533
     38 H18        -5.0660   -0.9900   -1.3440 h1        1 OAQ      0.013700
     39 H19        -1.4170   -0.9730   -0.1970 hn        1 OAQ      0.398800
     40 H20        -3.6200   -1.1400    0.7880 hn        1 OAQ      0.367800
     41 H22         5.7520    2.2640   -0.0540 ho        1 OAQ      0.411000
@<TRIPOS>BOND
     1    1    2 ar  
     2    1    6 ar  
     3    1   21 1   
     4    2    3 ar  
     5    2   10 1   
     6    3    4 ar  
     7    3   16 1   
     8    4    5 ar  
     9    4   22 1   
    10    5    6 ar  
    11    5   15 1   
    12    6    9 1   
    13    7    8 1   
    14    7   11 1   
    15    7   15 1   
    16    7   23 1   
    17    8    9 1   
    18    8   24 1   
    19    8   25 1   
    20    9   26 1   
    21    9   27 1   
    22   10   20 1   
    23   10   28 1   
    24   10   29 1   
    25   11   17 1   
    26   11   30 1   
    27   11   31 1   
    28   12   14 1   
    29   12   32 1   
    30   12   33 1   
    31   12   34 1   
    32   13   14 1   
    33   13   35 1   
    34   13   36 1   
    35   13   37 1   
    36   14   17 1   
    37   14   38 1   
    38   15   39 1   
    39   16   18 1   
    40   16   19 1   
    41   17   40 1   
    42   20   41 1   
@<TRIPOS>SUBSTRUCTURE
     1 OAQ         1 TEMP              0 ****  ****    0 ROOT
