@<TRIPOS>MOLECULE
OAQ
   41    42     1     0     0
SMALL
bcc


@<TRIPOS>ATOM
      1 C1         -0.0130    0.0370   -0.0520 ca        1 OAQ     -0.083000
      2 C2          1.3690   -0.1860   -0.0870 ca        1 OAQ     -0.063300
      3 C3          2.0760   -0.1260    1.1280 ca        1 OAQ     -0.136200
      4 C4          1.4250    0.1570    2.3370 ca        1 OAQ     -0.148000
      5 C5          0.0350    0.4030    2.3560 ca        1 OAQ      0.157600
      6 C6         -0.6820    0.3220    1.1320 ca        1 OAQ     -0.101300
      7 C7         -2.0340    0.7430    3.6510 c3        1 OAQ      0.206500
      8 C8         -2.7480    0.0910    2.4590 c3        1 OAQ     -0.094400
      9 C9         -2.1510    0.5470    1.1440 c3        1 OAQ     -0.033100
     10 C10         2.0510   -0.4810   -1.3830 c3        1 OAQ      0.174700
     11 C11        -2.5230    0.0120    4.9320 c3        1 OAQ      0.143800
     12 C12        -1.6470    0.4240    8.5800 c3        1 OAQ     -0.111100
     13 C13        -3.9360    0.1090    7.6740 c3        1 OAQ     -0.111100
     14 C14        -2.4470   -0.0650    7.3700 c3        1 OAQ      0.173500
     15 N1         -0.5890    0.8070    3.5370 nh        1 OAQ     -0.726600
     16 N2          3.5450   -0.3650    1.1880 no        1 OAQ      0.310200
     17 N3         -1.9810    0.5770    6.1470 n3        1 OAQ     -0.830200
     18 O1          4.0880   -0.3680    2.2610 o         1 OAQ     -0.217000
     19 O2          4.1660   -0.5520    0.1740 o         1 OAQ     -0.217000
     20 O3          1.0860   -0.5060   -2.4280 oh        1 OAQ     -0.610800
     21 H1         -0.5820   -0.0180   -0.9970 ha        1 OAQ      0.168000
     22 H2          2.0080    0.1950    3.2750 ha        1 OAQ      0.171000
     23 H3         -2.3750    1.8230    3.7090 h1        1 OAQ      0.058700
     24 H4         -2.6760   -1.0250    2.5370 hc        1 OAQ      0.054700
     25 H5         -3.8320    0.3680    2.5000 hc        1 OAQ      0.054700
     26 H6         -2.3530    1.6420    0.9940 hc        1 OAQ      0.061200
     27 H7         -2.6390   -0.0050    0.2970 hc        1 OAQ      0.061200
     28 H8          2.8210    0.3130   -1.5960 h1        1 OAQ      0.056700
     29 H9          2.5680   -1.4800   -1.3250 h1        1 OAQ      0.056700
     30 H10        -2.2090   -1.0690    4.8850 h1        1 OAQ      0.039200
     31 H11        -3.6520    0.0370    4.9020 h1        1 OAQ      0.039200
     32 H12        -1.9560   -0.1620    9.4790 hc        1 OAQ      0.039867
     33 H13        -1.8400    1.5050    8.7750 hc        1 OAQ      0.039867
     34 H14        -0.5520    0.2800    8.4180 hc        1 OAQ      0.039867
     35 H15        -4.1950    1.1880    7.7920 hc        1 OAQ      0.039867
     36 H16        -4.5650   -0.3220    6.8590 hc        1 OAQ      0.039867
     37 H17        -4.1850   -0.4200    8.6250 hc        1 OAQ      0.039867
     38 H18        -2.2470   -1.1730    7.2480 h1        1 OAQ      0.055700
     39 H19        -0.0950    0.5660    4.3720 hn        1 OAQ      0.428800
     40 H20        -2.1440    1.5660    6.1850 hn        1 OAQ      0.362800
     41 H22         1.5810   -0.6700   -3.2400 ho        1 OAQ      0.410000
@<TRIPOS>BOND
     1    1    2 ar  
     2    1    6 ar  
     3    1   21 1   
     4    2    3 ar  
     5    2   10 1   
     6    3    4 ar  
     7    3   16 1   
     8    4    5 ar  
     9    4   22 1   
    10    5    6 ar  
    11    5   15 1   
    12    6    9 1   
    13    7    8 1   
    14    7   11 1   
    15    7   15 1   
    16    7   23 1   
    17    8    9 1   
    18    8   24 1   
    19    8   25 1   
    20    9   26 1   
    21    9   27 1   
    22   10   20 1   
    23   10   28 1   
    24   10   29 1   
    25   11   17 1   
    26   11   30 1   
    27   11   31 1   
    28   12   14 1   
    29   12   32 1   
    30   12   33 1   
    31   12   34 1   
    32   13   14 1   
    33   13   35 1   
    34   13   36 1   
    35   13   37 1   
    36   14   17 1   
    37   14   38 1   
    38   15   39 1   
    39   16   18 1   
    40   16   19 1   
    41   17   40 1   
    42   20   41 1   
@<TRIPOS>SUBSTRUCTURE
     1 OAQ         1 TEMP              0 ****  ****    0 ROOT
