@<TRIPOS>MOLECULE
OAQ
   42    43     1     0     0
SMALL
bcc


@<TRIPOS>ATOM
      1 C1         -0.0120   -0.0090   -0.0130 ca        1 OAQ     -0.106000
      2 C2          1.3830    0.0880   -0.0870 ca        1 OAQ      0.002700
      3 C3          2.1190    0.0080    1.1120 ca        1 OAQ     -0.171200
      4 C4          1.4710   -0.1650    2.3460 ca        1 OAQ     -0.060000
      5 C5          0.0730   -0.2620    2.3970 ca        1 OAQ      0.040600
      6 C6         -0.6760   -0.1840    1.1990 ca        1 OAQ     -0.064300
      7 C7         -1.9490    0.0070    3.6570 c3        1 OAQ      0.138500
      8 C8         -2.7740   -0.6270    2.5330 c3        1 OAQ     -0.104400
      9 C9         -2.1650   -0.2570    1.1940 c3        1 OAQ     -0.046100
     10 C10         2.0530    0.2710   -1.4110 c3        1 OAQ      0.162700
     11 C11        -2.6420   -0.2680    5.0100 c3        1 OAQ      0.102800
     12 C12        -1.7160    0.3650    8.6370 c3        1 OAQ     -0.134600
     13 C13        -3.7220    1.3720    7.5420 c3        1 OAQ     -0.134600
     14 C14        -2.6700    0.2760    7.4520 c3        1 OAQ      0.130500
     15 N1         -0.5530   -0.4210    3.6750 nh        1 OAQ     -0.702600
     16 N2          3.6060    0.1030    1.1320 no        1 OAQ      0.314200
     17 N3         -1.9040    0.3480    6.1490 n4        1 OAQ     -0.763000
     18 O1          4.1650    0.0440    2.1950 o         1 OAQ     -0.197500
     19 O2          4.2080    0.2350    0.1020 o         1 OAQ     -0.197500
     20 O3          1.0610    0.3270   -2.4260 oh        1 OAQ     -0.611800
     21 H1         -0.5960    0.0540   -0.9500 ha        1 OAQ      0.184000
     22 H2          2.0710   -0.2260    3.2730 ha        1 OAQ      0.180000
     23 H3         -1.9350    1.1280    3.4820 h1        1 OAQ      0.090700
     24 H4         -3.8310   -0.2590    2.5800 hc        1 OAQ      0.065200
     25 H5         -2.7970   -1.7420    2.6540 hc        1 OAQ      0.065200
     26 H6         -2.4970   -1.0060    0.4230 hc        1 OAQ      0.081200
     27 H7         -2.5620    0.7450    0.8680 hc        1 OAQ      0.081200
     28 H8          2.7520   -0.5910   -1.6030 h1        1 OAQ      0.073200
     29 H9          2.6490    1.2270   -1.4060 h1        1 OAQ      0.073200
     30 H10        -3.6790    0.1720    4.9760 hx        1 OAQ      0.107200
     31 H11        -2.7230   -1.3750    5.1990 hx        1 OAQ      0.107200
     32 H12        -0.9520   -0.4500    8.6160 hc        1 OAQ      0.079367
     33 H13        -1.1970    1.3540    8.6720 hc        1 OAQ      0.079367
     34 H14        -2.3150    0.2530    9.5760 hc        1 OAQ      0.079367
     35 H15        -4.4530    1.3160    6.6990 hc        1 OAQ      0.079367
     36 H16        -4.2860    1.2370    8.5000 hc        1 OAQ      0.079367
     37 H17        -3.2550    2.3880    7.5550 hc        1 OAQ      0.079367
     38 H18        -3.1790   -0.7350    7.4630 hx        1 OAQ      0.104700
     39 H19        -0.4850   -1.3910    3.9440 hn        1 OAQ      0.371800
     40 H20        -1.7040    1.3310    5.9280 hn        1 OAQ      0.456800
     41 H22         1.5350    0.4220   -3.2620 ho        1 OAQ      0.426000
     42 H32        -1.0010   -0.1310    6.2670 hn        1 OAQ      0.456800
@<TRIPOS>BOND
     1    1    2 ar  
     2    1    6 ar  
     3    1   21 1   
     4    2    3 ar  
     5    2   10 1   
     6    3    4 ar  
     7    3   16 1   
     8    4    5 ar  
     9    4   22 1   
    10    5    6 ar  
    11    5   15 1   
    12    6    9 1   
    13    7    8 1   
    14    7   11 1   
    15    7   15 1   
    16    7   23 1   
    17    8    9 1   
    18    8   24 1   
    19    8   25 1   
    20    9   26 1   
    21    9   27 1   
    22   10   20 1   
    23   10   28 1   
    24   10   29 1   
    25   11   17 1   
    26   11   30 1   
    27   11   31 1   
    28   12   14 1   
    29   12   32 1   
    30   12   33 1   
    31   12   34 1   
    32   13   14 1   
    33   13   35 1   
    34   13   36 1   
    35   13   37 1   
    36   14   17 1   
    37   14   38 1   
    38   15   39 1   
    39   16   18 1   
    40   16   19 1   
    41   17   40 1   
    42   17   42 1   
    43   20   41 1   
@<TRIPOS>SUBSTRUCTURE
     1 OAQ         1 TEMP              0 ****  ****    0 ROOT
