@<TRIPOS>MOLECULE
OAR
   27    25     1     0     0
SMALL
bcc


@<TRIPOS>ATOM
      1 O          -3.7850   -1.4510   -2.2310 oh        1 OAR     -0.609800
      2 N1         -2.5980   -1.9940    0.2760 n3        1 OAR     -0.911800
      3 NE          1.7830    1.7190    0.7770 nh        1 OAR     -0.771000
      4 NH1         3.3490    1.9940    2.7020 nh        1 OAR     -0.811600
      5 NH2         4.1250    2.1160    0.4420 n1        1 OAR     -0.344000
      6 CA         -2.0530   -1.0450   -0.6420 c3        1 OAR      0.171500
      7 CB         -0.5530   -0.9860   -0.4750 c3        1 OAR     -0.076400
      8 CG         -0.1530    0.3810    0.0850 c3        1 OAR     -0.087400
      9 CD          1.3630    0.3780    0.4250 c3        1 OAR      0.176800
     10 CZ          3.1160    1.9480    1.2840 c2        1 OAR      0.315000
     11 C          -2.3850   -1.4620   -2.0540 c3        1 OAR      0.125400
     12 HO         -3.9780   -1.6910   -3.0590 ho        1 OAR      0.405000
     13 H          -2.3350   -1.7810    1.1280 hn        1 OAR      0.356800
     14 H2         -3.5160   -1.9790    0.2250 hn        1 OAR      0.356800
     15 HE          1.2050    2.4180    0.6810 hn        1 OAR      0.398800
     16 HH11        3.2410    2.7850    3.1600 hn        1 OAR      0.390800
     17 HH12        3.6430    1.2470    3.1410 hn        1 OAR      0.390800
     18 HH2         3.9800    2.0870   -0.4430 DU        1 OAR      0.149000
     19 HA         -2.4370   -0.1620   -0.4630 h1        1 OAR      0.027700
     20 HB2        -0.2690   -1.6810    0.1370 hc        1 OAR      0.049700
     21 HB3        -0.1230   -1.1210   -1.3420 hc        1 OAR      0.049700
     22 HG2        -0.3350    1.0710   -0.5800 hc        1 OAR      0.051200
     23 HG3        -0.6710    0.5650    0.8970 hc        1 OAR      0.051200
     24 HD2         1.8710    0.0710   -0.3520 h1        1 OAR      0.040700
     25 HD3         1.5270   -0.2260    1.1820 h1        1 OAR      0.040700
     26 HC1        -2.0410   -2.3650   -2.2170 h1        1 OAR      0.033700
     27 HC2        -1.9710   -0.8360   -2.6840 h1        1 OAR      0.033700
@<TRIPOS>BOND
     1    1   11 1   
     2    1   12 1   
     3    2    6 1   
     4    2   13 1   
     5    2   14 1   
     6    3    9 1   
     7    3   10 1   
     8    3   15 1   
     9    4   10 1   
    10    4   16 1   
    11    4   17 1   
    12    5   10 2   
    13    6    7 1   
    14    6   11 1   
    15    6   19 1   
    16    7    8 1   
    17    7   20 1   
    18    7   21 1   
    19    8    9 1   
    20    8   22 1   
    21    8   23 1   
    22    9   24 1   
    23    9   25 1   
    24   11   26 1   
    25   11   27 1   
@<TRIPOS>SUBSTRUCTURE
     1 OAR         1 TEMP              0 ****  ****    0 ROOT
