@<TRIPOS>MOLECULE
OAR
   27    26     1     0     0
SMALL
bcc


@<TRIPOS>ATOM
      1 O           4.9180    0.2190   -0.3510 oh        1 OAR     -0.607800
      2 N1          2.8060   -1.4020    0.6800 n3        1 OAR     -0.895800
      3 NE         -2.4030   -0.4520   -0.2960 nh        1 OAR     -0.795200
      4 NH1        -4.8000   -0.7760   -0.1880 nh        1 OAR     -0.934800
      5 NH2        -3.7960    1.3620    0.4040 n2        1 OAR     -0.874100
      6 CA          2.5820   -0.2330   -0.1450 c3        1 OAR      0.165500
      7 CB          1.2440    0.4600    0.1510 c3        1 OAR     -0.072400
      8 CG          0.0690   -0.4300   -0.1850 c3        1 OAR     -0.085400
      9 CD         -1.2350    0.3360    0.0480 c3        1 OAR      0.181800
     10 CZ         -3.6900    0.1200   -0.0030 c2        1 OAR      0.745100
     11 C           3.6850    0.8490   -0.0470 c3        1 OAR      0.085400
     12 HO          5.5910    0.9100   -0.3440 ho        1 OAR      0.404000
     13 H           3.6950   -1.8060    0.4520 hn        1 OAR      0.352300
     14 H2          2.8040   -1.1540    1.6510 hn        1 OAR      0.352300
     15 HE         -2.3270   -1.3930    0.0430 hn        1 OAR      0.389800
     16 HH11       -4.6100   -1.5780   -0.7480 hn        1 OAR      0.388300
     17 HH12       -5.6330   -0.3130   -0.4790 hn        1 OAR      0.388300
     18 HH2        -4.7270    1.7050    0.4930 hn        1 OAR      0.388400
     19 HA          2.5690   -0.5970   -1.2160 h1        1 OAR      0.071700
     20 HB2         1.1980    0.7630    1.2290 hc        1 OAR      0.043200
     21 HB3         1.1910    1.3970   -0.4640 hc        1 OAR      0.043200
     22 HG2         0.1390   -0.7590   -1.2550 hc        1 OAR      0.055700
     23 HG3         0.0960   -1.3530    0.4520 hc        1 OAR      0.055700
     24 HD2        -1.2460    1.2580   -0.5990 h1        1 OAR      0.051700
     25 HD3        -1.2600    0.6800    1.1240 h1        1 OAR      0.051700
     26 HC1         3.7240    1.2840    0.9870 h1        1 OAR      0.026200
     27 HC2         3.4780    1.6690   -0.7830 h1        1 OAR      0.026200
@<TRIPOS>BOND
     1    1   11 1   
     2    1   12 1   
     3    2    6 1   
     4    2   13 1   
     5    2   14 1   
     6    3    9 1   
     7    3   10 1   
     8    3   15 1   
     9    4   10 1   
    10    4   16 1   
    11    4   17 1   
    12    5   10 2   
    13    5   18 1   
    14    6    7 1   
    15    6   11 1   
    16    6   19 1   
    17    7    8 1   
    18    7   20 1   
    19    7   21 1   
    20    8    9 1   
    21    8   22 1   
    22    8   23 1   
    23    9   24 1   
    24    9   25 1   
    25   11   26 1   
    26   11   27 1   
@<TRIPOS>SUBSTRUCTURE
     1 OAR         1 TEMP              0 ****  ****    0 ROOT
