@<TRIPOS>MOLECULE
OAS
   18    17     1     0     0
SMALL
bcc


@<TRIPOS>ATOM
      1 N          -1.6180   -0.4300   -0.3130 n3        1 OAS     -0.904800
      2 CA         -0.4630    0.3300   -0.7610 c3        1 OAS     -0.005500
      3 CB          0.7660    0.1510    0.1300 c3        1 OAS      0.147400
      4 OG          0.5160    0.6580    1.4560 os        1 OAS     -0.446900
      5 C          -0.0100    0.0540   -2.2360 c         1 OAS      0.894600
      6 O          -0.7770   -0.6260   -2.9730 o         1 OAS     -0.837800
      7 C2A        -0.5160    0.5380    3.5920 c3        1 OAS     -0.152100
      8 C1A        -0.0440   -0.1760    2.3690 c         1 OAS      0.644100
      9 OAC        -0.0900   -1.3930    2.1600 o         1 OAS     -0.568000
     10 OXT         1.0900    0.5510   -2.6030 o         1 OAS     -0.837800
     11 H2         -2.1970   -0.6060   -1.1190 hn        1 OAS      0.342800
     12 H          -1.3130   -1.3240    0.0320 hn        1 OAS      0.342800
     13 HA         -0.7680    1.4170   -0.7240 h1        1 OAS      0.050700
     14 HB2         1.5980    0.8050   -0.2480 h1        1 OAS      0.073200
     15 HB3         1.0950   -0.9170    0.1810 h1        1 OAS      0.073200
     16 HC21       -0.4820   -0.1530    4.4670 hc        1 OAS      0.061033
     17 HC22        0.1160    1.4360    3.7910 hc        1 OAS      0.061033
     18 HC23       -1.5700    0.8680    3.4210 hc        1 OAS      0.061033
@<TRIPOS>BOND
     1    1    2 1   
     2    1   11 1   
     3    1   12 1   
     4    2    3 1   
     5    2    5 1   
     6    2   13 1   
     7    3    4 1   
     8    3   14 1   
     9    3   15 1   
    10    4    8 1   
    11    5    6 1   
    12    5   10 1   
    13    7    8 1   
    14    7   16 1   
    15    7   17 1   
    16    7   18 1   
    17    8    9 2   
@<TRIPOS>SUBSTRUCTURE
     1 OAS         1 TEMP              0 ****  ****    0 ROOT
