@<TRIPOS>MOLECULE
OAW
   36    32     1     0     0
SMALL
bcc


@<TRIPOS>ATOM
      1 N1         -0.9830   -0.0980   -3.5170 n1        1 OAW     -0.574800
      2 C2          0.4010   -0.1060   -3.5180 c1        1 OAW      0.589600
      3 N3          1.0940   -0.1160   -2.3260 n1        1 OAW     -0.614800
      4 C4          0.4210   -0.1190   -1.1520 c1        1 OAW      0.193200
      5 C5         -0.9730   -0.1110   -1.1490 cg        1 OAW     -0.184000
      6 C6         -1.6620   -0.1010   -2.3440 c1        1 OAW      0.486700
      7 N7          1.0940   -0.0380   -4.7600 n3        1 OAW     -0.802400
      8 C8          2.6050   -0.1110    0.1110 c3        1 OAW      0.101700
      9 C9         -3.0820   -0.0880   -2.8820 c3        1 OAW     -0.086000
     10 N10         1.1620   -0.0610    0.1160 n         1 OAW     -0.347600
     11 C11         0.4690   -0.0340    1.3280 c         1 OAW      0.552800
     12 C12        -1.0060   -0.0420    1.3350 cf        1 OAW      0.460600
     13 N13        -1.7070   -0.0720    0.1260 ne        1 OAW     -0.418700
     14 O14         1.0830   -0.0070    2.3790 o         1 OAW     -0.576100
     15 C15        -1.7620    0.1120    2.6510 cf        1 OAW     -0.281400
     16 C16         3.1590    1.1490    0.7460 c3        1 OAW     -0.112100
     17 C17         3.0710   -1.3190    0.9010 c3        1 OAW     -0.112100
     18 C18        -2.3650    1.2140    3.1880 ch        1 OAW      0.197500
     19 N19        -3.0700    0.8180    4.2710 n1        1 OAW     -0.560600
     20 N20        -2.9080   -0.5370    4.4110 ne        1 OAW     -0.246600
     21 C21        -2.1040   -0.9680    3.4140 c1        1 OAW      0.188500
     22 HN7         0.6240    0.0690   -5.5430 hn        1 OAW      0.442800
     23 HN7A        2.0070   -0.1150   -4.7800 hn        1 OAW      0.442800
     24 H8          2.9280   -0.1810   -0.8150 h1        1 OAW      0.087700
     25 H9         -3.2740    0.7890   -3.2750 hc        1 OAW      0.066367
     26 H9A        -3.1780   -0.7820   -3.5670 hc        1 OAW      0.066367
     27 H9B        -3.7090   -0.2620   -2.1510 hc        1 OAW      0.066367
     28 H16         2.6860    1.9290    0.3900 hc        1 OAW      0.050200
     29 H16A        3.0360    1.1080    1.7200 hc        1 OAW      0.050200
     30 H16B        4.1150    1.2250    0.5400 hc        1 OAW      0.050200
     31 H17         3.1440   -1.0800    1.8540 hc        1 OAW      0.050200
     32 H17A        3.9490   -1.6110    0.5670 hc        1 OAW      0.050200
     33 H17B        2.4220   -2.0480    0.7960 hc        1 OAW      0.050200
     34 H18        -2.2980    2.1200    2.8520 DU        1 OAW      0.224000
     35 H21        -1.8170   -1.8890    3.2650 DU        1 OAW      0.224000
     36 HN19       -3.5720    1.3630    4.8180 DU        1 OAW      0.224000
@<TRIPOS>BOND
     1    1    6 3   
     2    2    3 3   
     3    2    7 1   
     4    4    5 3   
     5    4   10 1   
     6    5   13 1   
     7    6    9 1   
     8    7   22 1   
     9    7   23 1   
    10    8   10 1   
    11    8   16 1   
    12    8   17 1   
    13    8   24 1   
    14    9   25 1   
    15    9   26 1   
    16    9   27 1   
    17   10   11 1   
    18   11   12 1   
    19   11   14 2   
    20   12   13 2   
    21   12   15 1   
    22   15   18 1   
    23   15   21 2   
    24   16   28 1   
    25   16   29 1   
    26   16   30 1   
    27   17   31 1   
    28   17   32 1   
    29   17   33 1   
    30   18   19 3   
    31   19   20 1   
    32   20   21 2   
@<TRIPOS>SUBSTRUCTURE
     1 OAW         1 TEMP              0 ****  ****    0 ROOT
