@<TRIPOS>MOLECULE
OAW
   36    38     1     0     0
SMALL
bcc


@<TRIPOS>ATOM
      1 N1          3.1600   -2.0380   -0.0230 nb        1 OAW     -0.775000
      2 C2          3.6190   -0.7160    0.0000 ca        1 OAW      0.926900
      3 N3          2.8220    0.4080   -0.0110 nb        1 OAW     -0.815000
      4 C4          1.4690    0.2070   -0.0040 ca        1 OAW      0.595200
      5 C5          0.9050   -1.1270   -0.0050 ca        1 OAW     -0.227200
      6 C6          1.8370   -2.2240   -0.0210 ca        1 OAW      0.556600
      7 N7          4.9920   -0.5240    0.0830 nh        1 OAW     -0.939500
      8 C9          1.3020   -3.6210   -0.0390 c3        1 OAW     -0.153400
      9 N10         0.5940    1.3020   -0.0000 n         1 OAW     -0.421300
     10 C11        -0.8020    1.0850   -0.0010 c         1 OAW      0.589200
     11 C12        -1.2800   -0.3430    0.0070 cc        1 OAW      0.457900
     12 N13        -0.4580   -1.3650    0.0040 nd        1 OAW     -0.506100
     13 O14        -1.5730    2.0600   -0.0090 o         1 OAW     -0.612500
     14 C15        -2.7070   -0.5640    0.0190 cc        1 OAW     -0.314200
     15 C16         0.7070    3.4660   -1.2430 c3        1 OAW     -0.112100
     16 C17         0.6880    3.4600    1.2540 c3        1 OAW     -0.112100
     17 C18        -3.3560   -1.8200    0.0420 cd        1 OAW     -0.094300
     18 N19        -4.7190   -1.5520    0.0460 na        1 OAW     -0.023600
     19 N20        -4.9830   -0.2400    0.0270 nd        1 OAW     -0.525800
     20 C21        -3.7910    0.4030    0.0100 cc        1 OAW      0.345200
     21 HN7         5.5850   -1.3000   -0.0890 hn        1 OAW      0.442800
     22 HN7A        5.3520    0.3870   -0.0730 hn        1 OAW      0.442800
     23 H8          2.2400    2.6330    0.0160 h1        1 OAW      0.087700
     24 H9          0.6730   -3.7840    0.8720 hc        1 OAW      0.066367
     25 H9A         0.6620   -3.7570   -0.9460 hc        1 OAW      0.066367
     26 H9B         2.1160   -4.3860   -0.0550 hc        1 OAW      0.066367
     27 H16         1.2100    4.4620   -1.2080 hc        1 OAW      0.050200
     28 H16A        1.0290    2.9350   -2.1700 hc        1 OAW      0.050200
     29 H16B       -0.3980    3.6220   -1.2800 hc        1 OAW      0.050200
     30 H17        -0.4170    3.6210    1.2730 hc        1 OAW      0.050200
     31 H17A        0.9930    2.9240    2.1830 hc        1 OAW      0.050200
     32 H17B        1.1950    4.4550    1.2330 hc        1 OAW      0.050200
     33 H18        -2.9460   -2.8300    0.0560 h4        1 OAW      0.188000
     34 H21        -3.7070    1.4940   -0.0070 h4        1 OAW      0.074100
     35 HN19       -5.4610   -2.2110    0.0610 hn        1 OAW      0.322700
     36 C8          1.1090    2.6800    0.0070 c3        1 OAW      0.101700
@<TRIPOS>BOND
     1    1    2 ar  
     2    1    6 ar  
     3    2    3 ar  
     4    2    7 1   
     5    3    4 ar  
     6    4    5 ar  
     7    4    9 1   
     8    5    6 ar  
     9    5   12 1   
    10    6    8 1   
    11    7   21 1   
    12    7   22 1   
    13    8   24 1   
    14    8   25 1   
    15    8   26 1   
    16    9   10 1   
    17    9   36 1   
    18   10   11 1   
    19   10   13 2   
    20   11   12 2   
    21   11   14 1   
    22   14   17 2   
    23   14   20 1   
    24   15   27 1   
    25   15   28 1   
    26   15   29 1   
    27   15   36 1   
    28   16   30 1   
    29   16   31 1   
    30   16   32 1   
    31   16   36 1   
    32   17   18 1   
    33   17   33 1   
    34   18   19 1   
    35   18   35 1   
    36   19   20 2   
    37   20   34 1   
    38   23   36 1   
@<TRIPOS>SUBSTRUCTURE
     1 OAW         1 TEMP              0 ****  ****    0 ROOT
