@<TRIPOS>MOLECULE
OAW
   36    36     1     0     0
SMALL
bcc


@<TRIPOS>ATOM
      1 N1         -0.3090    0.6650    0.4670 nb        1 OAW     -0.778000
      2 C2          1.0500    0.5030    0.1610 ca        1 OAW      0.948900
      3 N3          2.0460    0.2050    1.0680 nb        1 OAW     -0.825000
      4 C4          1.6680    0.0550    2.3730 ca        1 OAW      0.609200
      5 C5          0.2840    0.2050    2.7790 ca        1 OAW     -0.252200
      6 C6         -0.6680    0.5180    1.7430 ca        1 OAW      0.573600
      7 N7          1.4190    0.6560   -1.1590 nv        1 OAW     -0.951500
      8 C9         -2.1080    0.6810    2.1180 c3        1 OAW     -0.158400
      9 N10         2.6280   -0.2490    3.3500 n         1 OAW     -0.415300
     10 C11         2.2250   -0.4010    4.6920 c         1 OAW      0.582200
     11 C12         0.7670   -0.2230    4.9940 cc        1 OAW      0.323300
     12 N13        -0.1310    0.0600    4.0920 nd        1 OAW     -0.454100
     13 O14         3.0470   -0.6700    5.5860 o         1 OAW     -0.614500
     14 C15         0.4470   -0.4050    6.4490 c3        1 OAW     -0.042600
     15 C16         4.9440    0.6160    3.6900 c3        1 OAW     -0.113100
     16 C17         4.5660   -1.8200    3.3020 c3        1 OAW     -0.113100
     17 C18        -6.6630    0.7090    6.4050 c1        1 OAW      0.415800
     18 N19        -5.5690    0.4790    6.7740 n1        1 OAW     -0.870200
     19 N20        -2.0770   -0.1050    7.0270 n1        1 OAW     -0.396800
     20 C21        -0.9530   -0.2380    6.7650 c1        1 OAW      0.247700
     21 HN7         2.3660    0.5520   -1.4240 hn        1 OAW      0.455300
     22 HN7A        0.7330    0.8710   -1.8390 hn        1 OAW      0.455300
     23 H8          4.1570   -0.2520    1.8840 h1        1 OAW      0.089700
     24 H9         -2.2010    1.5070    2.8670 hc        1 OAW      0.071367
     25 H9A        -2.7510    0.9210    1.2350 hc        1 OAW      0.071367
     26 H9B        -2.4760   -0.2670    2.5840 hc        1 OAW      0.071367
     27 H16         4.6100    1.6560    3.4620 hc        1 OAW      0.051533
     28 H16A        4.9440    0.4700    4.7970 hc        1 OAW      0.051533
     29 H16B        5.9860    0.4850    3.3110 hc        1 OAW      0.051533
     30 H17         4.5580   -2.0240    4.4000 hc        1 OAW      0.051533
     31 H17A        3.9510   -2.5940    2.7840 hc        1 OAW      0.051533
     32 H17B        5.6170   -1.8940    2.9320 hc        1 OAW      0.051533
     33 H18         1.0590    0.3370    7.0400 hc        1 OAW      0.102700
     34 H21         0.7830   -1.4370    6.7570 hc        1 OAW      0.102700
     35 HN19       -4.6660    0.2910    7.0740 hn        1 OAW      0.452400
     36 C8          4.0480   -0.4130    2.9990 c3        1 OAW      0.100700
@<TRIPOS>BOND
     1    1    2 ar  
     2    1    6 ar  
     3    2    3 ar  
     4    2    7 1   
     5    3    4 ar  
     6    4    5 ar  
     7    4    9 1   
     8    5    6 ar  
     9    5   12 1   
    10    6    8 1   
    11    7   21 1   
    12    7   22 1   
    13    8   24 1   
    14    8   25 1   
    15    8   26 1   
    16    9   10 1   
    17    9   36 1   
    18   10   11 1   
    19   10   13 2   
    20   11   12 2   
    21   11   14 1   
    22   14   20 1   
    23   14   33 1   
    24   14   34 1   
    25   15   27 1   
    26   15   28 1   
    27   15   29 1   
    28   15   36 1   
    29   16   30 1   
    30   16   31 1   
    31   16   32 1   
    32   16   36 1   
    33   17   18 3   
    34   18   35 1   
    35   19   20 3   
    36   23   36 1   
@<TRIPOS>SUBSTRUCTURE
     1 OAW         1 TEMP              0 ****  ****    0 ROOT
