@<TRIPOS>MOLECULE
OAW
   37    37     1     0     0
SMALL
bcc


@<TRIPOS>ATOM
      1 N1          0.0470   -0.7490   -0.1170 nb        1 OAW     -0.715000
      2 C2          1.3030   -0.2120   -0.0470 ca        1 OAW      0.738900
      3 N3          2.0490    0.0950    1.0420 nb        1 OAW     -0.733000
      4 C4          1.4590   -0.1750    2.2630 ca        1 OAW      0.579200
      5 C5          0.1200   -0.7470    2.3090 ca        1 OAW     -0.125200
      6 C6         -0.5460   -1.0180    1.0700 ca        1 OAW      0.561600
      7 N7          1.9470    0.0780   -1.3690 n4        1 OAW     -0.818300
      8 C9         -1.9180   -1.6070    1.0760 c3        1 OAW     -0.167400
      9 N10         2.1310    0.0940    3.4490 n         1 OAW     -0.412300
     10 C11         1.5060   -0.2220    4.6870 c         1 OAW      0.568200
     11 C12         0.1090   -0.7930    4.6260 cc        1 OAW      0.440300
     12 N13        -0.5200   -1.0320    3.5120 nd        1 OAW     -0.500100
     13 O14         2.0960   -0.0380    5.7560 o         1 OAW     -0.534500
     14 C15        -0.4970   -1.0360    5.9780 c3        1 OAW     -0.079600
     15 C16         3.5240    2.0270    4.1940 c3        1 OAW     -0.118100
     16 C17         4.5260   -0.2590    4.0590 c3        1 OAW     -0.118100
     17 C18        -1.4810    1.8050    7.4380 c1        1 OAW      0.391800
     18 N19        -1.9310    2.5800    8.1980 n1        1 OAW     -0.836200
     19 N20        -2.5820   -2.5970    5.9180 n1        1 OAW     -0.331800
     20 C21        -1.6500   -1.9030    5.9390 c1        1 OAW      0.208700
     21 HN7         2.8820    0.4820   -1.2290 hn        1 OAW      0.480467
     22 HN7A        2.0240   -0.7980   -1.8990 hn        1 OAW      0.480467
     23 H8          3.7890    0.8860    2.3900 h1        1 OAW      0.073700
     24 H9         -2.6100   -0.9230    1.6330 hc        1 OAW      0.093033
     25 H9A        -1.8930   -2.5910    1.6110 hc        1 OAW      0.093033
     26 H9B        -2.3190   -1.7660    0.0450 hc        1 OAW      0.093033
     27 H16         2.7810    2.7440    3.7710 hc        1 OAW      0.062033
     28 H16A        4.5470    2.4590    4.0720 hc        1 OAW      0.062033
     29 H16B        3.3230    1.8960    5.2860 hc        1 OAW      0.062033
     30 H17         5.5310    0.2170    3.9500 hc        1 OAW      0.062033
     31 H17A        4.5370   -1.2400    3.5280 hc        1 OAW      0.062033
     32 H17B        4.3330   -0.4350    5.1450 hc        1 OAW      0.062033
     33 H18        -0.7880   -0.0260    6.4180 hc        1 OAW      0.140700
     34 H21         0.2930   -1.4790    6.6530 hc        1 OAW      0.140700
     35 HN19       -2.3050    3.2130    8.8300 hn        1 OAW      0.453400
     36 C8          3.4840    0.6860    3.4600 c3        1 OAW      0.099700
     37 H73         1.3570    0.7400   -1.8880 hn        1 OAW      0.480467
@<TRIPOS>BOND
     1    1    2 ar  
     2    1    6 ar  
     3    2    3 ar  
     4    2    7 1   
     5    3    4 ar  
     6    4    5 ar  
     7    4    9 1   
     8    5    6 ar  
     9    5   12 1   
    10    6    8 1   
    11    7   21 1   
    12    7   22 1   
    13    7   37 1   
    14    8   24 1   
    15    8   25 1   
    16    8   26 1   
    17    9   10 1   
    18    9   36 1   
    19   10   11 1   
    20   10   13 2   
    21   11   12 2   
    22   11   14 1   
    23   14   20 1   
    24   14   33 1   
    25   14   34 1   
    26   15   27 1   
    27   15   28 1   
    28   15   29 1   
    29   15   36 1   
    30   16   30 1   
    31   16   31 1   
    32   16   32 1   
    33   16   36 1   
    34   17   18 3   
    35   18   35 1   
    36   19   20 3   
    37   23   36 1   
@<TRIPOS>SUBSTRUCTURE
     1 OAW         1 TEMP              0 ****  ****    0 ROOT
