@<TRIPOS>MOLECULE
OBA
   20    17     1     0     0
SMALL
bcc


@<TRIPOS>ATOM
      1 C1         -2.1580   -0.4570   -1.5130 c1        1 OBA     -0.124000
      2 C2         -0.7740   -0.5020   -1.4580 c1        1 OBA     -0.153500
      3 C3         -0.1230   -0.3560   -0.2430 c1        1 OBA      0.138200
      4 C4         -0.8570   -0.1650    0.9170 cg        1 OBA     -0.135200
      5 C5         -2.2410   -0.1200    0.8620 c1        1 OBA     -0.032500
      6 C6         -2.8920   -0.2660   -0.3530 c1        1 OBA     -0.124000
      7 C10        -0.1490   -0.0530    2.2490 c         1 OBA      0.858800
      8 O11         0.0420   -1.0810    2.9490 o         1 OBA     -0.845300
      9 O12         0.2320    1.0720    2.6660 o         1 OBA     -0.845300
     10 N13         1.2950   -0.3810   -0.1900 n         1 OBA     -0.471700
     11 C14         2.0350    0.8000   -0.4550 c         1 OBA      0.552100
     12 O15         1.4550    1.8320   -0.7270 o         1 OBA     -0.680100
     13 C16         3.5480    0.7610   -0.4520 c         1 OBA      0.888600
     14 O17         4.1690    0.3290   -1.4590 o         1 OBA     -0.813800
     15 O18         4.1860    1.1650    0.5550 o         1 OBA     -0.813800
     16 H1         -2.6160   -0.5600   -2.3690 ha        1 OBA      0.028000
     17 H2         -0.2570   -0.6370   -2.2760 ha        1 OBA      0.098500
     18 H5         -2.7580    0.0140    1.6790 ha        1 OBA      0.076500
     19 H6         -3.8670   -0.2370   -0.3910 ha        1 OBA      0.028000
     20 H13         1.7300   -1.1580    0.0080 hn        1 OBA      0.369500
@<TRIPOS>BOND
     1    1    6 3   
     2    1   16 1   
     3    2    3 3   
     4    2   17 1   
     5    3   10 1   
     6    4    5 3   
     7    4    7 1   
     8    5   18 1   
     9    6   19 1   
    10    7    8 1   
    11    7    9 1   
    12   10   11 1   
    13   10   20 1   
    14   11   12 2   
    15   11   13 1   
    16   13   14 1   
    17   13   15 1   
@<TRIPOS>SUBSTRUCTURE
     1 OBA         1 TEMP              0 ****  ****    0 ROOT
