@<TRIPOS>MOLECULE
OBA
   20    20     1     0     0
SMALL
bcc


@<TRIPOS>ATOM
      1 C1         -0.0790   -0.1480    0.0360 ca        1 OBA     -0.133000
      2 C2          1.2990    0.0220   -0.0090 ca        1 OBA     -0.211000
      3 C3          2.0670    0.1440    1.1790 ca        1 OBA      0.124600
      4 C4          1.3720    0.0840    2.4260 ca        1 OBA     -0.186600
      5 C5         -0.0130   -0.0800    2.4300 ca        1 OBA     -0.090000
      6 C6         -0.7490   -0.2000    1.2530 ca        1 OBA     -0.230000
      7 C10         2.0340    0.1800    3.7900 c         1 OBA      0.910200
      8 O11         3.2400   -0.1720    3.9380 o         1 OBA     -0.845300
      9 O12         1.3220    0.5850    4.7590 o         1 OBA     -0.845300
     10 N13         3.4510    0.3080    1.1420 n         1 OBA     -0.458100
     11 C14         4.2550    0.5590    0.0360 c         1 OBA      0.552100
     12 O15         3.7960    0.7090   -1.1180 o         1 OBA     -0.680100
     13 C16         5.7960    0.6500    0.2800 c         1 OBA      0.888600
     14 O17         6.4510   -0.4150    0.1520 o         1 OBA     -0.813800
     15 O18         6.2660    1.7870    0.5350 o         1 OBA     -0.813800
     16 H1         -0.6390   -0.2410   -0.9060 ha        1 OBA      0.085000
     17 H2          1.7950    0.0620   -0.9910 ha        1 OBA      0.156000
     18 H5         -0.5200   -0.0990    3.4090 ha        1 OBA      0.134000
     19 H6         -1.8380   -0.3300    1.2890 ha        1 OBA      0.086000
     20 H13         3.9130    0.2420    2.0360 hn        1 OBA      0.369500
@<TRIPOS>BOND
     1    1    2 ar  
     2    1    6 ar  
     3    1   16 1   
     4    2    3 ar  
     5    2   17 1   
     6    3    4 ar  
     7    3   10 1   
     8    4    5 ar  
     9    4    7 1   
    10    5    6 ar  
    11    5   18 1   
    12    6   19 1   
    13    7    8 1   
    14    7    9 1   
    15   10   11 1   
    16   10   20 1   
    17   11   12 2   
    18   11   13 1   
    19   13   14 1   
    20   13   15 1   
@<TRIPOS>SUBSTRUCTURE
     1 OBA         1 TEMP              0 ****  ****    0 ROOT
