@<TRIPOS>MOLECULE
OBA
   20    20     1     0     0
SMALL
bcc


@<TRIPOS>ATOM
      1 C1         -2.5430    0.2170   -1.9780 ca        1 OBA     -0.133000
      2 C2         -1.9560    0.2340   -0.7200 ca        1 OBA     -0.211000
      3 C3         -0.5520    0.0990   -0.5570 ca        1 OBA      0.124600
      4 C4          0.2390   -0.0530   -1.7360 ca        1 OBA     -0.186600
      5 C5         -0.3860   -0.0720   -2.9820 ca        1 OBA     -0.090000
      6 C6         -1.7660    0.0640   -3.1220 ca        1 OBA     -0.230000
      7 C10         1.7520   -0.1930   -1.7510 c         1 OBA      0.910200
      8 O11         2.4450    0.2980   -0.8120 o         1 OBA     -0.845300
      9 O12         2.2770   -0.7790   -2.7460 o         1 OBA     -0.845300
     10 N13         0.0440    0.1220    0.7030 n         1 OBA     -0.458100
     11 C14        -0.5780    0.0850    1.9470 c         1 OBA      0.552100
     12 O15        -1.8170   -0.0130    2.0840 o         1 OBA     -0.680100
     13 C16         0.3420    0.1730    3.2070 c         1 OBA      0.888600
     14 O17         0.5560    1.3220    3.6700 o         1 OBA     -0.813800
     15 O18         0.7540   -0.9120    3.6880 o         1 OBA     -0.813800
     16 H1         -3.6340    0.3270   -2.0640 ha        1 OBA      0.085000
     17 H2         -2.6030    0.3530    0.1640 ha        1 OBA      0.156000
     18 H5          0.2520   -0.2130   -3.8710 ha        1 OBA      0.134000
     19 H6         -2.2300    0.0470   -4.1160 ha        1 OBA      0.086000
     20 H13         1.0520    0.1600    0.6980 hn        1 OBA      0.369500
@<TRIPOS>BOND
     1    1    2 ar  
     2    1    6 ar  
     3    1   16 1   
     4    2    3 ar  
     5    2   17 1   
     6    3    4 ar  
     7    3   10 1   
     8    4    5 ar  
     9    4    7 1   
    10    5    6 ar  
    11    5   18 1   
    12    6   19 1   
    13    7    8 1   
    14    7    9 1   
    15   10   11 1   
    16   10   20 1   
    17   11   12 2   
    18   11   13 1   
    19   13   14 1   
    20   13   15 1   
@<TRIPOS>SUBSTRUCTURE
     1 OBA         1 TEMP              0 ****  ****    0 ROOT
