@<TRIPOS>MOLECULE
OBA
   21    21     1     0     0
SMALL
bcc


@<TRIPOS>ATOM
      1 C1          0.3980   -0.0470   -0.1450 ca        1 OBA     -0.138000
      2 C2          1.7570    0.1140    0.0980 ca        1 OBA     -0.130000
      3 C3          2.2260    0.1660    1.4250 ca        1 OBA      0.008600
      4 C4          1.3320    0.0510    2.5090 ca        1 OBA     -0.120600
      5 C5         -0.0310   -0.1110    2.2280 ca        1 OBA     -0.102000
      6 C6         -0.4980   -0.1600    0.9190 ca        1 OBA     -0.134000
      7 C10         1.7490    0.0920    3.9770 c         1 OBA      0.910200
      8 O11         0.8570   -0.0950    4.8410 o         1 OBA     -0.809800
      9 O12         2.9690    0.3110    4.2590 o         1 OBA     -0.809800
     10 N13         3.6570    0.3290    1.6750 n4        1 OBA     -0.570200
     11 C14         4.3870    1.0890    0.5860 c         1 OBA      0.401100
     12 O15         4.4590    2.3000    0.7140 o         1 OBA     -0.490100
     13 C16         5.0250    0.1490   -0.5310 c         1 OBA      0.908600
     14 O17         4.6350    0.3930   -1.6850 o         1 OBA     -0.732300
     15 O18         5.7980   -0.7120   -0.0700 o         1 OBA     -0.732300
     16 H1          0.0350   -0.0860   -1.1820 ha        1 OBA      0.129000
     17 H2          2.4570    0.2000   -0.7550 ha        1 OBA      0.173000
     18 H5         -0.7200   -0.2020    3.0860 ha        1 OBA      0.169000
     19 H6         -1.5720   -0.2880    0.7210 ha        1 OBA      0.122000
     20 H13         3.7660    0.7870    2.6120 hn        1 OBA      0.474800
     21 H132        4.0820   -0.6040    1.7320 hn        1 OBA      0.474800
@<TRIPOS>BOND
     1    1    2 ar  
     2    1    6 ar  
     3    1   16 1   
     4    2    3 ar  
     5    2   17 1   
     6    3    4 ar  
     7    3   10 1   
     8    4    5 ar  
     9    4    7 1   
    10    5    6 ar  
    11    5   18 1   
    12    6   19 1   
    13    7    8 1   
    14    7    9 1   
    15   10   11 1   
    16   10   20 1   
    17   10   21 1   
    18   11   12 2   
    19   11   13 1   
    20   13   14 1   
    21   13   15 1   
@<TRIPOS>SUBSTRUCTURE
     1 OBA         1 TEMP              0 ****  ****    0 ROOT
