@<TRIPOS>MOLECULE
OBD
   57    59     1     0     0
SMALL
bcc


@<TRIPOS>ATOM
      1 C10         0.0050   -1.6790    0.1760 c2        1 OBD     -0.324000
      2 N12         1.9400   -1.1140    1.1100 na        1 OBD     -0.138000
      3 C13         3.3160   -0.6830    1.4220 c3        1 OBD      0.044000
      4 C20         5.3760   -1.3250    2.6670 c2        1 OBD     -0.149000
      5 C21         5.1950   -0.8340    4.0620 c3        1 OBD     -0.190000
      6 C22         6.3640   -0.2970    4.7480 c1        1 OBD     -0.039000
      7 C24         8.7670    0.1380    4.7740 ca        1 OBD     -0.004000
      8 C26        10.1490   -0.4160    2.8700 ca        1 OBD     -0.060000
      9 C28         7.7740   -0.8590    2.7820 ca        1 OBD     -0.009000
     10 O18         3.5390    3.1780    0.8870 o         1 OBD     -0.031700
     11 N17         4.0030    2.5010    0.0870 n2        1 OBD      0.147700
     12 O16         2.4030    1.1470   -1.0500 o         1 OBD     -0.292000
     13 C14         4.0360   -0.0570    0.2240 c3        1 OBD     -0.227000
     14 C19         4.1700   -1.8480    1.9700 c3        1 OBD     -0.135000
     15 C29         6.5960   -1.3430    2.0900 c2        1 OBD     -0.108000
     16 C27         9.0350   -0.8930    2.1790 ca        1 OBD     -0.149000
     17 C25        10.0170    0.0990    4.1610 ca        1 OBD     -0.160000
     18 C23         7.6300   -0.3400    4.0970 ca        1 OBD     -0.160000
     19 C11         1.3380   -1.2310   -0.1180 c2        1 OBD      0.038000
     20 N30         1.0450   -1.4850    2.1020 n2        1 OBD      0.065000
     21 N31        -0.0570   -1.8100    1.6060 n2        1 OBD      0.008000
     22 C09        -1.1010   -1.9330   -0.6660 c2        1 OBD      0.256000
     23 N08        -1.0970   -1.7520   -1.9770 n         1 OBD     -0.250000
     24 C06        -2.2160   -2.0040   -2.8830 c2        1 OBD      0.304000
     25 O07        -1.9680   -1.7340   -4.0520 o         1 OBD     -0.191000
     26 C05        -3.5150   -2.5440   -2.3260 c3        1 OBD     -0.047000
     27 C04        -4.6900   -2.3880   -3.2700 c2        1 OBD     -0.138000
     28 C03        -4.8540   -3.4620   -4.0180 c1        1 OBD     -0.082000
     29 C02        -4.4220   -4.7230   -3.9990 c2        1 OBD     -0.029000
     30 C01        -4.3200   -5.6860   -5.0990 c3        1 OBD     -0.177000
     31 C33        -3.8800   -5.0290   -2.6570 c2        1 OBD     -0.049000
     32 C32        -3.3590   -4.0030   -1.9460 c2        1 OBD     -0.229000
     33 H13         3.2150    0.0990    2.2390 h1        1 OBD      0.152000
     34 H21         4.3920   -0.0420    4.1010 hc        1 OBD      0.151500
     35 H22         4.8250   -1.6850    4.7140 hc        1 OBD      0.151500
     36 H24         8.6480    0.5400    5.7940 ha        1 OBD      0.165000
     37 H26        10.9040    0.4710    4.6960 ha        1 OBD      0.152000
     38 H14         5.0930    0.1530    0.5570 hc        1 OBD      0.148000
     39 H14A        4.1020   -0.7810   -0.6320 hc        1 OBD      0.148000
     40 H19         4.4610   -2.5250    1.1230 hc        1 OBD      0.114500
     41 H19A        3.5710   -2.4560    2.7030 hc        1 OBD      0.114500
     42 H29         6.7470   -1.7360    1.0700 ha        1 OBD      0.129000
     43 H27         9.1520   -1.2980    1.1630 ha        1 OBD      0.139000
     44 H25        11.1420   -0.4470    2.3920 ha        1 OBD      0.147000
     45 H11         1.8150   -0.9810   -1.0770 h4        1 OBD      0.241000
     46 H09         1.3090   -0.1480   -2.9720 ha        1 OBD      0.003500
     47 H09A        1.4420    0.4900   -3.1620 ha        1 OBD      0.003500
     48 HN08       -2.0390   -2.3080   -0.1830 h4        1 OBD      0.213000
     49 H04        -3.8000   -1.9570   -1.4030 hc        1 OBD      0.142000
     50 H03        -5.3540   -1.5270   -3.1650 ha        1 OBD      0.181000
     51 H01        -4.1950   -5.1610   -6.0800 hc        1 OBD      0.107333
     52 H01A       -3.4570   -6.3820   -4.9470 hc        1 OBD      0.107333
     53 H01B       -5.2590   -6.2980   -5.1480 hc        1 OBD      0.107333
     54 H33        -3.8050   -6.0790   -2.3390 ha        1 OBD      0.166000
     55 H32        -2.8090   -4.1890   -1.0120 ha        1 OBD      0.132000
     56 C15         3.3580    1.2030   -0.2630 c2        1 OBD      0.126000
     57 H082       -0.2690   -1.3910   -2.4340 hn        1 OBD      0.267000
@<TRIPOS>BOND
     1    1   19 1   
     2    1   21 1   
     3    1   22 1   
     4    2    3 1   
     5    2   19 1   
     6    2   20 1   
     7    3   13 1   
     8    3   14 1   
     9    3   33 1   
    10    4    5 1   
    11    4   14 1   
    12    4   15 1   
    13    5    6 1   
    14    5   34 1   
    15    5   35 1   
    16    6   18 1   
    17    7   17 1   
    18    7   18 1   
    19    7   36 1   
    20    8   16 1   
    21    8   17 1   
    22    8   44 1   
    23    9   15 1   
    24    9   16 1   
    25    9   18 1   
    26   10   11 2   
    27   11   56 1   
    28   12   56 1   
    29   13   38 1   
    30   13   39 1   
    31   13   56 1   
    32   14   40 1   
    33   14   41 1   
    34   15   42 1   
    35   16   43 1   
    36   17   37 1   
    37   19   45 1   
    38   20   21 1   
    39   22   23 1   
    40   22   48 1   
    41   23   24 1   
    42   23   57 1   
    43   24   25 1   
    44   24   26 1   
    45   26   27 1   
    46   26   32 1   
    47   26   49 1   
    48   27   28 1   
    49   27   50 1   
    50   28   29 1   
    51   29   30 1   
    52   29   31 1   
    53   30   51 1   
    54   30   52 1   
    55   30   53 1   
    56   31   32 1   
    57   31   54 1   
    58   32   55 1   
    59   46   47 1   
@<TRIPOS>SUBSTRUCTURE
     1 OBD         1 TEMP              0 ****  ****    0 ROOT
