@<TRIPOS>MOLECULE
OBD
   56    59     1     0     0
SMALL
bcc


@<TRIPOS>ATOM
      1 C10         1.9060   -1.5450    0.2090 cc        1 OBD      0.224600
      2 N12        -0.1870   -0.9930    0.6830 na        1 OBD      0.039400
      3 C13        -1.6040   -0.6620    0.5770 c3        1 OBD      0.071000
      4 C20        -3.2240    1.0980   -0.1440 ca        1 OBD     -0.094300
      5 C21        -3.6020    1.7080    1.0830 ca        1 OBD     -0.126000
      6 C22        -4.8670    2.2100    1.2510 ca        1 OBD     -0.107000
      7 C24        -7.1410    2.6470    0.3500 ca        1 OBD     -0.116000
      8 C26        -7.6680    1.9620   -1.9110 ca        1 OBD     -0.122000
      9 C28        -5.4500    1.5320   -1.0270 ca        1 OBD     -0.037000
     10 O18        -3.5980   -4.9040    0.4200 o         1 OBD     -0.069700
     11 N17        -2.6060   -4.3260    0.4880 n2        1 OBD      0.104700
     12 O16        -2.6190   -2.7360    2.2500 o         1 OBD     -0.480100
     13 C14        -2.4250   -1.8350    0.0170 c3        1 OBD     -0.179400
     14 C19        -1.8360    0.5850   -0.3010 c3        1 OBD     -0.052100
     15 C29        -4.1340    1.0170   -1.1760 ca        1 OBD     -0.115000
     16 C27        -6.4020    1.4580   -2.0810 ca        1 OBD     -0.119000
     17 C25        -8.0420    2.5620   -0.6840 ca        1 OBD     -0.123000
     18 C23        -5.8240    2.1340    0.2010 ca        1 OBD     -0.034000
     19 C11         0.6380   -1.4010   -0.3780 cd        1 OBD     -0.210600
     20 N30         0.5550   -0.8820    1.8150 nd        1 OBD     -0.146800
     21 N31         1.7590   -1.1970    1.5770 nc        1 OBD     -0.361000
     22 C09         3.1820   -1.9830   -0.4200 c3        1 OBD      0.071700
     23 N08         4.3150   -1.1540   -0.1190 n         1 OBD     -0.545900
     24 C06         4.7340   -0.1580   -0.9910 c         1 OBD      0.666700
     25 O07         4.3120   -0.1110   -2.1650 o         1 OBD     -0.608100
     26 C05         5.7730    0.7900   -0.4970 ca        1 OBD     -0.147600
     27 C04         6.7950    1.1700   -1.3750 ca        1 OBD     -0.086000
     28 C03         7.7780    2.0620   -0.9570 ca        1 OBD     -0.140500
     29 C02         7.7490    2.5930    0.3390 ca        1 OBD     -0.053300
     30 C01         8.7860    3.5540    0.7780 c3        1 OBD     -0.059800
     31 C33         6.7170    2.2180    1.2080 ca        1 OBD     -0.140500
     32 C32         5.7340    1.3210    0.7950 ca        1 OBD     -0.086000
     33 H13        -1.9830   -0.4390    1.6240 h1        1 OBD      0.117700
     34 H21        -2.8600    1.7730    1.8940 ha        1 OBD      0.141000
     35 H22        -5.1630    2.6830    2.2010 ha        1 OBD      0.139000
     36 H24        -7.4220    3.1110    1.3070 ha        1 OBD      0.136000
     37 H26        -8.4070    1.9080   -2.7250 ha        1 OBD      0.135000
     38 H14        -3.4540   -1.4490   -0.2260 hc        1 OBD      0.091700
     39 H14A       -1.9690   -2.2190   -0.9320 hc        1 OBD      0.091700
     40 H19        -1.1170    1.3950   -0.0000 hc        1 OBD      0.067200
     41 H19A       -1.6280    0.3310   -1.3740 hc        1 OBD      0.067200
     42 H29        -3.8560    0.5590   -2.1380 ha        1 OBD      0.132000
     43 H27        -6.1030    0.9930   -3.0320 ha        1 OBD      0.133000
     44 H25        -9.0620    2.9580   -0.5720 ha        1 OBD      0.136000
     45 H11         0.2830   -1.5440   -1.3960 h4        1 OBD      0.192000
     46 H09         3.4170   -3.0270   -0.0530 h1        1 OBD      0.076700
     47 H09A        3.0380   -2.0170   -1.5390 h1        1 OBD      0.076700
     48 HN08        4.5480   -1.0590    0.8440 hn        1 OBD      0.316500
     49 H04         6.8050    0.7630   -2.4000 ha        1 OBD      0.146000
     50 H03         8.5820    2.3530   -1.6490 ha        1 OBD      0.137000
     51 H01         8.4640    4.5980    0.5340 hc        1 OBD      0.048033
     52 H01A        8.9520    3.4880    1.8810 hc        1 OBD      0.048033
     53 H01B        9.7580    3.3580    0.2610 hc        1 OBD      0.048033
     54 H33         6.6820    2.6360    2.2250 ha        1 OBD      0.137000
     55 H32         4.9230    1.0540    1.4910 ha        1 OBD      0.146000
     56 C15        -2.5880   -2.9370    1.0330 c         1 OBD      0.425100
@<TRIPOS>BOND
     1    1   19 2   
     2    1   21 1   
     3    1   22 1   
     4    2    3 1   
     5    2   19 1   
     6    2   20 1   
     7    3   13 1   
     8    3   14 1   
     9    3   33 1   
    10    4    5 ar  
    11    4   14 1   
    12    4   15 ar  
    13    5    6 ar  
    14    5   34 1   
    15    6   18 ar  
    16    6   35 1   
    17    7   17 ar  
    18    7   18 ar  
    19    7   36 1   
    20    8   16 ar  
    21    8   17 ar  
    22    8   37 1   
    23    9   15 ar  
    24    9   16 ar  
    25    9   18 ar  
    26   10   11 2   
    27   11   56 1   
    28   12   56 2   
    29   13   38 1   
    30   13   39 1   
    31   13   56 1   
    32   14   40 1   
    33   14   41 1   
    34   15   42 1   
    35   16   43 1   
    36   17   44 1   
    37   19   45 1   
    38   20   21 2   
    39   22   23 1   
    40   22   46 1   
    41   22   47 1   
    42   23   24 1   
    43   23   48 1   
    44   24   25 2   
    45   24   26 1   
    46   26   27 ar  
    47   26   32 ar  
    48   27   28 ar  
    49   27   49 1   
    50   28   29 ar  
    51   28   50 1   
    52   29   30 1   
    53   29   31 ar  
    54   30   51 1   
    55   30   52 1   
    56   30   53 1   
    57   31   32 ar  
    58   31   54 1   
    59   32   55 1   
@<TRIPOS>SUBSTRUCTURE
     1 OBD         1 TEMP              0 ****  ****    0 ROOT
