@<TRIPOS>MOLECULE
OBD
   57    59     1     0     0
SMALL
bcc


@<TRIPOS>ATOM
      1 C10        -0.6610   -0.7810    0.8070 c2        1 OBD     -0.319000
      2 N12         1.4290   -0.4240    1.4660 na        1 OBD     -0.139000
      3 C13         2.8920   -0.2880    1.5950 c3        1 OBD      0.044000
      4 C20         4.8770   -1.0910    2.8700 c2        1 OBD     -0.144000
      5 C21         5.0070   -0.1940    4.0520 c3        1 OBD     -0.191000
      6 C22         6.3520    0.1680    4.4830 c1        1 OBD     -0.038000
      7 C24         8.7700   -0.0850    4.2530 ca        1 OBD     -0.004000
      8 C26         9.7110   -1.5090    2.5420 ca        1 OBD     -0.061000
      9 C28         7.3100   -1.2880    2.7140 ca        1 OBD     -0.008000
     10 O18         4.4940    2.7150   -1.0760 o         1 OBD     -0.021700
     11 N17         3.7400    2.2640   -0.3400 n2        1 OBD      0.132700
     12 O16         2.1670    0.8030   -1.3790 o         1 OBD     -0.287000
     13 C14         3.6040   -0.2210    0.2410 c3        1 OBD     -0.226000
     14 C19         3.4990   -1.4370    2.4290 c3        1 OBD     -0.138000
     15 C29         5.9690   -1.6040    2.2640 c2        1 OBD     -0.111000
     16 C27         8.4340   -1.8360    2.0870 ca        1 OBD     -0.151000
     17 C25         9.8800   -0.6370    3.6190 ca        1 OBD     -0.160000
     18 C23         7.4720   -0.4020    3.8130 ca        1 OBD     -0.160000
     19 C11         0.7070   -0.8240    0.3700 c2        1 OBD      0.038000
     20 N30         0.5690   -0.1700    2.5240 n2        1 OBD      0.064000
     21 N31        -0.6190   -0.3620    2.1830 n2        1 OBD      0.014000
     22 C09        -1.8700   -1.0340    0.1240 c2        1 OBD      0.265000
     23 N08        -1.9480   -1.3770   -1.1570 n         1 OBD     -0.254000
     24 C06        -3.2090   -1.6250   -1.8350 c2        1 OBD      0.331000
     25 O07        -4.2470   -1.5630   -1.1860 o         1 OBD     -0.213000
     26 C05        -3.0890   -1.9050   -3.3130 c3        1 OBD     -0.154000
     27 C04        -4.3070   -2.5430   -3.9510 c2        1 OBD     -0.145000
     28 C03        -4.1120   -3.8290   -4.1620 c1        1 OBD     -0.122000
     29 C02        -3.0730   -4.6520   -4.1970 c2        1 OBD     -0.059000
     30 C01        -3.0230   -6.0930   -3.9350 c3        1 OBD     -0.177000
     31 C33        -1.8000   -3.8540   -4.4190 c3        1 OBD     -0.202000
     32 C32        -1.8220   -2.6280   -3.6210 c1        1 OBD     -0.044000
     33 H13         3.0670    0.6890    2.1490 h1        1 OBD      0.160000
     34 H21         4.4410    0.7680    3.8820 hc        1 OBD      0.153500
     35 H22         4.5210   -0.6850    4.9510 hc        1 OBD      0.153500
     36 H24         8.8880    0.6040    5.1060 ha        1 OBD      0.166000
     37 H26        10.8940   -0.3880    3.9690 ha        1 OBD      0.151000
     38 H14         4.7060   -0.1300    0.4570 hc        1 OBD      0.145000
     39 H14A        3.4570   -1.1740   -0.3370 hc        1 OBD      0.145000
     40 H19         3.4990   -2.3780    1.8150 hc        1 OBD      0.113500
     41 H19A        2.8690   -1.6230    3.3420 hc        1 OBD      0.113500
     42 H29         5.8830   -2.2940    1.4080 ha        1 OBD      0.127000
     43 H27         8.3130   -2.5260    1.2390 ha        1 OBD      0.137000
     44 H25        10.5940   -1.9460    2.0470 ha        1 OBD      0.146000
     45 H11         1.1420   -1.0690   -0.6070 h4        1 OBD      0.236000
     46 H09         2.6990   -3.6110   -0.2890 ha        1 OBD      0.001000
     47 H09A       -2.8340   -0.9340    0.6920 h4        1 OBD      0.232000
     48 HN08        2.3000   -3.0700   -0.2020 ha        1 OBD      0.001000
     49 H04        -2.9720   -0.8890   -3.8220 hc        1 OBD      0.195000
     50 H03        -5.1330   -1.9130   -4.2920 ha        1 OBD      0.185000
     51 H01        -3.9170   -6.4250   -3.3480 hc        1 OBD      0.105667
     52 H01A       -2.0980   -6.3700   -3.3720 hc        1 OBD      0.105667
     53 H01B       -3.0210   -6.6510   -4.9090 hc        1 OBD      0.105667
     54 H33        -0.9050   -4.4780   -4.1400 hc        1 OBD      0.173000
     55 H32        -1.6530   -3.5540   -5.5000 hc        1 OBD      0.173000
     56 C15         3.1250    0.9340   -0.6070 c2        1 OBD      0.126000
     57 H082       -1.1210   -1.4910   -1.7300 hn        1 OBD      0.290000
@<TRIPOS>BOND
     1    1   19 1   
     2    1   21 1   
     3    1   22 1   
     4    2    3 1   
     5    2   19 1   
     6    2   20 1   
     7    3   13 1   
     8    3   14 1   
     9    3   33 1   
    10    4    5 1   
    11    4   14 1   
    12    4   15 1   
    13    5    6 1   
    14    5   34 1   
    15    5   35 1   
    16    6   18 1   
    17    7   17 1   
    18    7   18 1   
    19    7   36 1   
    20    8   16 1   
    21    8   17 1   
    22    8   44 1   
    23    9   15 1   
    24    9   16 1   
    25    9   18 1   
    26   10   11 2   
    27   11   56 1   
    28   12   56 1   
    29   13   38 1   
    30   13   39 1   
    31   13   56 1   
    32   14   40 1   
    33   14   41 1   
    34   15   42 1   
    35   16   43 1   
    36   17   37 1   
    37   19   45 1   
    38   20   21 1   
    39   22   23 1   
    40   22   47 1   
    41   23   24 1   
    42   23   57 1   
    43   24   25 1   
    44   24   26 1   
    45   26   27 1   
    46   26   32 1   
    47   26   49 1   
    48   27   28 1   
    49   27   50 1   
    50   28   29 1   
    51   29   30 1   
    52   29   31 1   
    53   30   51 1   
    54   30   52 1   
    55   30   53 1   
    56   31   32 1   
    57   31   54 1   
    58   31   55 1   
    59   46   48 1   
@<TRIPOS>SUBSTRUCTURE
     1 OBD         1 TEMP              0 ****  ****    0 ROOT
