@<TRIPOS>MOLECULE
OBD
   56    48     1     0     0
SMALL
bcc


@<TRIPOS>ATOM
      1 C10        -1.1380    0.7550   -0.2220 c1        1 OBD     -0.152000
      2 N12         1.0530    1.0550   -0.1430 n2        1 OBD     -0.137000
      3 C13         2.4250    1.0590    0.3100 c2        1 OBD      0.061000
      4 C15         2.7700    3.3980   -0.3360 c1        1 OBD      0.135000
      5 C20         3.7100   -0.7080    1.5640 c1        1 OBD     -0.063000
      6 C21         5.0980   -0.6170    1.7190 c1        1 OBD     -0.123500
      7 C22         5.6810   -0.9380    2.9380 c1        1 OBD     -0.114500
      8 C24         5.4570   -1.6140    5.2600 c1        1 OBD     -0.114500
      9 C26         3.2770   -2.0510    6.1810 c1        1 OBD     -0.122500
     10 C28         3.5080   -1.4420    3.8610 c1        1 OBD     -0.063000
     11 O18         2.7340    5.5640   -1.1040 o         1 OBD     -0.118000
     12 N17         3.0750    4.4030   -1.3000 n1        1 OBD      0.165000
     13 O16         2.1810    3.6920    0.6800 o         1 OBD     -0.268000
     14 C14         3.2340    1.9920   -0.5500 c3        1 OBD     -0.211000
     15 C19         2.9960   -0.3350    0.2080 c2        1 OBD     -0.130000
     16 C29         2.9170   -1.1170    2.6260 c2        1 OBD     -0.108000
     17 C27         2.7020   -1.7930    4.9520 c1        1 OBD     -0.123500
     18 C25         4.6590   -1.9620    6.3380 c1        1 OBD     -0.122500
     19 C23         4.8770   -1.3530    4.0150 c1        1 OBD     -0.035000
     20 C11        -0.0280    0.7700    0.6100 c1        1 OBD     -0.152000
     21 N30         0.6360    1.2170   -1.4330 n2        1 OBD     -0.004000
     22 N31        -0.7240    1.0290   -1.4680 n2        1 OBD     -0.137000
     23 C09        -2.5880    0.4510    0.2070 c2        1 OBD      0.051000
     24 N08        -3.5060    0.8110   -0.8730 n         1 OBD     -0.356000
     25 C06        -4.7370    0.1000   -1.0290 c2        1 OBD      0.339000
     26 O07        -5.3050   -0.3490   -0.0540 o         1 OBD     -0.366000
     27 C05        -5.2470   -0.2170   -2.4070 c2        1 OBD     -0.128000
     28 C04        -4.6600   -1.2370   -3.1380 c2        1 OBD     -0.075000
     29 C03        -5.0150   -1.4360   -4.4630 c1        1 OBD     -0.142000
     30 C02        -5.9570   -0.6150   -5.0590 c1        1 OBD     -0.046000
     31 C01        -6.4270   -0.9040   -6.5250 c3        1 OBD     -0.184000
     32 C33        -6.5480    0.4090   -4.3270 c1        1 OBD     -0.142000
     33 C32        -6.1920    0.6070   -3.0020 c1        1 OBD     -0.095000
     34 H13         2.4610    1.3610    1.2440 ha        1 OBD      0.130000
     35 H21         5.6550   -0.4380    0.9540 ha        1 OBD      0.135000
     36 H22         6.6590   -0.8760    3.0470 ha        1 OBD      0.136000
     37 H24         6.4100   -1.5510    5.3690 ha        1 OBD      0.136000
     38 H26         2.7130   -2.2970    6.9440 ha        1 OBD      0.135500
     39 H14         4.1910    1.9200   -0.3070 hc        1 OBD      0.140500
     40 H14A        3.1190    1.7500   -1.4890 hc        1 OBD      0.140500
     41 H19         3.6490   -0.3680   -0.5250 ha        1 OBD      0.114000
     42 H19A        2.2810   -0.9660    0.0330 ha        1 OBD      0.114000
     43 H29         1.9570   -1.1770    2.5180 ha        1 OBD      0.136000
     44 H27         1.7180   -1.8590    4.8410 ha        1 OBD      0.135000
     45 H25         5.0620   -2.1430    7.2030 ha        1 OBD      0.135500
     46 H11        -0.0310    0.6020    1.5880 DU        1 OBD      0.209000
     47 H09        -2.6780   -0.5070    0.4040 h4        1 OBD      0.116000
     48 H09A       -2.8110    0.9830    1.0260 h4        1 OBD      0.116000
     49 HN08       -3.2800    1.4880   -1.4720 hn        1 OBD      0.229000
     50 H04        -4.0030   -1.8090   -2.7250 ha        1 OBD      0.153000
     51 H03        -4.6000   -2.1550   -4.9770 ha        1 OBD      0.137000
     52 H01        -5.6910   -1.3140   -7.0300 hc        1 OBD      0.087000
     53 H01A       -6.6890   -0.0670   -6.9540 hc        1 OBD      0.087000
     54 H01B       -7.1950   -1.5180   -6.5090 hc        1 OBD      0.087000
     55 H33        -7.2020    0.9790   -4.7390 ha        1 OBD      0.136000
     56 H32        -6.6110    1.3350   -2.4800 ha        1 OBD      0.139000
@<TRIPOS>BOND
     1    1   20 1   
     2    1   22 1   
     3    2   20 1   
     4    2   21 1   
     5    3   14 1   
     6    3   15 1   
     7    3   34 1   
     8    4   13 1   
     9    4   14 1   
    10    5    6 1   
    11    5   16 1   
    12    6   35 1   
    13    7   19 1   
    14    7   36 1   
    15    8   19 1   
    16    8   37 1   
    17    9   18 1   
    18    9   38 1   
    19   10   16 1   
    20   10   17 1   
    21   11   12 1   
    22   14   39 1   
    23   14   40 1   
    24   15   41 1   
    25   15   42 1   
    26   16   43 1   
    27   17   44 1   
    28   18   45 1   
    29   21   22 1   
    30   23   24 1   
    31   23   47 1   
    32   23   48 1   
    33   24   25 1   
    34   24   49 1   
    35   25   26 1   
    36   25   27 1   
    37   27   28 1   
    38   27   33 1   
    39   28   29 1   
    40   28   50 1   
    41   29   51 1   
    42   30   31 1   
    43   30   32 1   
    44   31   52 1   
    45   31   53 1   
    46   31   54 1   
    47   32   55 1   
    48   33   56 1   
@<TRIPOS>SUBSTRUCTURE
     1 OBD         1 TEMP              0 ****  ****    0 ROOT
