@<TRIPOS>MOLECULE
OBD
   57    58     1     0     0
SMALL
bcc


@<TRIPOS>ATOM
      1 C10         0.7350   -1.3740   -1.0490 c2        1 OBD     -0.325000
      2 N12         2.6910   -1.1790   -0.0250 na        1 OBD     -0.143000
      3 C13         3.8210   -0.7140    0.7980 c3        1 OBD      0.051000
      4 C20         5.4300   -1.4000    2.5710 c2        1 OBD     -0.140000
      5 C21         4.7400   -1.1570    3.8670 c3        1 OBD     -0.187000
      6 C22         5.5450   -0.6660    4.9780 c1        1 OBD     -0.045000
      7 C24         7.6810   -0.0660    5.9640 c2        1 OBD      0.114000
      8 C26         9.5690   -0.2380    4.5340 c1        1 OBD     -0.052000
      9 C28         7.5920   -0.8020    3.5590 c2        1 OBD     -0.020000
     10 O18         5.5220    3.3290   -0.6850 o         1 OBD     -0.027700
     11 N17         5.0340    2.4150   -1.1740 n2        1 OBD      0.132700
     12 O16         2.9890    1.7670   -0.1400 o         1 OBD     -0.304000
     13 C14         4.7870    0.1690   -0.0030 c3        1 OBD     -0.223000
     14 C19         4.5970   -1.8830    1.4360 c3        1 OBD     -0.133000
     15 C29         6.7660   -1.2420    2.4530 c2        1 OBD     -0.110000
     16 C27         8.9950   -0.6690    3.3630 c2        1 OBD     -0.046000
     17 C25         9.0060    0.0170    5.6300 c1        1 OBD     -0.135000
     18 C23         6.9480   -0.5140    4.8150 c2        1 OBD     -0.178000
     19 C11         1.4640   -0.5630   -0.1150 c2        1 OBD      0.069000
     20 N30         2.7260   -2.2860   -0.8480 n2        1 OBD      0.060000
     21 N31         1.6300   -2.4260   -1.4410 n2        1 OBD     -0.020000
     22 C09        -0.5850   -1.1940   -1.5140 c2        1 OBD      0.254000
     23 N08        -1.1900   -1.9830   -2.3920 ns        1 OBD     -0.233000
     24 C06        -2.5560   -1.7570   -2.8370 c2        1 OBD      0.330000
     25 O07        -3.1780   -0.8180   -2.3490 o         1 OBD     -0.226000
     26 C05        -3.0500   -2.7050   -3.9010 c3        1 OBD     -0.154000
     27 C04        -4.5570   -2.7890   -4.0410 c2        1 OBD     -0.148000
     28 C03        -5.0220   -3.8960   -3.4990 c1        1 OBD     -0.126000
     29 C02        -4.5200   -5.0540   -3.0900 c2        1 OBD     -0.058000
     30 C01        -5.0240   -5.9710   -2.0660 c3        1 OBD     -0.178000
     31 C33        -3.1710   -5.2840   -3.7480 c3        1 OBD     -0.203000
     32 C32        -2.4000   -4.0410   -3.7800 c1        1 OBD     -0.034000
     33 H13         3.3530   -0.0860    1.6180 h1        1 OBD      0.137000
     34 H21         3.8880   -0.4290    3.7300 hc        1 OBD      0.150000
     35 H22         4.2740   -2.1230    4.2320 hc        1 OBD      0.150000
     36 H24         7.2000    0.1550    6.9230 ha        1 OBD      0.189000
     37 H26        11.8830   -0.0810    4.0490 ha        1 OBD      0.002000
     38 H14         5.1360   -0.3540   -0.9350 hc        1 OBD      0.155500
     39 H14A        5.6920    0.3460    0.6450 hc        1 OBD      0.155500
     40 H19         5.2340   -2.3760    0.6540 hc        1 OBD      0.119000
     41 H19A        3.8790   -2.6560    1.8220 hc        1 OBD      0.119000
     42 H29         7.2870   -1.4540    1.5030 ha        1 OBD      0.135000
     43 H27         9.5060   -0.8890    2.4220 ha        1 OBD      0.166000
     44 H25        12.5550    0.0100    4.0640 ha        1 OBD      0.002000
     45 H11         1.1950    0.3600    0.4160 h4        1 OBD      0.246000
     46 H09        -3.3170    1.1470   -0.9210 ha        1 OBD      0.002000
     47 H09A       -1.1670   -0.3190   -1.1170 h4        1 OBD      0.216000
     48 HN08       -2.6760    1.0560   -0.7190 ha        1 OBD      0.002000
     49 H04        -2.6700   -2.2910   -4.8950 hc        1 OBD      0.195000
     50 H03        -5.0860   -2.0580   -4.6590 ha        1 OBD      0.184000
     51 H01        -5.7430   -5.4550   -1.3810 hc        1 OBD      0.105667
     52 H01A       -4.1870   -6.3970   -1.4570 hc        1 OBD      0.105667
     53 H01B       -5.5640   -6.8220   -2.5590 hc        1 OBD      0.105667
     54 H33        -2.5990   -6.0720   -3.1810 hc        1 OBD      0.176000
     55 H32        -3.2570   -5.6610   -4.8110 hc        1 OBD      0.176000
     56 C15         4.1760    1.4970   -0.3680 c2        1 OBD      0.134000
     57 H082       -0.7300   -2.7990   -2.7880 hn        1 OBD      0.311000
@<TRIPOS>BOND
     1    1   19 1   
     2    1   21 1   
     3    1   22 1   
     4    2    3 1   
     5    2   19 1   
     6    2   20 1   
     7    3   13 1   
     8    3   14 1   
     9    3   33 1   
    10    4    5 1   
    11    4   14 1   
    12    4   15 1   
    13    5    6 1   
    14    5   34 1   
    15    5   35 1   
    16    6   18 1   
    17    7   17 1   
    18    7   18 1   
    19    7   36 1   
    20    8   16 1   
    21    8   17 1   
    22    9   15 1   
    23    9   16 1   
    24    9   18 1   
    25   10   11 2   
    26   11   56 1   
    27   12   56 1   
    28   13   38 1   
    29   13   39 1   
    30   13   56 1   
    31   14   40 1   
    32   14   41 1   
    33   15   42 1   
    34   16   43 1   
    35   19   45 1   
    36   20   21 1   
    37   22   23 1   
    38   22   47 1   
    39   23   24 1   
    40   23   57 1   
    41   24   25 1   
    42   24   26 1   
    43   26   27 1   
    44   26   32 1   
    45   26   49 1   
    46   27   28 1   
    47   27   50 1   
    48   28   29 1   
    49   29   30 1   
    50   29   31 1   
    51   30   51 1   
    52   30   52 1   
    53   30   53 1   
    54   31   32 1   
    55   31   54 1   
    56   31   55 1   
    57   37   44 1   
    58   46   48 1   
@<TRIPOS>SUBSTRUCTURE
     1 OBD         1 TEMP              0 ****  ****    0 ROOT
