@<TRIPOS>MOLECULE
OBE
   41    42     1     0     0
SMALL
bcc


@<TRIPOS>ATOM
      1 C1         -1.2910   -0.9440    0.7140 c2        1 OBE     -0.015000
      2 C2          2.1460    0.7110   -0.6520 c3        1 OBE     -0.171400
      3 C3          2.2000    0.3780    0.8360 c3        1 OBE      0.168100
      4 C4          1.2950    1.2160    1.7300 c3        1 OBE     -0.096400
      5 C5         -0.0960    0.6300    1.9610 c3        1 OBE      0.166500
      6 C6         -0.0430   -0.7500    2.6870 c3        1 OBE     -0.069200
      7 C7         -0.8270   -1.6460    1.7760 c2        1 OBE     -0.227200
      8 C9          5.4810    0.1490    2.5470 ce        1 OBE     -0.224500
      9 C10         6.0800   -0.4130    3.8130 c3        1 OBE     -0.032000
     10 C11         7.4680   -0.9430    3.5020 c2        1 OBE      0.096900
     11 C12         8.2440   -0.5210    2.4570 ce        1 OBE     -0.212000
     12 C13         7.7440    0.6420    1.7230 ce        1 OBE     -0.117100
     13 C14         6.4140    0.6770    1.7640 c1        1 OBE      0.073200
     14 C15         2.1340    2.1780   -0.9590 c         1 OBE      0.632100
     15 C16        -1.8850    1.3940    0.4430 c3        1 OBE      0.151100
     16 N1         -0.8530    0.4180    0.6960 nh        1 OBE     -0.637400
     17 O1          3.5760    0.6110    1.2170 os        1 OBE     -0.417900
     18 O2          3.3360   -0.9180    2.8410 o         1 OBE     -0.574000
     19 O3          3.1010    2.9130   -1.1520 o         1 OBE     -0.482000
     20 O4          0.9320    2.8210   -1.0930 oh        1 OBE     -0.599100
     21 O5          7.9960   -1.8790    4.3540 oh        1 OBE     -0.484100
     22 H1          1.2300    0.2270   -1.0840 hc        1 OBE      0.091200
     23 H2         -1.9010   -1.2960   -0.1240 h4        1 OBE      0.157000
     24 H3          3.0520    0.2660   -1.1480 hc        1 OBE      0.091200
     25 H41         1.9650   -0.7180    0.9640 h1        1 OBE      0.085700
     26 H42         1.7860    1.3020    2.7380 hc        1 OBE      0.065200
     27 H5          1.2000    2.2530    1.3120 hc        1 OBE      0.065200
     28 H61        -0.6490    1.3630    2.6200 h1        1 OBE      0.048700
     29 H62        -0.5150   -0.6840    3.6970 hc        1 OBE      0.073200
     30 H71         1.0110   -1.1030    2.8170 hc        1 OBE      0.073200
     31 H72        -0.9530   -2.7080    1.9750 ha        1 OBE      0.152000
     32 H10         5.4120   -1.2490    4.1590 hc        1 OBE      0.091700
     33 H12         6.1590    0.3410    4.6400 hc        1 OBE      0.091700
     34 H13         9.2290   -0.9450    2.2360 ha        1 OBE      0.165000
     35 H14         8.4250    1.3880    1.3040 ha        1 OBE      0.173000
     36 H161        0.2060    2.1990   -0.9430 ho        1 OBE      0.433000
     37 H162       -2.3340    1.1880   -0.5640 h1        1 OBE      0.040367
     38 H163       -1.4180    2.4150    0.4350 h1        1 OBE      0.040367
     39 HN1        -2.7080    1.3900    1.2080 h1        1 OBE      0.040367
     40 HO5         7.3240   -2.1040    5.0140 ho        1 OBE      0.425000
     41 C8          4.0830   -0.1250    2.2520 c         1 OBE      0.672300
@<TRIPOS>BOND
     1    1    7 2   
     2    1   16 1   
     3    1   23 1   
     4    2    3 1   
     5    2   14 1   
     6    2   22 1   
     7    2   24 1   
     8    3    4 1   
     9    3   17 1   
    10    3   25 1   
    11    4    5 1   
    12    4   26 1   
    13    4   27 1   
    14    5    6 1   
    15    5   16 1   
    16    5   28 1   
    17    6    7 1   
    18    6   29 1   
    19    6   30 1   
    20    7   31 1   
    21    8    9 1   
    22    8   13 2   
    23    8   41 1   
    24    9   10 1   
    25    9   32 1   
    26    9   33 1   
    27   10   11 2   
    28   10   21 1   
    29   11   12 1   
    30   11   34 1   
    31   12   13 2   
    32   12   35 1   
    33   14   19 2   
    34   14   20 1   
    35   15   16 1   
    36   15   37 1   
    37   15   38 1   
    38   15   39 1   
    39   17   41 1   
    40   18   41 2   
    41   20   36 1   
    42   21   40 1   
@<TRIPOS>SUBSTRUCTURE
     1 OBE         1 TEMP              0 ****  ****    0 ROOT
