@<TRIPOS>MOLECULE
OBE
   41    43     1     0     0
SMALL
bcc


@<TRIPOS>ATOM
      1 C1          3.3190    0.0530   -0.9230 c3        1 OBE      0.161500
      2 C2          1.8030   -0.1540   -1.1380 c3        1 OBE     -0.150700
      3 C3          0.9840    0.8450   -0.2970 c3        1 OBE      0.152100
      4 C4          1.5950    1.2680    1.0440 c3        1 OBE     -0.091400
      5 C5          3.1270    1.3000    0.9870 c3        1 OBE      0.154500
      6 C6          3.5770    2.3250   -0.0920 c3        1 OBE     -0.112400
      7 C7          3.6960    1.4930   -1.3700 c3        1 OBE     -0.109400
      8 C9         -2.6320    0.0930    0.1310 ca        1 OBE     -0.104600
      9 C10        -3.8740    0.7400    0.1370 ca        1 OBE     -0.161000
     10 C11        -5.0270   -0.0170    0.3730 ca        1 OBE      0.109100
     11 C12        -4.9510   -1.4030    0.5990 ca        1 OBE     -0.120000
     12 C13        -3.7060   -2.0220    0.5860 ca        1 OBE     -0.113000
     13 C14        -2.5430   -1.2840    0.3540 ca        1 OBE     -0.099000
     14 C15         1.4620   -1.6050   -0.9010 c         1 OBE      0.655100
     15 C16         4.9630   -0.3260    0.8560 c3        1 OBE      0.144100
     16 N1          3.5880   -0.0340    0.5300 n3        1 OBE     -0.705600
     17 O1         -0.2650    0.1870   -0.0170 os        1 OBE     -0.456900
     18 O2         -1.3560    2.1020   -0.4030 o         1 OBE     -0.542000
     19 O3          1.4940   -2.4800   -1.7690 o         1 OBE     -0.515000
     20 O4          1.0830   -2.0610    0.3230 oh        1 OBE     -0.570100
     21 O5         -6.2870    0.5380    0.4000 oh        1 OBE     -0.494100
     22 H1          3.8890   -0.7260   -1.4950 h1        1 OBE      0.088700
     23 H2          1.5770    0.0460   -2.2240 hc        1 OBE      0.093700
     24 H3          0.8070    1.7650   -0.9240 h1        1 OBE      0.086700
     25 H41         1.2610    0.5660    1.8530 hc        1 OBE      0.063200
     26 H42         1.2140    2.2880    1.3070 hc        1 OBE      0.063200
     27 H5          3.5450    1.5490    1.9960 h1        1 OBE      0.073700
     28 H61         2.8310    3.1470   -0.1990 hc        1 OBE      0.055700
     29 H62         4.5590    2.7770    0.1890 hc        1 OBE      0.055700
     30 H71         3.0140    1.8610   -2.1710 hc        1 OBE      0.056200
     31 H72         4.7400    1.5090   -1.7660 hc        1 OBE      0.056200
     32 H10        -3.9300    1.8240   -0.0440 ha        1 OBE      0.157000
     33 H12        -5.8730   -1.9730    0.7810 ha        1 OBE      0.156000
     34 H13        -3.6340   -3.1070    0.7590 ha        1 OBE      0.147000
     35 H14        -1.5570   -1.7820    0.3420 ha        1 OBE      0.169000
     36 H161        5.0640   -0.3510    1.9720 h1        1 OBE      0.039700
     37 H162        5.2170   -1.3400    0.4470 h1        1 OBE      0.039700
     38 H163        5.6940    0.4220    0.4450 h1        1 OBE      0.039700
     39 HN1         1.1200   -1.3420    0.9710 ho        1 OBE      0.443000
     40 HO5        -6.2000    1.4860    0.2170 ho        1 OBE      0.423000
     41 C8         -1.4310    0.9030   -0.1230 c         1 OBE      0.660700
@<TRIPOS>BOND
     1    1    2 1   
     2    1    7 1   
     3    1   16 1   
     4    1   22 1   
     5    2    3 1   
     6    2   14 1   
     7    2   23 1   
     8    3    4 1   
     9    3   17 1   
    10    3   24 1   
    11    4    5 1   
    12    4   25 1   
    13    4   26 1   
    14    5    6 1   
    15    5   16 1   
    16    5   27 1   
    17    6    7 1   
    18    6   28 1   
    19    6   29 1   
    20    7   30 1   
    21    7   31 1   
    22    8    9 ar  
    23    8   13 ar  
    24    8   41 1   
    25    9   10 ar  
    26    9   32 1   
    27   10   11 ar  
    28   10   21 1   
    29   11   12 ar  
    30   11   33 1   
    31   12   13 ar  
    32   12   34 1   
    33   13   35 1   
    34   14   19 2   
    35   14   20 1   
    36   15   16 1   
    37   15   36 1   
    38   15   37 1   
    39   15   38 1   
    40   17   41 1   
    41   18   41 2   
    42   20   39 1   
    43   21   40 1   
@<TRIPOS>SUBSTRUCTURE
     1 OBE         1 TEMP              0 ****  ****    0 ROOT
