@<TRIPOS>MOLECULE
OBE
   41    40     1     0     0
SMALL
bcc


@<TRIPOS>ATOM
      1 C1         -2.0780   -1.0550   -1.6530 c3        1 OBE     -0.036000
      2 C2         -0.5710   -1.0090   -1.5960 c3        1 OBE     -0.142000
      3 C3          0.0310   -0.9670   -0.1480 c3        1 OBE      0.041000
      4 C4         -1.0260   -0.9790    1.0080 c3        1 OBE     -0.167000
      5 C5         -2.4520   -1.0300    0.5540 c3        1 OBE     -0.043000
      6 C6         -2.7440   -2.4900    0.2270 c3        1 OBE     -0.191000
      7 C7         -2.4720   -2.5190   -1.3850 c3        1 OBE     -0.188000
      8 C8          1.9640    0.0060    0.7320 c1        1 OBE      0.362000
      9 C9          2.9310    1.1540    0.9010 c1        1 OBE     -0.083000
     10 C10         2.5790    2.2480    1.6760 c2        1 OBE     -0.156000
     11 C11         3.4900    3.2710    1.8870 c1        1 OBE      0.069000
     12 C12         4.7530    3.2000    1.3230 c1        1 OBE     -0.119000
     13 C13         5.1060    2.1060    0.5480 c1        1 OBE     -0.119000
     14 C14         4.1950    1.0840    0.3380 c1        1 OBE     -0.107000
     15 C15        -0.1010    0.2290   -2.3470 c2        1 OBE      0.325000
     16 C16        -4.2090   -0.5500   -0.9170 c3        1 OBE     -0.132000
     17 N1         -2.7110   -0.4680   -0.6550 n4        1 OBE     -0.231000
     18 O1          0.7960    0.1790   -0.0270 os        1 OBE     -0.300000
     19 O2          2.1980   -1.0670    1.2500 o         1 OBE     -0.348000
     20 O3          0.5560    0.1060   -3.4150 o         1 OBE     -0.306000
     21 O4         -0.3790    1.3760   -1.9080 o         1 OBE     -0.306000
     22 O5          3.1460    4.3600    2.7060 oh        1 OBE     -0.249000
     23 H1         -2.4150   -0.7510   -2.5190 hx        1 OBE      0.128000
     24 H2         -0.2220   -1.7980   -2.0520 hc        1 OBE      0.134000
     25 H3          0.6170   -1.7420   -0.0370 h1        1 OBE      0.128000
     26 H41        -0.9030   -0.1720    1.5460 hc        1 OBE      0.102500
     27 H42        -0.8550   -1.7580    1.5740 hc        1 OBE      0.102500
     28 H5         -3.0600   -0.6950    1.2420 hx        1 OBE      0.113000
     29 H61        -2.1260   -3.0850    0.6970 hc        1 OBE      0.095000
     30 H62        -3.6740   -2.7150    0.4300 hc        1 OBE      0.095000
     31 H71        -1.7370   -3.1260   -1.6060 hc        1 OBE      0.096000
     32 H72        -3.2850   -2.7580   -1.8730 hc        1 OBE      0.096000
     33 H10         1.6880    2.2980    2.0730 ha        1 OBE      0.170000
     34 H12         5.3950    3.9200    1.4710 ha        1 OBE      0.149500
     35 H13         5.9960    2.0560    0.1510 ha        1 OBE      0.149500
     36 H14         4.4440    0.3130   -0.2080 ha        1 OBE      0.156000
     37 H161       -4.3700   -1.0640   -1.7370 hx        1 OBE      0.079667
     38 H162       -4.6490   -0.9930   -0.1620 hx        1 OBE      0.079667
     39 H163       -4.5730    0.3540   -1.0220 hx        1 OBE      0.079667
     40 HN1        -2.4640    0.4140   -0.6290 hn        1 OBE      0.245000
     41 HO5         3.1910    4.1150    3.5600 ho        1 OBE      0.230000
@<TRIPOS>BOND
     1    1    2 1   
     2    1    7 1   
     3    1   17 1   
     4    1   23 1   
     5    2    3 1   
     6    2   15 1   
     7    2   24 1   
     8    3    4 1   
     9    3   18 1   
    10    3   25 1   
    11    4    5 1   
    12    4   26 1   
    13    4   27 1   
    14    5    6 1   
    15    5   17 1   
    16    5   28 1   
    17    6    7 1   
    18    6   29 1   
    19    6   30 1   
    20    7   31 1   
    21    7   32 1   
    22    8   18 1   
    23    8   19 1   
    24    9   10 1   
    25    9   14 1   
    26   10   11 1   
    27   10   33 1   
    28   11   22 1   
    29   12   13 1   
    30   12   34 1   
    31   13   35 1   
    32   14   36 1   
    33   15   20 1   
    34   15   21 1   
    35   16   17 1   
    36   16   37 1   
    37   16   38 1   
    38   16   39 1   
    39   17   40 1   
    40   22   41 1   
@<TRIPOS>SUBSTRUCTURE
     1 OBE         1 TEMP              0 ****  ****    0 ROOT
