@<TRIPOS>MOLECULE
OBE
   41    40     1     0     0
SMALL
bcc


@<TRIPOS>ATOM
      1 C1         -1.5390   -0.9250    0.5090 c2        1 OBE     -0.016000
      2 C2          1.8670    0.8800   -0.7190 c3        1 OBE     -0.171400
      3 C3          1.9610    0.3560    0.7110 c3        1 OBE      0.167100
      4 C4          1.0870    1.0710    1.7330 c3        1 OBE     -0.096400
      5 C5         -0.3010    0.4630    1.9230 c3        1 OBE      0.165500
      6 C6         -0.2360   -1.0030    2.4540 c3        1 OBE     -0.069200
      7 C7         -1.0500   -1.7660    1.4520 c2        1 OBE     -0.226200
      8 C9          5.3070   -0.0860    2.3090 ce        1 OBE     -0.013900
      9 C10         5.9330   -0.9150    3.1640 c2        1 OBE     -0.111000
     10 C11        10.1090   -1.2190    4.5760 c1        1 OBE     -0.044400
     11 C12        10.9000   -1.9900    5.0290 c1        1 OBE     -0.180500
     12 C13         6.4820    1.9400    1.1700 c1        1 OBE     -0.102500
     13 C14         5.9440    1.0080    1.6940 cg        1 OBE     -0.174300
     14 C15         1.8830    2.3740   -0.8370 c         1 OBE      0.633100
     15 C16        -2.1300    1.4280    0.5770 c3        1 OBE      0.151100
     16 N1         -1.0950    0.4260    0.6640 nh        1 OBE     -0.637400
     17 O1          3.3480    0.5370    1.0820 os        1 OBE     -0.419900
     18 O2          3.1580   -1.2150    2.4640 o         1 OBE     -0.563000
     19 O3          2.8600    3.1040   -0.9970 o         1 OBE     -0.485000
     20 O4          0.6960    3.0580   -0.8150 oh        1 OBE     -0.598100
     21 O5          9.1560   -0.4310    4.0960 oh        1 OBE     -0.392600
     22 H1          0.9250    0.4760   -1.1760 hc        1 OBE      0.090700
     23 H2         -2.1740   -1.1590   -0.3520 h4        1 OBE      0.156000
     24 H3          2.7440    0.4830   -1.3000 hc        1 OBE      0.090700
     25 H41         1.7250   -0.7470    0.7000 h1        1 OBE      0.086700
     26 H42         0.9880    2.1550    1.4600 hc        1 OBE      0.065200
     27 H5          1.6050    1.0200    2.7290 hc        1 OBE      0.065200
     28 H61        -0.8300    1.1010    2.6920 h1        1 OBE      0.048700
     29 H62        -0.6810   -1.0740    3.4760 hc        1 OBE      0.073700
     30 H71         0.8190   -1.3730    2.5060 hc        1 OBE      0.073700
     31 H72        -1.1760   -2.8450    1.5080 ha        1 OBE      0.152000
     32 H10         5.4060   -1.7620    3.6300 ha        1 OBE      0.146500
     33 H12         6.9910   -0.7870    3.4380 ha        1 OBE      0.146500
     34 H13        11.5980   -2.6760    5.4310 ha        1 OBE      0.183500
     35 H14         6.9410    2.7700    0.6970 ha        1 OBE      0.171500
     36 H161       -0.0390    2.4390   -0.6990 ho        1 OBE      0.434000
     37 H162       -2.6090    1.3620   -0.4350 h1        1 OBE      0.040033
     38 H163       -1.6590    2.4410    0.6950 h1        1 OBE      0.040033
     39 HN1        -2.9300    1.3200    1.3580 h1        1 OBE      0.040033
     40 HO5         9.6060    0.3780    3.7830 ho        1 OBE      0.435000
     41 C8          3.8810   -0.3280    1.9940 c         1 OBE      0.646300
@<TRIPOS>BOND
     1    1    7 2   
     2    1   16 1   
     3    1   23 1   
     4    2    3 1   
     5    2   14 1   
     6    2   22 1   
     7    2   24 1   
     8    3    4 1   
     9    3   17 1   
    10    3   25 1   
    11    4    5 1   
    12    4   26 1   
    13    4   27 1   
    14    5    6 1   
    15    5   16 1   
    16    5   28 1   
    17    6    7 1   
    18    6   29 1   
    19    6   30 1   
    20    7   31 1   
    21    8    9 2   
    22    8   13 1   
    23    8   41 1   
    24    9   32 1   
    25    9   33 1   
    26   10   11 3   
    27   10   21 1   
    28   11   34 1   
    29   12   13 3   
    30   12   35 1   
    31   14   19 2   
    32   14   20 1   
    33   15   16 1   
    34   15   37 1   
    35   15   38 1   
    36   15   39 1   
    37   17   41 1   
    38   18   41 2   
    39   20   36 1   
    40   21   40 1   
@<TRIPOS>SUBSTRUCTURE
     1 OBE         1 TEMP              0 ****  ****    0 ROOT
