@<TRIPOS>MOLECULE
OBE
   41    42     1     0     0
SMALL
bcc


@<TRIPOS>ATOM
      1 C1         -1.3390   -0.5520    0.0630 c2        1 OBE     -0.100000
      2 C2          2.1840    1.3430   -0.2540 c3        1 OBE     -0.201000
      3 C3          2.2120    0.2890    0.8510 c3        1 OBE      0.061000
      4 C4          1.3270    0.5890    2.0540 c3        1 OBE     -0.177000
      5 C5         -0.1000    0.0560    1.9480 c3        1 OBE     -0.031000
      6 C6         -0.1410   -1.5000    1.8390 c3        1 OBE     -0.152000
      7 C7         -0.9420   -1.7330    0.5940 c2        1 OBE     -0.220000
      8 C9          5.4850   -0.8030    2.2110 c2        1 OBE     -0.173000
      9 C10         6.0360    0.3900    2.5450 c2        1 OBE     -0.061000
     10 C11         7.4960    0.4870    2.8680 c3        1 OBE      0.035000
     11 C12         8.1210   -0.8350    3.1980 c2        1 OBE     -0.075000
     12 C13         7.5240   -1.9850    2.8240 c2        1 OBE     -0.218000
     13 C14         6.2780   -2.0030    2.1090 c1        1 OBE      0.022000
     14 C15         2.3160    2.7460    0.2560 c2        1 OBE      0.307000
     15 C16        -1.8000    1.6110    1.0660 c3        1 OBE     -0.124000
     16 N1         -0.8300    0.5870    0.7640 n3        1 OBE     -0.241000
     17 O1          3.5900    0.2480    1.2770 os        1 OBE     -0.296000
     18 O2          3.2680   -1.8340    2.0320 o         1 OBE     -0.329000
     19 O3          3.3550    3.3660    0.4810 o         1 OBE     -0.309000
     20 O4          1.1850    3.4790    0.4930 oh        1 OBE     -0.304000
     21 O5          7.7560    1.3720    3.9460 oh        1 OBE     -0.296000
     22 H1          1.2280    1.2280   -0.8280 hc        1 OBE      0.131000
     23 H2         -1.9420   -0.3730   -0.8330 h4        1 OBE      0.157000
     24 H3          3.0430    1.1490   -0.9530 hc        1 OBE      0.131000
     25 H41         1.9400   -0.7100    0.4050 h1        1 OBE      0.127000
     26 H42         1.7910    0.1030    2.9560 hc        1 OBE      0.102500
     27 H5          1.3000    1.6960    2.2410 hc        1 OBE      0.102500
     28 H61        -0.6310    0.3650    2.8970 h1        1 OBE      0.088000
     29 H62         0.8890   -1.9320    1.7650 hc        1 OBE      0.114000
     30 H71        -0.6400   -1.9470    2.7330 hc        1 OBE      0.114000
     31 H72        -1.1290   -2.7320    0.2040 ha        1 OBE      0.154000
     32 H10         5.4670    1.3350    2.5300 ha        1 OBE      0.166000
     33 H12         8.0100    0.8810    1.9310 h1        1 OBE      0.121000
     34 H13         9.0960   -0.7830    3.7050 ha        1 OBE      0.156000
     35 H14         7.9900   -2.9660    3.0190 ha        1 OBE      0.163000
     36 H161        0.4000    2.9430    0.3100 ho        1 OBE      0.235000
     37 H162       -2.2420    1.9820    0.1040 h1        1 OBE      0.078667
     38 H163       -1.2750    2.4600    1.5810 h1        1 OBE      0.078667
     39 HN1        -2.6360    1.2600    1.7300 h1        1 OBE      0.078667
     40 HO5         7.3620    2.2230    3.7120 ho        1 OBE      0.215000
     41 C8          4.0560   -0.9060    1.8600 c2        1 OBE      0.369000
@<TRIPOS>BOND
     1    1    7 1   
     2    1   16 1   
     3    1   23 1   
     4    2    3 1   
     5    2   14 1   
     6    2   22 1   
     7    2   24 1   
     8    3    4 1   
     9    3   17 1   
    10    3   25 1   
    11    4    5 1   
    12    4   26 1   
    13    4   27 1   
    14    5    6 1   
    15    5   16 1   
    16    5   28 1   
    17    6    7 1   
    18    6   29 1   
    19    6   30 1   
    20    7   31 1   
    21    8    9 1   
    22    8   13 1   
    23    8   41 1   
    24    9   10 1   
    25    9   32 1   
    26   10   11 1   
    27   10   21 1   
    28   10   33 1   
    29   11   12 1   
    30   11   34 1   
    31   12   13 1   
    32   12   35 1   
    33   14   19 1   
    34   14   20 1   
    35   15   16 1   
    36   15   37 1   
    37   15   38 1   
    38   15   39 1   
    39   17   41 1   
    40   18   41 1   
    41   20   36 1   
    42   21   40 1   
@<TRIPOS>SUBSTRUCTURE
     1 OBE         1 TEMP              0 ****  ****    0 ROOT
