@<TRIPOS>MOLECULE
OBF
   15    14     1     0     0
SMALL
bcc


@<TRIPOS>ATOM
      1 N          -0.4050   -1.6660    0.4870 n3        1 OBF     -0.900800
      2 CA         -0.6370   -0.2280    0.4870 c3        1 OBF      0.014500
      3 CB          0.4220    0.5540   -0.2840 c3        1 OBF     -0.109400
      4 CG          1.8390    0.2350    0.2260 c3        1 OBF      0.388900
      5 FG1         2.4520   -0.7840   -0.4770 f         1 OBF     -0.274300
      6 FG2         2.7260    1.2780    0.0250 f         1 OBF     -0.274300
      7 C          -2.0410    0.2190   -0.0490 c         1 OBF      0.894600
      8 O          -2.8650   -0.6810   -0.3700 o         1 OBF     -0.836800
      9 HN         -1.2920   -2.1140    0.6540 hn        1 OBF      0.338300
     10 HA         -0.6010    0.0940    1.5700 h1        1 OBF      0.042700
     11 H1B         0.3610    0.3250   -1.3770 hc        1 OBF      0.075200
     12 H2B         0.2130    1.6460   -0.1450 hc        1 OBF      0.075200
     13 HG          1.8160   -0.0280    1.3260 h2        1 OBF      0.064700
     14 HNA        -0.1060   -1.9490   -0.4290 hn        1 OBF      0.338300
     15 OXT        -2.2640    1.4590   -0.1070 o         1 OBF     -0.836800
@<TRIPOS>BOND
     1    1    2 1   
     2    1    9 1   
     3    1   14 1   
     4    2    3 1   
     5    2    7 1   
     6    2   10 1   
     7    3    4 1   
     8    3   11 1   
     9    3   12 1   
    10    4    5 1   
    11    4    6 1   
    12    4   13 1   
    13    7    8 1   
    14    7   15 1   
@<TRIPOS>SUBSTRUCTURE
     1 OBF         1 TEMP              0 ****  ****    0 ROOT
