@<TRIPOS>MOLECULE
OBG
   29    31     1     0     0
SMALL
bcc


@<TRIPOS>ATOM
      1 C1         -2.6780   -1.7320    0.2730 ca        1 OBG      0.917900
      2 N1         -3.0860   -3.0060    0.6800 nh        1 OBG     -0.927500
      3 O1          0.4530    0.0830   -0.0440 os        1 OBG     -0.418100
      4 C2         -0.8750   -0.2500   -0.0190 ca        1 OBG      0.760600
      5 N2         -1.2970   -1.4980    0.2640 nb        1 OBG     -0.839000
      6 C3          1.4030   -0.9610    0.2590 c3        1 OBG      0.181700
      7 N3         -1.6510    2.1560   -0.6520 nc        1 OBG     -0.501100
      8 C4          2.7690   -0.3640    0.1860 ca        1 OBG     -0.098300
      9 N4         -3.8910    1.5940   -0.6380 na        1 OBG     -0.385000
     10 C5          3.8300   -1.0750    0.7590 ca        1 OBG     -0.114000
     11 N5         -3.6740   -0.8190   -0.0280 nb        1 OBG     -0.780000
     12 C6          5.1260   -0.5690    0.6920 ca        1 OBG     -0.131000
     13 C7          5.3700    0.6500    0.0580 ca        1 OBG     -0.127000
     14 C8          4.3140    1.3620   -0.5080 ca        1 OBG     -0.131000
     15 C9          3.0150    0.8580   -0.4480 ca        1 OBG     -0.114000
     16 C10        -1.7850    0.8000   -0.3230 ca        1 OBG     -0.220200
     17 C11        -2.9060    2.5940   -0.8300 cd        1 OBG      0.387700
     18 C12        -3.1990    0.4250   -0.3060 ca        1 OBG      0.478800
     19 HN1        -2.4020   -3.7260    0.6510 hn        1 OBG      0.429800
     20 HN1A       -4.0180   -3.2690    0.4600 hn        1 OBG      0.429800
     21 H3          1.1960   -1.3600    1.2870 h1        1 OBG      0.064200
     22 H3A         1.2960   -1.7830   -0.4990 h1        1 OBG      0.064200
     23 HN4        -4.8680    1.6950   -0.7050 hn        1 OBG      0.317700
     24 H5          3.6390   -2.0340    1.2640 ha        1 OBG      0.143500
     25 H6          5.9580   -1.1320    1.1420 ha        1 OBG      0.132500
     26 H7          6.3940    1.0480    0.0080 ha        1 OBG      0.131000
     27 H8          4.5020    2.3250   -1.0050 ha        1 OBG      0.132500
     28 H9          2.1790    1.4230   -0.8910 ha        1 OBG      0.143500
     29 H11        -3.1880    3.6180   -1.0990 h5        1 OBG      0.073800
@<TRIPOS>BOND
     1    1    2 1   
     2    1    5 ar  
     3    1   11 ar  
     4    2   19 1   
     5    2   20 1   
     6    3    4 1   
     7    3    6 1   
     8    4    5 ar  
     9    4   16 ar  
    10    6    8 1   
    11    6   21 1   
    12    6   22 1   
    13    7   16 1   
    14    7   17 2   
    15    8   10 ar  
    16    8   15 ar  
    17    9   17 1   
    18    9   18 1   
    19    9   23 1   
    20   10   12 ar  
    21   10   24 1   
    22   11   18 ar  
    23   12   13 ar  
    24   12   25 1   
    25   13   14 ar  
    26   13   26 1   
    27   14   15 ar  
    28   14   27 1   
    29   15   28 1   
    30   16   18 ar  
    31   17   29 1   
@<TRIPOS>SUBSTRUCTURE
     1 OBG         1 TEMP              0 ****  ****    0 ROOT
