@<TRIPOS>MOLECULE
OBG
   29    31     1     0     0
SMALL
bcc


@<TRIPOS>ATOM
      1 C1         -0.1120   -0.3050    0.0470 ca        1 OBG      0.917900
      2 N1         -0.8130   -0.8000   -1.0570 nh        1 OBG     -0.927500
      3 O1          3.3630    0.0580    1.0430 os        1 OBG     -0.418100
      4 C2          1.9940    0.0480    1.0340 ca        1 OBG      0.760600
      5 N2          1.2860   -0.3200   -0.0510 nb        1 OBG     -0.839000
      6 C3          4.0360   -0.3550   -0.1660 c3        1 OBG      0.181700
      7 N3          1.8150    0.8930    3.4930 nc        1 OBG     -0.501100
      8 C4          5.5050   -0.2770    0.0870 ca        1 OBG     -0.098300
      9 N4         -0.4930    0.9020    3.4760 na        1 OBG     -0.385000
     10 C5          6.3620   -0.9500   -0.7940 ca        1 OBG     -0.113500
     11 N5         -0.8600    0.0970    1.1390 nb        1 OBG     -0.780000
     12 C6          7.7410   -0.8820   -0.6130 ca        1 OBG     -0.131000
     13 C7          8.2730   -0.1480    0.4480 ca        1 OBG     -0.127000
     14 C8          7.4210    0.5170    1.3290 ca        1 OBG     -0.131000
     15 C9          6.0390    0.4560    1.1490 ca        1 OBG     -0.113500
     16 C10         1.3620    0.4610    2.2390 ca        1 OBG     -0.220200
     17 C11         0.7020    1.1420    4.1960 cd        1 OBG      0.387700
     18 C12        -0.1010    0.4580    2.2090 ca        1 OBG      0.478800
     19 HN1        -0.3190   -0.8490   -1.9170 hn        1 OBG      0.429800
     20 HN1A       -1.7790   -0.5730   -1.1120 hn        1 OBG      0.429800
     21 H3          3.7290   -1.4050   -0.4170 h1        1 OBG      0.064200
     22 H3A         3.7460    0.3380   -1.0010 h1        1 OBG      0.064200
     23 HN4        -1.4180    1.0060    3.7970 hn        1 OBG      0.317700
     24 H5          5.9440   -1.5330   -1.6280 ha        1 OBG      0.143500
     25 H6          8.4110   -1.4090   -1.3080 ha        1 OBG      0.132500
     26 H7          9.3620   -0.0980    0.5900 ha        1 OBG      0.131000
     27 H8          7.8370    1.0930    2.1680 ha        1 OBG      0.132500
     28 H9          5.3650    0.9780    1.8480 ha        1 OBG      0.143500
     29 H11         0.6730    1.5000    5.2320 h5        1 OBG      0.073800
@<TRIPOS>BOND
     1    1    2 1   
     2    1    5 ar  
     3    1   11 ar  
     4    2   19 1   
     5    2   20 1   
     6    3    4 1   
     7    3    6 1   
     8    4    5 ar  
     9    4   16 ar  
    10    6    8 1   
    11    6   21 1   
    12    6   22 1   
    13    7   16 1   
    14    7   17 2   
    15    8   10 ar  
    16    8   15 ar  
    17    9   17 1   
    18    9   18 1   
    19    9   23 1   
    20   10   12 ar  
    21   10   24 1   
    22   11   18 ar  
    23   12   13 ar  
    24   12   25 1   
    25   13   14 ar  
    26   13   26 1   
    27   14   15 ar  
    28   14   27 1   
    29   15   28 1   
    30   16   18 ar  
    31   17   29 1   
@<TRIPOS>SUBSTRUCTURE
     1 OBG         1 TEMP              0 ****  ****    0 ROOT
