@<TRIPOS>MOLECULE
OBG
   29    25     1     0     0
SMALL
bcc


@<TRIPOS>ATOM
      1 C1         -3.2570   -0.3480   -0.6920 c1        1 OBG      0.198000
      2 N1         -4.1620   -0.5200   -1.7710 n2        1 OBG     -0.329000
      3 O1          0.0920   -0.4150   -0.0120 os        1 OBG     -0.181000
      4 C2         -1.2080   -0.1100    0.4250 c2        1 OBG      0.261000
      5 N2         -1.8960   -0.2410   -0.7210 n2        1 OBG     -0.261000
      6 C3          1.0120    0.6380    0.1560 c3        1 OBG      0.023000
      7 N3         -1.4430    0.0370    2.9190 n2        1 OBG     -0.109000
      8 C4          2.2770    0.3310   -0.6160 c2        1 OBG     -0.090000
      9 N4         -3.6230   -0.1360    2.9630 n2        1 OBG     -0.236000
     10 C5          2.8490   -0.9320   -0.6090 c1        1 OBG     -0.102000
     11 N5         -3.9190   -0.3230    0.4990 n2        1 OBG     -0.259000
     12 C6          4.0330   -1.1600   -1.2930 c1        1 OBG     -0.129500
     13 C7          4.6440   -0.1250   -1.9830 c1        1 OBG     -0.129500
     14 C8          4.0720    1.1370   -1.9900 c1        1 OBG     -0.131000
     15 C9          2.8880    1.3650   -1.3060 c2        1 OBG     -0.124000
     16 C10        -1.8800   -0.0840    1.6370 c1        1 OBG     -0.275000
     17 C11        -2.5220    0.0040    3.7330 c1        1 OBG     -0.057000
     18 C12        -3.2240   -0.1910    1.6640 c1        1 OBG      0.099000
     19 HN1        -5.0610   -0.5610   -1.6110 hn        1 OBG      0.230000
     20 HN1A       -3.8470   -0.5830   -2.6270 hn        1 OBG      0.230000
     21 H3          0.6200    1.4710   -0.1790 h1        1 OBG      0.110500
     22 H3A         1.2260    0.7360    1.1070 h1        1 OBG      0.110500
     23 HN4        -4.4840   -0.1850    3.2620 DU        1 OBG      0.236000
     24 H5          2.4180   -1.6600   -0.1230 ha        1 OBG      0.153000
     25 H6          4.4360   -2.0490   -1.2880 ha        1 OBG      0.132000
     26 H7          5.4780   -0.2860   -2.4650 ha        1 OBG      0.132000
     27 H8          4.5030    1.8660   -2.4760 ha        1 OBG      0.131000
     28 H9          2.4850    2.2540   -1.3110 ha        1 OBG      0.133000
     29 H11        -2.5070    0.0700    4.7070 DU        1 OBG      0.236000
@<TRIPOS>BOND
     1    1    5 1   
     2    1   11 1   
     3    2   19 1   
     4    2   20 1   
     5    3    4 1   
     6    3    6 1   
     7    4    5 1   
     8    4   16 1   
     9    6    8 1   
    10    6   21 1   
    11    6   22 1   
    12    7   16 1   
    13    7   17 1   
    14    8   10 1   
    15    8   15 1   
    16    9   17 1   
    17    9   18 1   
    18   10   24 1   
    19   11   18 1   
    20   12   13 1   
    21   12   25 1   
    22   13   26 1   
    23   14   15 1   
    24   14   27 1   
    25   15   28 1   
@<TRIPOS>SUBSTRUCTURE
     1 OBG         1 TEMP              0 ****  ****    0 ROOT
