@<TRIPOS>MOLECULE
OBG
   29    31     1     0     0
SMALL
bcc


@<TRIPOS>ATOM
      1 C1         -0.1070    0.3450    0.0470 ca        1 OBG      0.917900
      2 N1         -0.8030    0.8240   -1.0670 nv        1 OBG     -0.927500
      3 O1          3.3630   -0.0530    1.0440 os        1 OBG     -0.418100
      4 C2          1.9950   -0.0200    1.0380 ca        1 OBG      0.760600
      5 N2          1.2900    0.3330   -0.0550 nb        1 OBG     -0.839000
      6 C3          4.0400    0.3190   -0.1760 c3        1 OBG      0.181700
      7 N3          1.8080   -0.8030    3.5170 nc        1 OBG     -0.501100
      8 C4          5.5080    0.2220    0.0750 ca        1 OBG     -0.098300
      9 N4         -0.5000   -0.7730    3.5050 na        1 OBG     -0.385000
     10 C5          6.0330   -0.4860    1.1590 ca        1 OBG     -0.114000
     11 N5         -0.8600   -0.0180    1.1500 nb        1 OBG     -0.780000
     12 C6          7.4150   -0.5660    1.3360 ca        1 OBG     -0.131000
     13 C7          8.2750    0.0570    0.4330 ca        1 OBG     -0.127000
     14 C8          7.7530    0.7650   -0.6500 ca        1 OBG     -0.131000
     15 C9          6.3740    0.8520   -0.8290 ca        1 OBG     -0.114000
     16 C10         1.3590   -0.3930    2.2530 ca        1 OBG     -0.220200
     17 C11         0.6920   -1.0160    4.2280 cd        1 OBG      0.387700
     18 C12        -0.1040   -0.3670    2.2270 ca        1 OBG      0.478800
     19 HN1        -0.3100    0.8440   -1.9290 hn        1 OBG      0.429800
     20 HN1A       -1.7720    0.6120   -1.1150 hn        1 OBG      0.429800
     21 H3          3.7500    1.3680   -0.4520 h1        1 OBG      0.064200
     22 H3A         3.7360   -0.3890   -0.9930 h1        1 OBG      0.064200
     23 HN4        -1.4260   -0.8540    3.8300 hn        1 OBG      0.317700
     24 H5          5.3530   -0.9730    1.8760 ha        1 OBG      0.143500
     25 H6          7.8230   -1.1220    2.1930 ha        1 OBG      0.132500
     26 H7          9.3640   -0.0090    0.5730 ha        1 OBG      0.131000
     27 H8          8.4290    1.2580   -1.3630 ha        1 OBG      0.132500
     28 H9          5.9630    1.4150   -1.6800 ha        1 OBG      0.143500
     29 H11         0.6600   -1.3490    5.2720 h5        1 OBG      0.073800
@<TRIPOS>BOND
     1    1    2 1   
     2    1    5 ar  
     3    1   11 ar  
     4    2   19 1   
     5    2   20 1   
     6    3    4 1   
     7    3    6 1   
     8    4    5 ar  
     9    4   16 ar  
    10    6    8 1   
    11    6   21 1   
    12    6   22 1   
    13    7   16 1   
    14    7   17 2   
    15    8   10 ar  
    16    8   15 ar  
    17    9   17 1   
    18    9   18 1   
    19    9   23 1   
    20   10   12 ar  
    21   10   24 1   
    22   11   18 ar  
    23   12   13 ar  
    24   12   25 1   
    25   13   14 ar  
    26   13   26 1   
    27   14   15 ar  
    28   14   27 1   
    29   15   28 1   
    30   16   18 ar  
    31   17   29 1   
@<TRIPOS>SUBSTRUCTURE
     1 OBG         1 TEMP              0 ****  ****    0 ROOT
