@<TRIPOS>MOLECULE
OBG
   30    32     1     0     0
SMALL
bcc


@<TRIPOS>ATOM
      1 C1         -0.1060    0.0010    0.0440 ca        1 OBG      0.731900
      2 N1         -0.8870   -0.0040   -1.2330 n4        1 OBG     -0.814300
      3 O1          3.3670    0.0050    0.9780 os        1 OBG     -0.382100
      4 C2          2.0170    0.0050    1.0010 ca        1 OBG      0.771600
      5 N2          1.2620    0.0000   -0.1310 nb        1 OBG     -0.797000
      6 C3          4.0430   -0.0010   -0.3150 c3        1 OBG      0.191700
      7 N3          1.8820    0.0170    3.5950 nc        1 OBG     -0.482100
      8 C4          5.4980   -0.0000   -0.0010 ca        1 OBG     -0.132300
      9 N4         -0.4280    0.0170    3.6560 na        1 OBG     -0.343000
     10 C5          6.1850   -1.2110    0.1400 ca        1 OBG     -0.094000
     11 N5         -0.8510    0.0060    1.1800 nb        1 OBG     -0.672000
     12 C6          7.5550   -1.2080    0.3990 ca        1 OBG     -0.129000
     13 C7          8.2400    0.0010    0.5240 ca        1 OBG     -0.095000
     14 C8          7.5550    1.2100    0.3910 ca        1 OBG     -0.129000
     15 C9          6.1860    1.2120    0.1320 ca        1 OBG     -0.094000
     16 C10         1.3950    0.0110    2.2890 ca        1 OBG     -0.120200
     17 C11         0.7830    0.0200    4.3780 cd        1 OBG      0.450700
     18 C12        -0.0720    0.0110    2.3070 ca        1 OBG      0.415800
     19 HN1        -0.6420   -0.8450   -1.7700 hn        1 OBG      0.478467
     20 HN1A       -0.6410    0.8320   -1.7770 hn        1 OBG      0.478467
     21 H3          3.7380    0.9180   -0.8780 h1        1 OBG      0.063700
     22 H3A         3.7370   -0.9260   -0.8700 h1        1 OBG      0.063700
     23 HN4        -1.3490    0.0190    4.0210 hn        1 OBG      0.341700
     24 H5          5.6460   -2.1650    0.0480 ha        1 OBG      0.134000
     25 H6          8.0950   -2.1610    0.5080 ha        1 OBG      0.146000
     26 H7          9.3220    0.0020    0.7290 ha        1 OBG      0.147000
     27 H8          8.0950    2.1630    0.4920 ha        1 OBG      0.146000
     28 H9          5.6460    2.1650    0.0320 ha        1 OBG      0.134000
     29 H11         0.7950    0.0250    5.4800 h5        1 OBG      0.107800
     30 H13        -1.8960   -0.0030   -1.0320 hn        1 OBG      0.478467
@<TRIPOS>BOND
     1    1    2 1   
     2    1    5 ar  
     3    1   11 ar  
     4    2   19 1   
     5    2   20 1   
     6    2   30 1   
     7    3    4 1   
     8    3    6 1   
     9    4    5 ar  
    10    4   16 ar  
    11    6    8 1   
    12    6   21 1   
    13    6   22 1   
    14    7   16 1   
    15    7   17 2   
    16    8   10 ar  
    17    8   15 ar  
    18    9   17 1   
    19    9   18 1   
    20    9   23 1   
    21   10   12 ar  
    22   10   24 1   
    23   11   18 ar  
    24   12   13 ar  
    25   12   25 1   
    26   13   14 ar  
    27   13   26 1   
    28   14   15 ar  
    29   14   27 1   
    30   15   28 1   
    31   16   18 ar  
    32   17   29 1   
@<TRIPOS>SUBSTRUCTURE
     1 OBG         1 TEMP              0 ****  ****    0 ROOT
