@<TRIPOS>MOLECULE
OBH
   53    57     1     0     0
SMALL
bcc


@<TRIPOS>ATOM
      1 CAN         0.3190   -0.5300    0.1170 ca        1 OBH     -0.078500
      2 CAJ         1.6960   -0.3360    0.0800 ca        1 OBH     -0.187000
      3 CAW         2.2820    0.5980    0.9460 ca        1 OBH      0.133100
      4 OAC         3.6340    0.8420    0.9720 oh        1 OBH     -0.494100
      5 CAK         1.4930    1.3390    1.8430 ca        1 OBH     -0.187000
      6 CAO         0.1200    1.1370    1.8610 ca        1 OBH     -0.078500
      7 CAZ        -0.4860    0.2010    1.0030 ca        1 OBH     -0.078800
      8 CAU        -1.9150    0.0290    1.0230 ce        1 OBH     -0.065400
      9 CAV        -2.7240   -1.0390    0.7490 cf        1 OBH     -0.070400
     10 CBA        -2.4450   -2.4080    0.3960 ca        1 OBH     -0.082800
     11 CAP        -1.3580   -3.0890    0.9650 ca        1 OBH     -0.076500
     12 CAL        -1.1040   -4.4190    0.6460 ca        1 OBH     -0.188000
     13 CAX        -1.9450   -5.0800   -0.2610 ca        1 OBH      0.134100
     14 OAD        -1.7580   -6.3910   -0.6280 oh        1 OBH     -0.493100
     15 CAM        -3.0340   -4.4130   -0.8470 ca        1 OBH     -0.188000
     16 CAQ        -3.2760   -3.0880   -0.5120 ca        1 OBH     -0.076500
     17 CBC        -4.1600   -0.5250    0.9420 c3        1 OBH      0.194300
     18 OAS        -4.0190    0.8690    0.5460 os        1 OBH     -0.402600
     19 CBB        -2.8660    1.1810    1.3940 c3        1 OBH      0.155300
     20 CAR        -3.4420    0.8370    2.7970 c3        1 OBH     -0.068400
     21 CBD        -4.3460   -0.3810    2.4930 c3        1 OBH     -0.345900
     22 SBE        -5.9680   -0.2210    2.9740 s6        1 OBH      1.587500
     23 OAA        -6.2420    0.9780    3.6010 o         1 OBH     -0.660300
     24 OAB        -6.8450   -0.7340    2.0370 o         1 OBH     -0.660300
     25 OAT        -5.9320   -1.3680    4.1950 os        1 OBH     -0.573500
     26 CAY        -7.1230   -1.7730    4.8550 c3        1 OBH      0.261500
     27 CAH        -6.9150   -3.1680    5.3570 c2        1 OBH     -0.184700
     28 CAF        -7.3230   -3.5570    6.5670 c2        1 OBH     -0.150200
     29 CAE        -7.9660   -2.6420    7.5440 c3        1 OBH     -0.027000
     30 CAG        -7.8760   -1.2130    7.1520 c2        1 OBH     -0.150200
     31 CAI        -7.4720   -0.8080    5.9460 c2        1 OBH     -0.184700
     32 H1         -0.1500   -1.2640   -0.5590 ha        1 OBH      0.141500
     33 H2          2.3170   -0.9080   -0.6230 ha        1 OBH      0.146000
     34 H3          4.0520    0.2860    0.2980 ho        1 OBH      0.422000
     35 H4          1.9730    2.0650    2.5140 ha        1 OBH      0.146000
     36 H5         -0.5050    1.7160    2.5590 ha        1 OBH      0.141500
     37 H6         -0.6980   -2.5600    1.6710 ha        1 OBH      0.143000
     38 H7         -0.2550   -4.9460    1.1010 ha        1 OBH      0.146500
     39 H8         -0.9890   -6.7310   -0.1470 ho        1 OBH      0.421000
     40 H9         -3.6790   -4.9480   -1.5590 ha        1 OBH      0.146500
     41 H10        -4.1280   -2.5610   -0.9720 ha        1 OBH      0.143000
     42 H11        -4.9850   -1.0060    0.3810 h1        1 OBH      0.130700
     43 H12        -2.5320    2.2160    1.2100 h1        1 OBH      0.114700
     44 H13        -4.0350    1.6950    3.1980 hc        1 OBH      0.078700
     45 H14        -2.6330    0.5800    3.5170 hc        1 OBH      0.078700
     46 H15        -3.8970   -1.2920    2.9810 h1        1 OBH      0.151700
     47 H18        -6.4070   -3.8460    4.6560 ha        1 OBH      0.146000
     48 H19        -7.1980   -4.5980    6.9040 ha        1 OBH      0.128000
     49 H20        -7.4840   -2.7800    8.5520 hc        1 OBH      0.062700
     50 H21        -9.0500   -2.9260    7.6590 hc        1 OBH      0.062700
     51 H22        -8.1650   -0.4890    7.9310 ha        1 OBH      0.128000
     52 H23        -7.3770    0.2580    5.6820 ha        1 OBH      0.146000
     53 H24        -7.9610   -1.7860    4.0890 h1        1 OBH      0.062700
@<TRIPOS>BOND
     1    1    2 ar  
     2    1    7 ar  
     3    1   32 1   
     4    2    3 ar  
     5    2   33 1   
     6    3    4 1   
     7    3    5 ar  
     8    4   34 1   
     9    5    6 ar  
    10    5   35 1   
    11    6    7 ar  
    12    6   36 1   
    13    7    8 1   
    14    8    9 2   
    15    8   19 1   
    16    9   10 1   
    17    9   17 1   
    18   10   11 ar  
    19   10   16 ar  
    20   11   12 ar  
    21   11   37 1   
    22   12   13 ar  
    23   12   38 1   
    24   13   14 1   
    25   13   15 ar  
    26   14   39 1   
    27   15   16 ar  
    28   15   40 1   
    29   16   41 1   
    30   17   18 1   
    31   17   21 1   
    32   17   42 1   
    33   18   19 1   
    34   19   20 1   
    35   19   43 1   
    36   20   21 1   
    37   20   44 1   
    38   20   45 1   
    39   21   22 1   
    40   21   46 1   
    41   22   23 2   
    42   22   24 2   
    43   22   25 1   
    44   25   26 1   
    45   26   27 1   
    46   26   31 1   
    47   26   53 1   
    48   27   28 2   
    49   27   47 1   
    50   28   29 1   
    51   28   48 1   
    52   29   30 1   
    53   29   49 1   
    54   29   50 1   
    55   30   31 2   
    56   30   51 1   
    57   31   52 1   
@<TRIPOS>SUBSTRUCTURE
     1 OBH         1 TEMP              0 ****  ****    0 ROOT
