@<TRIPOS>MOLECULE
OBI
   37    38     1     0     0
SMALL
bcc


@<TRIPOS>ATOM
      1 O3          1.5250    3.2150   -0.4410 oh        1 OBI     -0.283500
      2 N4          2.5700    2.6200    0.0230 n2        1 OBI     -0.329200
      3 C14         2.5430    1.3020   -0.0130 ce        1 OBI      0.303800
      4 C11         3.6560    0.5120    0.4810 ca        1 OBI      0.060100
      5 C10         3.5660   -0.8980    0.4250 ca        1 OBI     -0.141500
      6 C9          4.6100   -1.6850    0.9010 ca        1 OBI     -0.018800
      7 C12         4.8350    1.0730    1.0230 ca        1 OBI     -0.141500
      8 C13         5.8560    0.2470    1.4830 ca        1 OBI     -0.018800
      9 N3          5.7500   -1.1220    1.4230 na        1 OBI     -0.050600
     10 C8          6.7970   -1.9840    1.9960 c3        1 OBI      0.203100
     11 O2          7.0850   -3.0710    1.1270 os        1 OBI     -0.403600
     12 C7          8.1940   -2.9360    0.2500 c3        1 OBI      0.203100
     13 N2          9.3920   -3.5740    0.8220 na        1 OBI     -0.050600
     14 C4          9.3050   -4.8370    1.3570 ca        1 OBI     -0.018800
     15 C3         10.4310   -5.5020    1.8320 ca        1 OBI     -0.141500
     16 C5         10.6190   -2.9600    0.7480 ca        1 OBI     -0.018800
     17 C6         11.7730   -3.5890    1.2060 ca        1 OBI     -0.141500
     18 C2         11.7020   -4.8860    1.7620 ca        1 OBI      0.060100
     19 C1         12.8580   -5.6140    2.2550 ce        1 OBI      0.303800
     20 N1         14.0670   -5.0920    2.2060 n2        1 OBI     -0.329200
     21 O1         15.0160   -5.8300    2.6700 oh        1 OBI     -0.283500
     22 HO3         1.6930    4.1840   -0.3400 ho        1 OBI      0.486000
     23 H14         1.6750    0.7350   -0.4130 h4        1 OBI      0.051800
     24 H10         2.6660   -1.3900    0.0130 ha        1 OBI      0.213000
     25 H9          4.5650   -2.7950    0.8790 h4        1 OBI      0.207500
     26 H12         4.9630    2.1700    1.0970 ha        1 OBI      0.213000
     27 H13         6.7800    0.6720    1.9250 h4        1 OBI      0.207500
     28 H81         6.3770   -2.4790    2.9270 h2        1 OBI      0.120200
     29 H82         7.7070   -1.3630    2.2260 h2        1 OBI      0.120200
     30 H71         8.4240   -1.8610    0.0080 h2        1 OBI      0.120200
     31 H72         7.8880   -3.5210   -0.6730 h2        1 OBI      0.120200
     32 H4          8.2940   -5.2980    1.3900 h4        1 OBI      0.207500
     33 H3         10.3180   -6.5170    2.2550 ha        1 OBI      0.213000
     34 H5         10.6610   -1.9480    0.2950 h4        1 OBI      0.207500
     35 H6         12.7390   -3.0570    1.1210 ha        1 OBI      0.213000
     36 H1         12.6620   -6.6280    2.6670 h4        1 OBI      0.051800
     37 HO1        15.8480   -5.3090    2.5580 ho        1 OBI      0.486000
@<TRIPOS>BOND
     1    1    2 1   
     2    1   22 1   
     3    2    3 2   
     4    3    4 1   
     5    3   23 1   
     6    4    5 ar  
     7    4    7 ar  
     8    5    6 ar  
     9    5   24 1   
    10    6    9 1   
    11    6   25 1   
    12    7    8 ar  
    13    7   26 1   
    14    8    9 2   
    15    8   27 1   
    16    9   10 1   
    17   10   11 1   
    18   10   28 1   
    19   10   29 1   
    20   11   12 1   
    21   12   13 1   
    22   12   30 1   
    23   12   31 1   
    24   13   14 1   
    25   13   16 2   
    26   14   15 ar  
    27   14   32 1   
    28   15   18 ar  
    29   15   33 1   
    30   16   17 ar  
    31   16   34 1   
    32   17   18 ar  
    33   17   35 1   
    34   18   19 1   
    35   19   20 2   
    36   19   36 1   
    37   20   21 1   
    38   21   37 1   
@<TRIPOS>SUBSTRUCTURE
     1 OBI         1 TEMP              0 ****  ****    0 ROOT
