@<TRIPOS>MOLECULE
OBI
   37    38     1     0     0
SMALL
bcc


@<TRIPOS>ATOM
      1 O3          1.5280    3.2000   -0.5040 oh        1 OBI     -0.283500
      2 N4          2.5710    2.6090   -0.0320 n2        1 OBI     -0.329200
      3 C14         2.5460    1.2910   -0.0600 ce        1 OBI      0.303800
      4 C11         3.6580    0.5050    0.4430 ca        1 OBI      0.060100
      5 C10         3.5690   -0.9050    0.3950 ca        1 OBI     -0.141500
      6 C9          4.6120   -1.6890    0.8810 ca        1 OBI     -0.018800
      7 C12         4.8320    1.0700    0.9900 ca        1 OBI     -0.141500
      8 C13         5.8510    0.2480    1.4600 ca        1 OBI     -0.018800
      9 N3          5.7480   -1.1210    1.4060 na        1 OBI     -0.050100
     10 C8          6.7930   -1.9800    1.9900 c3        1 OBI      0.203100
     11 O2          7.0870   -3.0700    1.1290 os        1 OBI     -0.403600
     12 C7          8.2010   -2.9390    0.2570 c3        1 OBI      0.203100
     13 N2          9.3960   -3.5740    0.8390 na        1 OBI     -0.050100
     14 C4          9.3060   -4.8340    1.3800 ca        1 OBI     -0.018800
     15 C3         10.4300   -5.4950    1.8650 ca        1 OBI     -0.141500
     16 C5         10.6230   -2.9590    0.7690 ca        1 OBI     -0.018800
     17 C6         11.7740   -3.5850    1.2380 ca        1 OBI     -0.141500
     18 C2         11.7000   -4.8800    1.7990 ca        1 OBI      0.060100
     19 C1         12.8540   -5.6040    2.3030 ce        1 OBI      0.303800
     20 N1         14.0630   -5.0820    2.2590 n2        1 OBI     -0.329200
     21 O1         15.0090   -5.8170    2.7320 oh        1 OBI     -0.283500
     22 HO3         1.6950    4.1700   -0.4070 ho        1 OBI      0.486000
     23 H14         1.6810    0.7200   -0.4630 h4        1 OBI      0.051800
     24 H10         2.6720   -1.4010   -0.0190 ha        1 OBI      0.213000
     25 H9          4.5680   -2.7990    0.8650 h4        1 OBI      0.207500
     26 H12         4.9590    2.1670    1.0580 ha        1 OBI      0.213000
     27 H13         6.7720    0.6760    1.9050 h4        1 OBI      0.207500
     28 H81         6.3680   -2.4700    2.9210 h2        1 OBI      0.120200
     29 H82         7.7000   -1.3560    2.2220 h2        1 OBI      0.120200
     30 H71         8.4310   -1.8650    0.0110 h2        1 OBI      0.120200
     31 H72         7.9010   -3.5290   -0.6650 h2        1 OBI      0.120200
     32 H4          8.2950   -5.2950    1.4090 h4        1 OBI      0.207500
     33 H3         10.3150   -6.5090    2.2920 ha        1 OBI      0.213000
     34 H5         10.6670   -1.9490    0.3120 h4        1 OBI      0.207500
     35 H6         12.7400   -3.0530    1.1550 ha        1 OBI      0.213000
     36 H1         12.6560   -6.6160    2.7190 h4        1 OBI      0.051800
     37 HO1        15.8420   -5.2960    2.6230 ho        1 OBI      0.486000
@<TRIPOS>BOND
     1    1    2 1   
     2    1   22 1   
     3    2    3 2   
     4    3    4 1   
     5    3   23 1   
     6    4    5 ar  
     7    4    7 ar  
     8    5    6 ar  
     9    5   24 1   
    10    6    9 1   
    11    6   25 1   
    12    7    8 ar  
    13    7   26 1   
    14    8    9 2   
    15    8   27 1   
    16    9   10 1   
    17   10   11 1   
    18   10   28 1   
    19   10   29 1   
    20   11   12 1   
    21   12   13 1   
    22   12   30 1   
    23   12   31 1   
    24   13   14 1   
    25   13   16 2   
    26   14   15 ar  
    27   14   32 1   
    28   15   18 ar  
    29   15   33 1   
    30   16   17 ar  
    31   16   34 1   
    32   17   18 ar  
    33   17   35 1   
    34   18   19 1   
    35   19   20 2   
    36   19   36 1   
    37   20   21 1   
    38   21   37 1   
@<TRIPOS>SUBSTRUCTURE
     1 OBI         1 TEMP              0 ****  ****    0 ROOT
