@<TRIPOS>MOLECULE
OBI
   37    32     1     0     0
SMALL
bcc


@<TRIPOS>ATOM
      1 O3         -1.8140   -4.2670   -5.3530 oh        1 OBI     -0.242000
      2 N4         -0.4910   -4.4560   -5.6080 n2        1 OBI      0.095000
      3 C14         0.4120   -3.6830   -5.0310 c1        1 OBI     -0.186000
      4 C11        -0.0260   -2.5720   -4.0760 c1        1 OBI      0.110000
      5 C10        -0.0830   -1.2590   -4.5190 c2        1 OBI     -0.135000
      6 C9         -0.3950   -0.2230   -3.6140 c1        1 OBI     -0.008000
      7 C12        -0.2770   -2.8640   -2.7420 c1        1 OBI     -0.140000
      8 C13        -0.5890   -1.8250   -1.8370 c1        1 OBI      0.016000
      9 N3         -0.6460   -0.5150   -2.2800 n2        1 OBI     -0.114000
     10 C8         -1.0110    0.5490   -1.3600 c3        1 OBI      0.071000
     11 O2         -0.0530    0.6270   -0.3090 os        1 OBI     -0.260000
     12 C7         -0.0480    1.8860    0.3720 c3        1 OBI      0.071000
     13 N2          0.1520    1.6760    1.7620 n3        1 OBI     -0.114000
     14 C4          1.3180    1.1560    2.2070 c2        1 OBI      0.010000
     15 C3          1.5430    1.0250    3.5650 c1        1 OBI     -0.140000
     16 C5         -0.7960    2.0690    2.6460 c1        1 OBI     -0.003000
     17 C6         -0.5740    1.9400    3.9980 c1        1 OBI     -0.136000
     18 C2          0.5980    1.4170    4.4470 c1        1 OBI      0.110000
     19 C1          0.8480    1.2590    5.9780 c2        1 OBI     -0.185000
     20 N1          1.4450    2.2490    6.6690 n1        1 OBI      0.095000
     21 O1          1.8380    3.4100    6.0190 o         1 OBI     -0.244000
     22 HO3        -2.3040   -4.8060   -5.8910 ho        1 OBI      0.296000
     23 H14         1.3680   -3.8230   -5.2160 ha        1 OBI      0.203000
     24 H10         0.0920   -1.0540   -5.4480 ha        1 OBI      0.208000
     25 H9         -0.4360    0.7010   -3.9260 ha        1 OBI      0.201000
     26 H12        -0.2370   -3.7850   -2.4310 ha        1 OBI      0.222000
     27 H13        -0.7650   -2.0280   -0.9070 ha        1 OBI      0.214000
     28 H81        -1.8920    0.3650   -0.9830 h2        1 OBI      0.159500
     29 H82        -1.0350    1.3910   -1.8360 h2        1 OBI      0.159500
     30 H71         0.6610    2.4340    0.0260 h2        1 OBI      0.160000
     31 H72        -0.9360    2.3510    0.2260 h2        1 OBI      0.160000
     32 H4          2.0310    0.8600    1.5410 h4        1 OBI      0.214000
     33 H3          2.3900    0.6470    3.8890 ha        1 OBI      0.209000
     34 H5         -1.6370    2.4450    2.3230 ha        1 OBI      0.202000
     35 H6         -1.2530    2.2230    4.6320 ha        1 OBI      0.221000
     36 H1          0.5690    0.4360    6.4390 h4        1 OBI      0.204000
     37 HO1         2.0330    4.0450    6.6280 ho        1 OBI      0.295000
@<TRIPOS>BOND
     1    1    2 1   
     2    1   22 1   
     3    2    3 1   
     4    3   23 1   
     5    4    5 1   
     6    4    7 1   
     7    5    6 1   
     8    5   24 1   
     9    6   25 1   
    10    7   26 1   
    11    8    9 1   
    12    8   27 1   
    13    9   10 1   
    14   10   11 1   
    15   10   28 1   
    16   10   29 1   
    17   11   12 1   
    18   12   13 1   
    19   12   30 1   
    20   12   31 1   
    21   13   14 1   
    22   13   16 1   
    23   14   15 1   
    24   14   32 1   
    25   15   33 1   
    26   16   34 1   
    27   17   18 1   
    28   17   35 1   
    29   18   19 1   
    30   19   20 1   
    31   19   36 1   
    32   21   37 1   
@<TRIPOS>SUBSTRUCTURE
     1 OBI         1 TEMP              0 ****  ****    0 ROOT
