@<TRIPOS>MOLECULE
OBI
   37    38     1     0     0
SMALL
bcc


@<TRIPOS>ATOM
      1 O3          8.3080    0.7420    0.4810 oh        1 OBI     -0.283500
      2 N4          7.0690    0.4600    0.6950 n2        1 OBI     -0.328700
      3 C14         6.2910    0.4500   -0.3690 ce        1 OBI      0.303300
      4 C11         4.8760    0.1440   -0.2640 ca        1 OBI      0.060100
      5 C10         4.0930    0.1450   -1.4440 ca        1 OBI     -0.141250
      6 C9          2.7360   -0.1510   -1.3850 ca        1 OBI     -0.018800
      7 C12         4.2280   -0.1610    0.9510 ca        1 OBI     -0.141250
      8 C13         2.8670   -0.4560    0.9630 ca        1 OBI     -0.018800
      9 N3          2.1220   -0.4480   -0.1920 na        1 OBI     -0.051100
     10 C8          0.7050   -0.8490   -0.1540 c3        1 OBI      0.203100
     11 O2          0.0290   -0.2070    0.9180 os        1 OBI     -0.403600
     12 C7         -0.6940    0.9800    0.6230 c3        1 OBI      0.203100
     13 N2         -2.1200    0.6810    0.4060 na        1 OBI     -0.051100
     14 C4         -2.7910   -0.1300    1.2890 ca        1 OBI     -0.018800
     15 C3         -4.1560   -0.3680    1.1590 ca        1 OBI     -0.141250
     16 C5         -2.8140    1.2750   -0.6210 ca        1 OBI     -0.018800
     17 C6         -4.1800    1.0680   -0.7860 ca        1 OBI     -0.141250
     18 C2         -4.8860    0.2350    0.1110 ca        1 OBI      0.060100
     19 C1         -6.3110   -0.0240    0.0130 ce        1 OBI      0.303300
     20 N1         -7.0430    0.5190   -0.9400 n2        1 OBI     -0.328700
     21 O1         -8.2960    0.2180   -0.9260 oh        1 OBI     -0.283500
     22 HO3         8.7540    0.7030    1.3630 ho        1 OBI      0.486000
     23 H14         6.6740    0.6690   -1.3890 h4        1 OBI      0.051300
     24 H10         4.5520    0.3740   -2.4230 ha        1 OBI      0.213000
     25 H9          2.1130   -0.1700   -2.3030 h4        1 OBI      0.207500
     26 H12         4.7840   -0.1810    1.9080 ha        1 OBI      0.213000
     27 H13         2.3300   -0.7090    1.9020 h4        1 OBI      0.207500
     28 H81         0.2300   -0.6370   -1.1510 h2        1 OBI      0.120200
     29 H82         0.6560   -1.9520    0.1110 h2        1 OBI      0.120200
     30 H71        -0.6030    1.6000    1.5690 h2        1 OBI      0.120200
     31 H72        -0.2850    1.5220   -0.2740 h2        1 OBI      0.120200
     32 H4         -2.1920   -0.5830    2.1080 h4        1 OBI      0.207500
     33 H3         -4.6590   -1.0270    1.8910 ha        1 OBI      0.213000
     34 H5         -2.2480    1.9380   -1.3070 h4        1 OBI      0.207500
     35 H6         -4.6970    1.5720   -1.6250 ha        1 OBI      0.213000
     36 H1         -6.7430   -0.6990    0.7840 h4        1 OBI      0.051300
     37 HO1        -8.7030    0.7010   -1.6860 ho        1 OBI      0.486000
@<TRIPOS>BOND
     1    1    2 1   
     2    1   22 1   
     3    2    3 2   
     4    3    4 1   
     5    3   23 1   
     6    4    5 ar  
     7    4    7 ar  
     8    5    6 ar  
     9    5   24 1   
    10    6    9 1   
    11    6   25 1   
    12    7    8 ar  
    13    7   26 1   
    14    8    9 2   
    15    8   27 1   
    16    9   10 1   
    17   10   11 1   
    18   10   28 1   
    19   10   29 1   
    20   11   12 1   
    21   12   13 1   
    22   12   30 1   
    23   12   31 1   
    24   13   14 1   
    25   13   16 2   
    26   14   15 ar  
    27   14   32 1   
    28   15   18 ar  
    29   15   33 1   
    30   16   17 ar  
    31   16   34 1   
    32   17   18 ar  
    33   17   35 1   
    34   18   19 1   
    35   19   20 2   
    36   19   36 1   
    37   20   21 1   
    38   21   37 1   
@<TRIPOS>SUBSTRUCTURE
     1 OBI         1 TEMP              0 ****  ****    0 ROOT
