@<TRIPOS>MOLECULE
OBP
   26    27     1     0     0
SMALL
bcc


@<TRIPOS>ATOM
      1 CX1         0.1820   -0.6060    0.1040 ca        1 OBP     -0.128000
      2 CX2         1.4830   -0.0870    0.0540 cp        1 OBP      0.067000
      3 CX3         2.0680    0.4460    1.2160 ca        1 OBP     -0.170500
      4 CX4         1.3180    0.4770    2.3970 ca        1 OBP     -0.046000
      5 CX5         0.0170   -0.0170    2.4390 ca        1 OBP     -0.151000
      6 CX6        -0.5470   -0.5690    1.2900 ca        1 OBP     -0.084000
      7 CX7         2.2010   -0.0930   -1.2240 cp        1 OBP     -0.091000
      8 CX8         2.6840    1.1050   -1.7680 ca        1 OBP     -0.095000
      9 CX9         3.3610    1.1220   -2.9850 ca        1 OBP     -0.163000
     10 CXA         3.5700   -0.0670   -3.6850 ca        1 OBP     -0.081000
     11 CXB         3.0920   -1.2700   -3.1770 ca        1 OBP     -0.211000
     12 CXC         2.3990   -1.2830   -1.9560 ca        1 OBP      0.150100
     13 OH          1.8770   -2.4440   -1.4350 oh        1 OBP     -0.488100
     14 SX1         3.6670    1.0480    1.1850 sx        1 OBP      0.629500
     15 OX1         3.8650    1.7760    2.4480 o         1 OBP     -0.542200
     16 OX2         4.5770   -0.3190    1.6290 oh        1 OBP     -0.587800
     17 HX1        -0.2510   -1.0580   -0.8020 ha        1 OBP      0.145000
     18 HX4         1.7760    0.9090    3.3060 ha        1 OBP      0.158000
     19 HX5        -0.5580    0.0220    3.3760 ha        1 OBP      0.138000
     20 HX6        -1.5690   -0.9770    1.3170 ha        1 OBP      0.134000
     21 HX8         2.5120    2.0470   -1.2250 ha        1 OBP      0.135000
     22 HX9         3.7300    2.0740   -3.3940 ha        1 OBP      0.139000
     23 HX10        4.1110   -0.0550   -4.6430 ha        1 OBP      0.138000
     24 HX11        3.2520   -2.2100   -3.7250 ha        1 OBP      0.138000
     25 HOH         2.2130   -3.1850   -1.9620 ho        1 OBP      0.423000
     26 HX2         4.7880   -0.3230    2.5650 ho        1 OBP      0.445000
@<TRIPOS>BOND
     1    1    2 ar  
     2    1    6 ar  
     3    1   17 1   
     4    2    3 ar  
     5    2    7 1   
     6    3    4 ar  
     7    3   14 1   
     8    4    5 ar  
     9    4   18 1   
    10    5    6 ar  
    11    5   19 1   
    12    6   20 1   
    13    7    8 ar  
    14    7   12 ar  
    15    8    9 ar  
    16    8   21 1   
    17    9   10 ar  
    18    9   22 1   
    19   10   11 ar  
    20   10   23 1   
    21   11   12 ar  
    22   11   24 1   
    23   12   13 1   
    24   13   25 1   
    25   14   15 2   
    26   14   16 1   
    27   16   26 1   
@<TRIPOS>SUBSTRUCTURE
     1 OBP         1 TEMP              0 ****  ****    0 ROOT
