@<TRIPOS>MOLECULE
OBP
   26    27     1     0     0
SMALL
bcc


@<TRIPOS>ATOM
      1 CX1         0.5700    2.3120    0.3100 ca        1 OBP     -0.137000
      2 CX2         0.2910    0.9810   -0.0300 cp        1 OBP      0.050000
      3 CX3         1.3440    0.1060   -0.3460 ca        1 OBP     -0.180500
      4 CX4         2.6580    0.5860   -0.3120 ca        1 OBP     -0.047000
      5 CX5         2.9340    1.9090    0.0220 ca        1 OBP     -0.148000
      6 CX6         1.8850    2.7730    0.3370 ca        1 OBP     -0.083000
      7 CX7        -1.1140    0.5550   -0.0770 cp        1 OBP     -0.165000
      8 CX8        -1.9000    0.9310   -1.1770 ca        1 OBP     -0.081000
      9 CX9        -3.2510    0.6090   -1.2330 ca        1 OBP     -0.171000
     10 CXA        -3.8470   -0.0900   -0.1780 ca        1 OBP     -0.089000
     11 CXB        -3.0950   -0.4760    0.9220 ca        1 OBP     -0.161000
     12 CXC        -1.7230   -0.1570    0.9740 ca        1 OBP      0.161100
     13 OH         -1.0670   -0.5460    2.1140 oh        1 OBP     -0.494100
     14 SX1         1.0180   -1.5040   -0.8130 sx        1 OBP      0.646500
     15 OX1         2.3080   -2.1370   -1.1030 o         1 OBP     -0.535200
     16 OX2         0.8080   -2.2110    0.7250 oh        1 OBP     -0.607800
     17 HX1        -0.2590    2.9930    0.5580 ha        1 OBP      0.146000
     18 HX4         3.4840   -0.1060   -0.5600 ha        1 OBP      0.162000
     19 HX5         3.9730    2.2690    0.0400 ha        1 OBP      0.141000
     20 HX6         2.0930    3.8190    0.6070 ha        1 OBP      0.138000
     21 HX8        -1.4340    1.4950   -2.0000 ha        1 OBP      0.136000
     22 HX9        -3.8520    0.9070   -2.1030 ha        1 OBP      0.136000
     23 HX10       -4.9190   -0.3370   -0.2210 ha        1 OBP      0.137000
     24 HX11       -3.5440   -1.0260    1.7610 ha        1 OBP      0.155000
     25 HOH        -0.1180   -0.6200    1.9120 ho        1 OBP      0.443000
     26 HX2         1.5760   -2.7180    0.9990 ho        1 OBP      0.452000
@<TRIPOS>BOND
     1    1    2 ar  
     2    1    6 ar  
     3    1   17 1   
     4    2    3 ar  
     5    2    7 1   
     6    3    4 ar  
     7    3   14 1   
     8    4    5 ar  
     9    4   18 1   
    10    5    6 ar  
    11    5   19 1   
    12    6   20 1   
    13    7    8 ar  
    14    7   12 ar  
    15    8    9 ar  
    16    8   21 1   
    17    9   10 ar  
    18    9   22 1   
    19   10   11 ar  
    20   10   23 1   
    21   11   12 ar  
    22   11   24 1   
    23   12   13 1   
    24   13   25 1   
    25   14   15 2   
    26   14   16 1   
    27   16   26 1   
@<TRIPOS>SUBSTRUCTURE
     1 OBP         1 TEMP              0 ****  ****    0 ROOT
