@<TRIPOS>MOLECULE
OBP
   26    20     1     0     0
SMALL
bcc


@<TRIPOS>ATOM
      1 CX1        -2.0730    0.1030    0.4040 c1        1 OBP     -0.051167
      2 CX2        -0.7030    0.1550    0.4190 c1        1 OBP      0.051000
      3 CX3        -0.0200    0.1950    1.6310 c1        1 OBP     -0.126400
      4 CX4        -0.7180    0.1840    2.8100 c1        1 OBP     -0.051167
      5 CX5        -2.1120    0.1310    2.7950 c1        1 OBP     -0.051167
      6 CX6        -2.7820    0.0910    1.6020 c1        1 OBP     -0.051167
      7 CX7         0.0150    0.1720   -0.7970 c1        1 OBP     -0.108000
      8 CX8         0.2880    1.3880   -1.4330 c1        1 OBP     -0.040500
      9 CX9         0.9250    1.4000   -2.6770 c1        1 OBP     -0.051167
     10 CXA         1.2890    0.2040   -3.2840 c1        1 OBP     -0.051167
     11 CXB         1.0170   -1.0150   -2.6500 c1        1 OBP     -0.161500
     12 CXC         0.3800   -1.0290   -1.4060 c1        1 OBP      0.126600
     13 OH         -0.0260   -2.2810   -0.8220 oh        1 OBP     -0.475600
     14 SX1         1.7820    0.1940    1.6490 s4        1 OBP      0.619400
     15 OX1         2.4990    1.3590    1.2480 o         1 OBP     -0.539200
     16 OX2         2.5350   -1.0270    2.1340 oh        1 OBP     -0.601800
     17 HX1        -2.5500    0.0740   -0.4430 ha        1 OBP      0.083000
     18 HX4        -0.2350    0.2140    3.6700 ha        1 OBP      0.083000
     19 HX5        -2.6060    0.1230    3.6310 ha        1 OBP      0.083000
     20 HX6        -3.7510    0.0540    1.5920 ha        1 OBP      0.083000
     21 HX8         0.0320    2.2310   -1.0060 ha        1 OBP      0.114500
     22 HX9         1.1150    2.2480   -3.1190 ha        1 OBP      0.083000
     23 HX10        1.7450    0.2130   -4.1770 ha        1 OBP      0.083000
     24 HX11        1.2690   -1.8390   -3.0690 ha        1 OBP      0.078500
     25 HOH        -0.4710   -2.7660   -1.4300 ho        1 OBP      0.421000
     26 HX2         3.1570   -0.7770    2.7290 ho        1 OBP      0.449000
@<TRIPOS>BOND
     1    1    6 3   
     2    1   17 1   
     3    2    3 3   
     4    3   14 1   
     5    4    5 3   
     6    4   18 1   
     7    5   19 1   
     8    6   20 1   
     9    7    8 3   
    10    8   21 1   
    11    9   10 3   
    12    9   22 1   
    13   10   23 1   
    14   11   12 3   
    15   11   24 1   
    16   12   13 1   
    17   13   25 1   
    18   14   15 2   
    19   14   16 1   
    20   16   26 1   
@<TRIPOS>SUBSTRUCTURE
     1 OBP         1 TEMP              0 ****  ****    0 ROOT
