@<TRIPOS>MOLECULE
OBS
   49    49     1     0     0
SMALL
bcc


@<TRIPOS>ATOM
      1 O4          3.7180   -2.6350   -6.9020 o         1 OBS     -0.866300
      2 C11         3.4510   -3.6920   -6.2590 c         1 OBS      0.906600
      3 O3          3.7540   -4.8480   -6.6870 o         1 OBS     -0.866300
      4 C10         2.6760   -3.5970   -4.9380 c3        1 OBS     -0.185400
      5 C9          3.2470   -2.5820   -3.9710 c3        1 OBS     -0.059400
      6 C8          2.2340   -2.1990   -2.8940 c3        1 OBS     -0.037700
      7 C7          1.2970   -1.1250   -3.4150 c3        1 OBS     -0.066100
      8 C5          0.7850   -0.5470   -0.8670 c3        1 OBS     -0.108400
      9 C3          2.8880   -1.7880   -1.5670 c3        1 OBS     -0.142000
     10 C2          3.7870   -0.5710   -1.6750 c3        1 OBS     -0.184400
     11 C1          4.7620   -0.4180   -0.4950 c         1 OBS      0.910600
     12 O1          5.0490   -1.4240    0.2170 o         1 OBS     -0.860800
     13 O2          5.2640    0.7310   -0.3060 o         1 OBS     -0.860800
     14 C4          1.8050   -1.6010   -0.5130 c2        1 OBS      0.451300
     15 NZ          1.6660   -2.2100    0.6150 n2        1 OBS     -0.609900
     16 CE          2.6020   -3.1760    1.1140 c3        1 OBS      0.106800
     17 CD          1.9840   -4.1650    2.1060 c3        1 OBS     -0.063400
     18 CG          1.5370   -3.5420    3.4130 c3        1 OBS     -0.074400
     19 CB          1.1370   -4.6140    4.4090 c3        1 OBS     -0.076400
     20 CA          0.5410   -4.0600    5.7070 c3        1 OBS      0.034500
     21 N           1.4260   -3.1780    6.4550 n3        1 OBS     -0.900800
     22 C           0.0040   -5.2700    6.5390 c         1 OBS      0.892600
     23 O           0.5710   -5.5600    7.6360 o         1 OBS     -0.860300
     24 OXT        -0.9930   -5.9020    6.0880 o         1 OBS     -0.860300
     25 S6         -0.0690   -0.9850   -2.3350 s4        1 OBS      0.192600
     26 O5         -0.8140    0.2670   -2.7520 o         1 OBS     -0.560200
     27 H101        2.6490   -4.6070   -4.4570 hc        1 OBS      0.014700
     28 H102        1.6210   -3.3200   -5.2020 hc        1 OBS      0.014700
     29 H9C1        3.5630   -1.6700   -4.5440 hc        1 OBS      0.053700
     30 H9C2        4.1640   -3.0050   -3.4850 hc        1 OBS      0.053700
     31 H8          1.6150   -3.1200   -2.6750 hc        1 OBS      0.025700
     32 H7C1        1.8620   -0.1680   -3.5410 h1        1 OBS      0.093200
     33 H7C2        0.9260   -1.4080   -4.4320 h1        1 OBS      0.093200
     34 H5C1        0.0210   -0.4170   -0.0570 h1        1 OBS      0.097700
     35 H5C2        1.3190    0.4340   -0.9500 h1        1 OBS      0.097700
     36 HA          3.5660   -2.6380   -1.2520 hc        1 OBS      0.091700
     37 H2C1        4.4100   -0.6690   -2.6020 hc        1 OBS      0.032700
     38 H2C2        3.1920    0.3700   -1.7700 hc        1 OBS      0.032700
     39 HEC1        3.4490   -2.6080    1.6070 h1        1 OBS      0.067200
     40 HEC2        3.0730   -3.7900    0.2900 h1        1 OBS      0.067200
     41 HDC1        2.7680   -4.9410    2.3190 hc        1 OBS      0.022200
     42 HDC2        1.1150   -4.6920    1.6320 hc        1 OBS      0.022200
     43 HGC1        0.6710   -2.8560    3.2280 hc        1 OBS      0.043700
     44 HGC2        2.3690   -2.9160    3.8290 hc        1 OBS      0.043700
     45 HBC1        2.0280   -5.2510    4.6490 hc        1 OBS      0.036700
     46 HBC2        0.3600   -5.2830    3.9520 hc        1 OBS      0.036700
     47 HB         -0.3590   -3.4340    5.4340 h1        1 OBS      0.043700
     48 HN1         1.4130   -3.4640    7.4220 hn        1 OBS      0.329300
     49 HN2         2.3690   -3.2930    6.1300 hn        1 OBS      0.329300
@<TRIPOS>BOND
     1    1    2 1   
     2    2    3 1   
     3    2    4 1   
     4    4    5 1   
     5    4   27 1   
     6    4   28 1   
     7    5    6 1   
     8    5   29 1   
     9    5   30 1   
    10    6    7 1   
    11    6    9 1   
    12    6   31 1   
    13    7   25 1   
    14    7   32 1   
    15    7   33 1   
    16    8   14 1   
    17    8   25 1   
    18    8   34 1   
    19    8   35 1   
    20    9   10 1   
    21    9   14 1   
    22    9   36 1   
    23   10   11 1   
    24   10   37 1   
    25   10   38 1   
    26   11   12 1   
    27   11   13 1   
    28   14   15 2   
    29   15   16 1   
    30   16   17 1   
    31   16   39 1   
    32   16   40 1   
    33   17   18 1   
    34   17   41 1   
    35   17   42 1   
    36   18   19 1   
    37   18   43 1   
    38   18   44 1   
    39   19   20 1   
    40   19   45 1   
    41   19   46 1   
    42   20   21 1   
    43   20   22 1   
    44   20   47 1   
    45   21   48 1   
    46   21   49 1   
    47   22   23 1   
    48   22   24 1   
    49   25   26 2   
@<TRIPOS>SUBSTRUCTURE
     1 OBS         1 TEMP              0 ****  ****    0 ROOT
