@<TRIPOS>MOLECULE
OBZ
   18    16     1     0     0
SMALL
bcc


@<TRIPOS>ATOM
      1 O2          0.2390   -0.2630   -2.2390 os        1 OBZ     -0.247000
      2 C3         -0.7800    0.0180   -1.3420 c3        1 OBZ      0.028000
      3 C4         -0.2100    0.0140    0.1030 c2        1 OBZ     -0.085000
      4 C9         -0.0800   -1.1550    0.7770 c2        1 OBZ     -0.106000
      5 C8          0.3680   -1.1560    2.1250 c1        1 OBZ     -0.132000
      6 C7          0.6710    0.0320    2.7530 c1        1 OBZ     -0.129500
      7 C6          0.5390    1.2390    2.0660 c1        1 OBZ     -0.129500
      8 C5          0.1000    1.2410    0.7450 c1        1 OBZ     -0.125000
      9 N1         -0.2340   -0.2020   -3.5060 n3        1 OBZ     -0.199000
     10 H3         -1.1850    0.9630   -1.5550 h1        1 OBZ      0.089500
     11 H3A        -1.5220   -0.7050   -1.4270 h1        1 OBZ      0.089500
     12 H9         -0.2740   -1.9340    0.3680 ha        1 OBZ      0.143000
     13 H8          0.4530   -1.9330    2.5710 ha        1 OBZ      0.131000
     14 H7          0.9740    0.0260    3.6660 ha        1 OBZ      0.131000
     15 H6          0.7690    2.1490    2.5460 ha        1 OBZ      0.131000
     16 H5          0.0080    2.0740    0.2660 ha        1 OBZ      0.131000
     17 HN1        -0.1310   -0.9410   -3.8750 hn        1 OBZ      0.139000
     18 HN1A        0.2940    0.5330   -4.0420 hn        1 OBZ      0.139000
@<TRIPOS>BOND
     1    1    2 1   
     2    1    9 1   
     3    2    3 1   
     4    2   10 1   
     5    2   11 1   
     6    3    4 1   
     7    3    8 1   
     8    4    5 1   
     9    4   12 1   
    10    5   13 1   
    11    6    7 1   
    12    6   14 1   
    13    7   15 1   
    14    8   16 1   
    15    9   17 1   
    16    9   18 1   
@<TRIPOS>SUBSTRUCTURE
     1 OBZ         1 TEMP              0 ****  ****    0 ROOT
