@<TRIPOS>MOLECULE
OBZ
   19    19     1     0     0
SMALL
bcc


@<TRIPOS>ATOM
      1 O2          0.0890   -0.0010   -0.0190 os        1 OBZ     -0.228100
      2 C3          1.5690    0.0010   -0.0740 c3        1 OBZ      0.172700
      3 C4          1.9610    0.0010    1.3540 ca        1 OBZ     -0.157300
      4 C9          2.1620   -1.2130    2.0250 ca        1 OBZ     -0.082000
      5 C8          2.5740   -1.2100    3.3550 ca        1 OBZ     -0.126000
      6 C7          2.7780    0.0000    4.0220 ca        1 OBZ     -0.072000
      7 C6          2.5700    1.2100    3.3570 ca        1 OBZ     -0.126000
      8 C5          2.1580    1.2140    2.0260 ca        1 OBZ     -0.082000
      9 N1         -0.5750   -0.0020   -1.2070 n4        1 OBZ     -0.612100
     10 H3          1.9020   -0.9240   -0.6120 h1        1 OBZ      0.074700
     11 H3A         1.8990    0.9290   -0.6110 h1        1 OBZ      0.074700
     12 H9          2.0040   -2.1680    1.5010 ha        1 OBZ      0.138000
     13 H8          2.7400   -2.1630    3.8810 ha        1 OBZ      0.158000
     14 H7          3.1040   -0.0000    5.0750 ha        1 OBZ      0.159000
     15 H6          2.7330    2.1640    3.8840 ha        1 OBZ      0.158000
     16 H5          1.9970    2.1700    1.5050 ha        1 OBZ      0.138000
     17 HN1        -0.3520    0.8450   -1.7550 hn        1 OBZ      0.471467
     18 HN1A       -1.5820   -0.0030   -0.9560 hn        1 OBZ      0.471467
     19 H13        -0.3490   -0.8460   -1.7560 hn        1 OBZ      0.471467
@<TRIPOS>BOND
     1    1    2 1   
     2    1    9 1   
     3    2    3 1   
     4    2   10 1   
     5    2   11 1   
     6    3    4 ar  
     7    3    8 ar  
     8    4    5 ar  
     9    4   12 1   
    10    5    6 ar  
    11    5   13 1   
    12    6    7 ar  
    13    6   14 1   
    14    7    8 ar  
    15    7   15 1   
    16    8   16 1   
    17    9   17 1   
    18    9   18 1   
    19    9   19 1   
@<TRIPOS>SUBSTRUCTURE
     1 OBZ         1 TEMP              0 ****  ****    0 ROOT
