@<TRIPOS>MOLECULE
OBZ
   18    18     1     0     0
SMALL
bcc


@<TRIPOS>ATOM
      1 O2          2.1550   -0.5620   -0.2060 os        1 OBZ     -0.267100
      2 C3          1.4000    0.3550    0.6330 c3        1 OBZ      0.185700
      3 C4         -0.0400    0.1820    0.2870 ca        1 OBZ     -0.092300
      4 C9         -0.5490   -1.0580   -0.1130 ca        1 OBZ     -0.115500
      5 C8         -1.9070   -1.1980   -0.3980 ca        1 OBZ     -0.131500
      6 C7         -2.7630   -0.1030   -0.2810 ca        1 OBZ     -0.128000
      7 C6         -2.2590    1.1350    0.1170 ca        1 OBZ     -0.131500
      8 C5         -0.9010    1.2800    0.3970 ca        1 OBZ     -0.115500
      9 N1          3.4860   -0.4820   -0.0020 n3        1 OBZ     -0.660300
     10 H3          1.5750    0.0980    1.7130 h1        1 OBZ      0.050200
     11 H3A         1.7410    1.4060    0.4400 h1        1 OBZ      0.050200
     12 H9          0.1310   -1.9180   -0.2080 ha        1 OBZ      0.137000
     13 H8         -2.3010   -2.1740   -0.7160 ha        1 OBZ      0.131000
     14 H7         -3.8340   -0.2150   -0.5040 ha        1 OBZ      0.131000
     15 H6         -2.9320    2.0000    0.2090 ha        1 OBZ      0.131000
     16 H5         -0.5050    2.2590    0.7050 ha        1 OBZ      0.137000
     17 HN1         3.7970   -1.4220    0.2290 hn        1 OBZ      0.343800
     18 HN1A        3.9020   -0.2480   -0.9000 hn        1 OBZ      0.343800
@<TRIPOS>BOND
     1    1    2 1   
     2    1    9 1   
     3    2    3 1   
     4    2   10 1   
     5    2   11 1   
     6    3    4 ar  
     7    3    8 ar  
     8    4    5 ar  
     9    4   12 1   
    10    5    6 ar  
    11    5   13 1   
    12    6    7 ar  
    13    6   14 1   
    14    7    8 ar  
    15    7   15 1   
    16    8   16 1   
    17    9   17 1   
    18    9   18 1   
@<TRIPOS>SUBSTRUCTURE
     1 OBZ         1 TEMP              0 ****  ****    0 ROOT
