@<TRIPOS>MOLECULE
OBZ
   19    19     1     0     0
SMALL
bcc


@<TRIPOS>ATOM
      1 O2          0.0900    0.0020   -0.0190 os        1 OBZ     -0.228100
      2 C3          1.5690    0.0010   -0.0740 c3        1 OBZ      0.172700
      3 C4          1.9610   -0.0000    1.3540 ca        1 OBZ     -0.157300
      4 C9          2.1610   -1.2140    2.0250 ca        1 OBZ     -0.082000
      5 C8          2.5720   -1.2110    3.3560 ca        1 OBZ     -0.126000
      6 C7          2.7770   -0.0020    4.0220 ca        1 OBZ     -0.072000
      7 C6          2.5710    1.2090    3.3570 ca        1 OBZ     -0.126000
      8 C5          2.1600    1.2130    2.0260 ca        1 OBZ     -0.082000
      9 N1         -0.5740    0.0030   -1.2070 nz        1 OBZ     -0.612100
     10 H3          1.9000   -0.9260   -0.6120 h1        1 OBZ      0.074700
     11 H3A         1.9020    0.9270   -0.6110 h1        1 OBZ      0.074700
     12 H9          2.0020   -2.1700    1.5020 ha        1 OBZ      0.138000
     13 H8          2.7370   -2.1650    3.8820 ha        1 OBZ      0.158000
     14 H7          3.1040   -0.0020    5.0750 ha        1 OBZ      0.159000
     15 H6          2.7350    2.1620    3.8840 ha        1 OBZ      0.158000
     16 H5          2.0000    2.1690    1.5040 ha        1 OBZ      0.138000
     17 HN1        -0.3480    0.8470   -1.7560 hn        1 OBZ      0.471467
     18 HN1A       -1.5820    0.0040   -0.9570 hn        1 OBZ      0.471467
     19 H13        -0.3510   -0.8440   -1.7550 hn        1 OBZ      0.471467
@<TRIPOS>BOND
     1    1    2 1   
     2    1    9 1   
     3    2    3 1   
     4    2   10 1   
     5    2   11 1   
     6    3    4 ar  
     7    3    8 ar  
     8    4    5 ar  
     9    4   12 1   
    10    5    6 ar  
    11    5   13 1   
    12    6    7 ar  
    13    6   14 1   
    14    7    8 ar  
    15    7   15 1   
    16    8   16 1   
    17    9   17 1   
    18    9   18 1   
    19    9   19 1   
@<TRIPOS>SUBSTRUCTURE
     1 OBZ         1 TEMP              0 ****  ****    0 ROOT
