@<TRIPOS>MOLECULE
OC9
   27    26     1     0     0
SMALL
bcc


@<TRIPOS>ATOM
      1 CAA        -3.9780   -0.0010   -2.2830 c3        1 OC9     -0.093100
      2 CAC        -2.4650   -0.0010   -2.2830 c3        1 OC9     -0.080400
      3 CAE        -1.9610   -0.0010   -0.8570 c3        1 OC9     -0.079400
      4 CAG        -0.4480   -0.0010   -0.8570 c3        1 OC9     -0.079400
      5 CAI         0.0560   -0.0000    0.5700 c3        1 OC9     -0.078400
      6 CAH         1.5690    0.0000    0.5700 c3        1 OC9     -0.078400
      7 CAF         2.0740    0.0020    1.9960 c3        1 OC9     -0.084400
      8 CAD         3.5860    0.0020    1.9960 c3        1 OC9      0.131400
      9 OAB         4.0570    0.0020    3.3260 oh        1 OC9     -0.601800
     10 HAA1       -4.3030    0.7960   -1.8230 hc        1 OC9      0.032700
     11 HAA2       -4.3030   -0.7980   -1.8230 hc        1 OC9      0.032700
     12 HAA3       -4.3030   -0.0010   -3.2040 hc        1 OC9      0.032700
     13 HAC1       -2.1400    0.7960   -2.7430 hc        1 OC9      0.038700
     14 HAC2       -2.1400   -0.7980   -2.7430 hc        1 OC9      0.038700
     15 HAE1       -2.2860    0.7960   -0.3970 hc        1 OC9      0.039700
     16 HAE2       -2.2860   -0.7980   -0.3970 hc        1 OC9      0.039700
     17 HAG1       -0.1220   -0.7980   -1.3170 hc        1 OC9      0.038700
     18 HAG2       -0.1230    0.7960   -1.3170 hc        1 OC9      0.038700
     19 HAI1       -0.2690    0.7970    1.0300 hc        1 OC9      0.041700
     20 HAI2       -0.2690   -0.7970    1.0300 hc        1 OC9      0.041700
     21 HAH1        1.8950   -0.7970    0.1100 hc        1 OC9      0.038700
     22 HAH2        1.8940    0.7970    0.1090 hc        1 OC9      0.038700
     23 HAF1        1.7480   -0.7950    2.4570 hc        1 OC9      0.055700
     24 HAF2        1.7480    0.7990    2.4550 hc        1 OC9      0.055700
     25 HAD1        3.9120    0.7990    1.5360 h1        1 OC9      0.019700
     26 HAD2        3.9120   -0.7950    1.5360 h1        1 OC9      0.019700
     27 HAB         4.9440    0.0020    3.3260 ho        1 OC9      0.398000
@<TRIPOS>BOND
     1    1    2 1   
     2    1   10 1   
     3    1   11 1   
     4    1   12 1   
     5    2    3 1   
     6    2   13 1   
     7    2   14 1   
     8    3    4 1   
     9    3   15 1   
    10    3   16 1   
    11    4    5 1   
    12    4   17 1   
    13    4   18 1   
    14    5    6 1   
    15    5   19 1   
    16    5   20 1   
    17    6    7 1   
    18    6   21 1   
    19    6   22 1   
    20    7    8 1   
    21    7   23 1   
    22    7   24 1   
    23    8    9 1   
    24    8   25 1   
    25    8   26 1   
    26    9   27 1   
@<TRIPOS>SUBSTRUCTURE
     1 OC9         1 TEMP              0 ****  ****    0 ROOT
