@<TRIPOS>MOLECULE
OC9
   27    26     1     0     0
SMALL
bcc


@<TRIPOS>ATOM
      1 CAA         5.0560   -0.3630    0.0010 c3        1 OC9     -0.093100
      2 CAC         3.8080    0.4810   -0.0020 c3        1 OC9     -0.080400
      3 CAE         2.5590   -0.3750    0.0010 c3        1 OC9     -0.079400
      4 CAG         1.3080    0.4770   -0.0020 c3        1 OC9     -0.079400
      5 CAI         0.0600   -0.3800    0.0010 c3        1 OC9     -0.078400
      6 CAH        -1.1910    0.4730   -0.0020 c3        1 OC9     -0.078400
      7 CAF        -2.4350   -0.3870    0.0010 c3        1 OC9     -0.084400
      8 CAD        -3.6830    0.4800   -0.0020 c3        1 OC9      0.131400
      9 OAB        -4.7990   -0.3970    0.0010 oh        1 OC9     -0.601800
     10 HAA1        5.0900   -1.0140    0.9080 hc        1 OC9      0.032700
     11 HAA2        5.0900   -1.0200   -0.9020 hc        1 OC9      0.032700
     12 HAA3        5.9650    0.2860   -0.0010 hc        1 OC9      0.032700
     13 HAC1        3.8040    1.1510    0.8980 hc        1 OC9      0.038700
     14 HAC2        3.8040    1.1450   -0.9070 hc        1 OC9      0.038700
     15 HAE1        2.5610   -1.0440   -0.8990 hc        1 OC9      0.039700
     16 HAE2        2.5600   -1.0380    0.9060 hc        1 OC9      0.039700
     17 HAG1        1.3070    1.1470    0.8980 hc        1 OC9      0.038700
     18 HAG2        1.3070    1.1410   -0.9070 hc        1 OC9      0.038700
     19 HAI1        0.0610   -1.0490   -0.8990 hc        1 OC9      0.041700
     20 HAI2        0.0610   -1.0430    0.9060 hc        1 OC9      0.041700
     21 HAH1       -1.1920    1.1420    0.8990 hc        1 OC9      0.038700
     22 HAH2       -1.1920    1.1360   -0.9070 hc        1 OC9      0.038700
     23 HAF1       -2.4480   -1.0550   -0.8990 hc        1 OC9      0.055700
     24 HAF2       -2.4480   -1.0490    0.9050 hc        1 OC9      0.055700
     25 HAD1       -3.7100    1.1370    0.9090 h1        1 OC9      0.019700
     26 HAD2       -3.7100    1.1310   -0.9170 h1        1 OC9      0.019700
     27 HAB        -5.5860    0.1600   -0.0010 ho        1 OC9      0.398000
@<TRIPOS>BOND
     1    1    2 1   
     2    1   10 1   
     3    1   11 1   
     4    1   12 1   
     5    2    3 1   
     6    2   13 1   
     7    2   14 1   
     8    3    4 1   
     9    3   15 1   
    10    3   16 1   
    11    4    5 1   
    12    4   17 1   
    13    4   18 1   
    14    5    6 1   
    15    5   19 1   
    16    5   20 1   
    17    6    7 1   
    18    6   21 1   
    19    6   22 1   
    20    7    8 1   
    21    7   23 1   
    22    7   24 1   
    23    8    9 1   
    24    8   25 1   
    25    8   26 1   
    26    9   27 1   
@<TRIPOS>SUBSTRUCTURE
     1 OC9         1 TEMP              0 ****  ****    0 ROOT
