@<TRIPOS>MOLECULE
OCA
   25    23     1     0     0
SMALL
bcc


@<TRIPOS>ATOM
      1 C1         -3.9220    0.0110   -2.2250 c1        1 OCA      0.327000
      2 C2         -2.4090    0.0110   -2.2250 c2        1 OCA     -0.222000
      3 C3         -1.9050    0.0110   -0.7990 c3        1 OCA     -0.144000
      4 C4         -0.3920   -0.0020   -0.7990 c3        1 OCA     -0.157000
      5 C5          0.1120    0.0100    0.6280 c3        1 OCA     -0.158000
      6 C6          1.6250   -0.0140    0.6280 c3        1 OCA     -0.157000
      7 C7          2.1290    0.0080    2.0540 c3        1 OCA     -0.160000
      8 C8          3.6420   -0.0260    2.0540 c3        1 OCA     -0.208000
      9 O1         -4.5520   -1.0790   -2.2280 o         1 OCA     -0.588500
     10 O2         -4.5520    1.1020   -2.2230 o         1 OCA     -0.588500
     11 H21        -2.0840    0.8080   -2.6850 ha        1 OCA      0.058000
     12 H22        -2.0840   -0.7860   -2.6850 ha        1 OCA      0.058000
     13 H31        -2.2230    0.8120   -0.3410 hc        1 OCA      0.083000
     14 H32        -2.2370   -0.7820   -0.3360 hc        1 OCA      0.083000
     15 H41        -0.0740   -0.8070   -1.2500 hc        1 OCA      0.065000
     16 H42        -0.0600    0.7870   -1.2680 hc        1 OCA      0.065000
     17 H51        -0.2010    0.8180    1.0770 hc        1 OCA      0.075500
     18 H52        -0.2250   -0.7760    1.0980 hc        1 OCA      0.075500
     19 H61         1.9630    0.7680    0.1510 hc        1 OCA      0.073500
     20 H62         1.9380   -0.8250    0.1840 hc        1 OCA      0.073500
     21 H71         1.8220    0.8220    2.4950 hc        1 OCA      0.075500
     22 H72         1.7860   -0.7710    2.5320 hc        1 OCA      0.075500
     23 H81         3.9680   -0.0090    2.9740 hc        1 OCA      0.065000
     24 H82         3.9850    0.7500    1.5730 hc        1 OCA      0.065000
     25 H83         3.9490   -0.8430    1.6160 hc        1 OCA      0.065000
@<TRIPOS>BOND
     1    1    9 1   
     2    1   10 1   
     3    2    3 1   
     4    2   11 1   
     5    2   12 1   
     6    3    4 1   
     7    3   13 1   
     8    3   14 1   
     9    4    5 1   
    10    4   15 1   
    11    4   16 1   
    12    5    6 1   
    13    5   17 1   
    14    5   18 1   
    15    6    7 1   
    16    6   19 1   
    17    6   20 1   
    18    7    8 1   
    19    7   21 1   
    20    7   22 1   
    21    8   23 1   
    22    8   24 1   
    23    8   25 1   
@<TRIPOS>SUBSTRUCTURE
     1 OCA         1 TEMP              0 ****  ****    0 ROOT
