@<TRIPOS>MOLECULE
OCA
   25    24     1     0     0
SMALL
bcc


@<TRIPOS>ATOM
      1 C1         -5.6220    2.4250    6.0780 c         1 OCA      0.907600
      2 C2         -5.9780    1.4930    4.9060 c3        1 OCA     -0.193400
      3 C3         -4.9550    1.5850    3.8010 c3        1 OCA     -0.065400
      4 C4         -5.3830    0.8160    2.5680 c3        1 OCA     -0.078400
      5 C5         -4.3420    0.8990    1.4730 c3        1 OCA     -0.079400
      6 C6         -4.7730    0.1380    0.2370 c3        1 OCA     -0.078400
      7 C7         -3.7310    0.2210   -0.8570 c3        1 OCA     -0.081400
      8 C8         -4.1560   -0.5340   -2.0900 c3        1 OCA     -0.090100
      9 O1         -5.2840    3.6170    5.8210 o         1 OCA     -0.853800
     10 O2         -5.7040    1.9560    7.2500 o         1 OCA     -0.853800
     11 H21        -6.0540    0.4410    5.2800 hc        1 OCA      0.018700
     12 H22        -6.9840    1.7960    4.5220 hc        1 OCA      0.018700
     13 H31        -3.9720    1.1870    4.1670 hc        1 OCA      0.043700
     14 H32        -4.7980    2.6680    3.5460 hc        1 OCA      0.043700
     15 H41        -6.3570    1.2250    2.1910 hc        1 OCA      0.025700
     16 H42        -5.5600   -0.2590    2.8370 hc        1 OCA      0.025700
     17 H51        -4.1630    1.9750    1.2090 hc        1 OCA      0.036200
     18 H52        -3.3690    0.4860    1.8490 hc        1 OCA      0.036200
     19 H61        -4.9540   -0.9370    0.5020 hc        1 OCA      0.034200
     20 H62        -5.7450    0.5530   -0.1390 hc        1 OCA      0.034200
     21 H71        -3.5500    1.2970   -1.1190 hc        1 OCA      0.036200
     22 H72        -2.7590   -0.1930   -0.4780 hc        1 OCA      0.036200
     23 H81        -4.3170   -1.6140   -1.8530 hc        1 OCA      0.025700
     24 H82        -3.3730   -0.4610   -2.8830 hc        1 OCA      0.025700
     25 H83        -5.1100   -0.1200   -2.4960 hc        1 OCA      0.025700
@<TRIPOS>BOND
     1    1    2 1   
     2    1    9 1   
     3    1   10 1   
     4    2    3 1   
     5    2   11 1   
     6    2   12 1   
     7    3    4 1   
     8    3   13 1   
     9    3   14 1   
    10    4    5 1   
    11    4   15 1   
    12    4   16 1   
    13    5    6 1   
    14    5   17 1   
    15    5   18 1   
    16    6    7 1   
    17    6   19 1   
    18    6   20 1   
    19    7    8 1   
    20    7   21 1   
    21    7   22 1   
    22    8   23 1   
    23    8   24 1   
    24    8   25 1   
@<TRIPOS>SUBSTRUCTURE
     1 OCA         1 TEMP              0 ****  ****    0 ROOT
