@<TRIPOS>MOLECULE
OCA
   25    24     1     0     0
SMALL
bcc


@<TRIPOS>ATOM
      1 C1          0.0440    0.1110    0.0380 c         1 OCA      0.907600
      2 C2          1.5790    0.0110    0.0150 c3        1 OCA     -0.193400
      3 C3          2.1440   -0.0860    1.4110 c3        1 OCA     -0.065400
      4 C4          3.6560    0.0010    1.4160 c3        1 OCA     -0.078400
      5 C5          4.2140   -0.1170    2.8180 c3        1 OCA     -0.079400
      6 C6          5.7250   -0.0220    2.8250 c3        1 OCA     -0.078400
      7 C7          6.2820   -0.1410    4.2280 c3        1 OCA     -0.081400
      8 C8          7.7850   -0.0470    4.2400 c3        1 OCA     -0.090100
      9 O1         -0.4980    0.9230    0.8440 o         1 OCA     -0.853800
     10 O2         -0.6050   -0.6150   -0.7690 o         1 OCA     -0.853800
     11 H21         1.8840   -0.8770   -0.5920 hc        1 OCA      0.018700
     12 H22         1.9730    0.9270   -0.4940 hc        1 OCA      0.018700
     13 H31         1.8230   -1.0540    1.8770 hc        1 OCA      0.043700
     14 H32         1.7080    0.7410    2.0330 hc        1 OCA      0.043700
     15 H41         3.9780    0.9770    0.9660 hc        1 OCA      0.025700
     16 H42         4.0820   -0.8140    0.7730 hc        1 OCA      0.025700
     17 H51         3.8970   -1.0950    3.2670 hc        1 OCA      0.036200
     18 H52         3.7830    0.6950    3.4610 hc        1 OCA      0.036200
     19 H61         6.1550   -0.8330    2.1810 hc        1 OCA      0.034200
     20 H62         6.0420    0.9570    2.3780 hc        1 OCA      0.034200
     21 H71         5.9620   -1.1200    4.6740 hc        1 OCA      0.036200
     22 H72         5.8480    0.6700    4.8710 hc        1 OCA      0.036200
     23 H81         8.1740   -0.1370    5.2830 hc        1 OCA      0.025700
     24 H82         8.1210    0.9330    3.8220 hc        1 OCA      0.025700
     25 H83         8.2360   -0.8620    3.6240 hc        1 OCA      0.025700
@<TRIPOS>BOND
     1    1    2 1   
     2    1    9 1   
     3    1   10 1   
     4    2    3 1   
     5    2   11 1   
     6    2   12 1   
     7    3    4 1   
     8    3   13 1   
     9    3   14 1   
    10    4    5 1   
    11    4   15 1   
    12    4   16 1   
    13    5    6 1   
    14    5   17 1   
    15    5   18 1   
    16    6    7 1   
    17    6   19 1   
    18    6   20 1   
    19    7    8 1   
    20    7   21 1   
    21    7   22 1   
    22    8   23 1   
    23    8   24 1   
    24    8   25 1   
@<TRIPOS>SUBSTRUCTURE
     1 OCA         1 TEMP              0 ****  ****    0 ROOT
