@<TRIPOS>MOLECULE
OCA
   25    24     1     0     0
SMALL
bcc


@<TRIPOS>ATOM
      1 C1          0.0380    0.0120    0.0150 c         1 OCA      0.907600
      2 C2          1.5770    0.0200    0.0250 c3        1 OCA     -0.193400
      3 C3          2.1420   -0.0210    1.4220 c3        1 OCA     -0.062400
      4 C4          3.6560   -0.0120    1.4190 c3        1 OCA     -0.079400
      5 C5          4.2140   -0.0550    2.8260 c3        1 OCA     -0.078400
      6 C6          5.7280   -0.0450    2.8250 c3        1 OCA     -0.078400
      7 C7          6.2840   -0.0890    4.2330 c3        1 OCA     -0.081400
      8 C8          7.7900   -0.0780    4.2370 c3        1 OCA     -0.090100
      9 O1         -0.5880   -0.0260    1.1130 o         1 OCA     -0.854800
     10 O2         -0.5300    0.0450   -1.1160 o         1 OCA     -0.854800
     11 H21         1.9340   -0.8620   -0.5640 hc        1 OCA      0.018700
     12 H22         1.9240    0.9420   -0.5060 hc        1 OCA      0.018700
     13 H31         1.7640   -0.9390    1.9440 hc        1 OCA      0.044700
     14 H32         1.7540    0.8570    2.0020 hc        1 OCA      0.044700
     15 H41         4.0270    0.9100    0.8980 hc        1 OCA      0.024700
     16 H42         4.0370   -0.8930    0.8390 hc        1 OCA      0.024700
     17 H51         3.8440   -0.9770    3.3470 hc        1 OCA      0.036700
     18 H52         3.8320    0.8260    3.4070 hc        1 OCA      0.036700
     19 H61         6.1090   -0.9250    2.2440 hc        1 OCA      0.033700
     20 H62         6.0970    0.8780    2.3050 hc        1 OCA      0.033700
     21 H71         5.9120   -1.0120    4.7510 hc        1 OCA      0.036700
     22 H72         5.8990    0.7910    4.8130 hc        1 OCA      0.036700
     23 H81         8.1790   -0.1110    5.2840 hc        1 OCA      0.025367
     24 H82         8.1790    0.8470    3.7460 hc        1 OCA      0.025367
     25 H83         8.1920   -0.9610    3.6830 hc        1 OCA      0.025367
@<TRIPOS>BOND
     1    1    2 1   
     2    1    9 1   
     3    1   10 1   
     4    2    3 1   
     5    2   11 1   
     6    2   12 1   
     7    3    4 1   
     8    3   13 1   
     9    3   14 1   
    10    4    5 1   
    11    4   15 1   
    12    4   16 1   
    13    5    6 1   
    14    5   17 1   
    15    5   18 1   
    16    6    7 1   
    17    6   19 1   
    18    6   20 1   
    19    7    8 1   
    20    7   21 1   
    21    7   22 1   
    22    8   23 1   
    23    8   24 1   
    24    8   25 1   
@<TRIPOS>SUBSTRUCTURE
     1 OCA         1 TEMP              0 ****  ****    0 ROOT
