@<TRIPOS>MOLECULE
OCB
   49    48     1     0     0
SMALL
bcc


@<TRIPOS>ATOM
      1 CAA        -0.0570   -0.5280   -0.0270 c3        1 OCB     -0.092100
      2 CAB         1.2330    0.2080    0.2230 c3        1 OCB     -0.079400
      3 CAC         2.0400   -0.4440    1.3260 c3        1 OCB     -0.080400
      4 CAD         3.3360    0.2980    1.5740 c3        1 OCB     -0.078400
      5 CAE         4.1400   -0.3560    2.6760 c3        1 OCB     -0.079400
      6 CAF         5.4360    0.3860    2.9210 c3        1 OCB     -0.074400
      7 CAG         6.2240   -0.2690    4.0320 c3        1 OCB     -0.142400
      8 CAH         7.5720    0.3380    4.1940 c         1 OCB      0.725100
      9 OAI         8.2820    0.9530    3.3900 o         1 OCB     -0.600000
     10 OAK         8.0580    0.3130    5.4990 os        1 OCB     -0.484900
     11 CAP         9.4280   -0.0790    5.6420 c3        1 OCB      0.167100
     12 CAQ         9.4610   -1.4480    6.3010 c3        1 OCB     -0.238400
     13 CAR         8.9760   -2.4970    5.2640 c         1 OCB      0.927600
     14 OAL         9.1290   -3.7060    5.5490 o         1 OCB     -0.820300
     15 OAS         8.4570   -2.0410    4.2000 o         1 OCB     -0.820300
     16 CAO        10.1280    0.9500    6.5410 c3        1 OCB      0.094800
     17 NAN        10.4100    2.2960    5.9110 n4        1 OCB     -0.593800
     18 CAT         9.1520    3.0860    5.7830 c3        1 OCB      0.084433
     19 CAJ        11.3570    3.0350    6.7960 c3        1 OCB      0.084433
     20 CAM        11.0280    2.1330    4.5620 c3        1 OCB      0.084433
     21 HAA1       -0.6880   -0.5430    0.8950 hc        1 OCB      0.032367
     22 HAA2        0.1440   -1.5840   -0.3300 hc        1 OCB      0.032367
     23 HAA3       -0.6360   -0.0320   -0.8430 hc        1 OCB      0.032367
     24 HAB1        1.8410    0.2340   -0.7190 hc        1 OCB      0.036700
     25 HAB2        1.0120    1.2720    0.5020 hc        1 OCB      0.036700
     26 HAC1        2.2640   -1.5080    1.0480 hc        1 OCB      0.041700
     27 HAC2        1.4340   -0.4700    2.2690 hc        1 OCB      0.041700
     28 HAD1        3.1120    1.3630    1.8500 hc        1 OCB      0.038200
     29 HAD2        3.9420    0.3230    0.6300 hc        1 OCB      0.038200
     30 HAE1        3.5350   -0.3810    3.6210 hc        1 OCB      0.046700
     31 HAE2        4.3650   -1.4200    2.3990 hc        1 OCB      0.046700
     32 HAF1        6.0540    0.3970    1.9830 hc        1 OCB      0.045700
     33 HAF2        5.2170    1.4540    3.1850 hc        1 OCB      0.045700
     34 HAG1        5.6680   -0.2230    5.0050 hc        1 OCB      0.114200
     35 HAG2        6.4180   -1.3630    3.8040 hc        1 OCB      0.114200
     36 HAP         9.9210   -0.1570    4.6310 h1        1 OCB      0.100700
     37 HAQ1        8.7780   -1.4840    7.1830 hc        1 OCB      0.052200
     38 HAQ2       10.4960   -1.7050    6.6250 hc        1 OCB      0.052200
     39 HAO1       11.1200    0.5150    6.8510 hx        1 OCB      0.093200
     40 HAO2        9.4930    1.1350    7.4520 hx        1 OCB      0.093200
     41 HAT1        8.6900    3.2150    6.7960 hx        1 OCB      0.098256
     42 HAT2        8.4390    2.5270    5.1130 hx        1 OCB      0.098256
     43 HAT3        9.3870    4.0860    5.3360 hx        1 OCB      0.098256
     44 HAJ1       11.5240    4.0670    6.3880 hx        1 OCB      0.098256
     45 HAJ2       10.9240    3.1050    7.8280 hx        1 OCB      0.098256
     46 HAJ3       12.3350    2.4870    6.8350 hx        1 OCB      0.098256
     47 HAM1       10.2540    1.7370    3.8390 hx        1 OCB      0.098256
     48 HAM2       11.3980    3.1280    4.2050 hx        1 OCB      0.098256
     49 HAM3       11.8800    1.4080    4.6320 hx        1 OCB      0.098256
@<TRIPOS>BOND
     1    1    2 1   
     2    1   21 1   
     3    1   22 1   
     4    1   23 1   
     5    2    3 1   
     6    2   24 1   
     7    2   25 1   
     8    3    4 1   
     9    3   26 1   
    10    3   27 1   
    11    4    5 1   
    12    4   28 1   
    13    4   29 1   
    14    5    6 1   
    15    5   30 1   
    16    5   31 1   
    17    6    7 1   
    18    6   32 1   
    19    6   33 1   
    20    7    8 1   
    21    7   34 1   
    22    7   35 1   
    23    8    9 2   
    24    8   10 1   
    25   10   11 1   
    26   11   12 1   
    27   11   16 1   
    28   11   36 1   
    29   12   13 1   
    30   12   37 1   
    31   12   38 1   
    32   13   14 1   
    33   13   15 1   
    34   16   17 1   
    35   16   39 1   
    36   16   40 1   
    37   17   18 1   
    38   17   19 1   
    39   17   20 1   
    40   18   41 1   
    41   18   42 1   
    42   18   43 1   
    43   19   44 1   
    44   19   45 1   
    45   19   46 1   
    46   20   47 1   
    47   20   48 1   
    48   20   49 1   
@<TRIPOS>SUBSTRUCTURE
     1 OCB         1 TEMP              0 ****  ****    0 ROOT
