@<TRIPOS>MOLECULE
OCB
   49    48     1     0     0
SMALL
bcc


@<TRIPOS>ATOM
      1 CAA        -8.1210    0.1050   -1.8520 c3        1 OCB     -0.093100
      2 CAB        -6.7510   -0.5830   -1.9330 c3        1 OCB     -0.080400
      3 CAC        -5.6500    0.3780   -1.3580 c3        1 OCB     -0.079400
      4 CAD        -4.2920   -0.3960   -1.2250 c3        1 OCB     -0.079400
      5 CAE        -3.1470    0.6140   -0.9930 c3        1 OCB     -0.079400
      6 CAF        -1.9340   -0.1150   -0.4510 c3        1 OCB     -0.078400
      7 CAG        -0.7490    0.8480   -0.3770 c3        1 OCB     -0.128400
      8 CAH         0.4240    0.1680    0.4020 c         1 OCB      0.641100
      9 OAI         0.1790   -0.7070    1.2400 o         1 OCB     -0.592000
     10 OAK         1.7990    0.4310    0.0110 os        1 OCB     -0.428900
     11 CAP         2.7100    0.3740    1.0690 c3        1 OCB      0.162100
     12 CAQ         2.3200    1.3890    2.1260 c3        1 OCB     -0.207400
     13 CAR         2.3790    0.7270    3.5240 c         1 OCB      0.897600
     14 OAL         1.6120   -0.2400    3.7980 o         1 OCB     -0.827800
     15 OAS         3.2400    1.1090    4.3690 o         1 OCB     -0.827800
     16 CAO         4.1220    0.6910    0.5500 c3        1 OCB      0.079800
     17 NAN         4.8440   -0.5410    0.3320 n4        1 OCB     -0.574800
     18 CAT         4.9360   -1.2690    1.5710 c3        1 OCB      0.071100
     19 CAJ         6.1380   -0.2480   -0.1400 c3        1 OCB      0.071100
     20 CAM         4.1590   -1.3260   -0.6280 c3        1 OCB      0.071100
     21 HAA1       -8.8050   -0.4650   -2.2940 hc        1 OCB      0.033700
     22 HAA2       -8.3630    0.2370   -0.9160 hc        1 OCB      0.033700
     23 HAA3       -8.0790    0.9700   -2.3030 hc        1 OCB      0.033700
     24 HAB1       -6.7690   -1.4040   -1.4130 hc        1 OCB      0.039200
     25 HAB2       -6.5470   -0.7920   -2.8660 hc        1 OCB      0.039200
     26 HAC1       -5.9280    0.7030   -0.4720 hc        1 OCB      0.040700
     27 HAC2       -5.5330    1.1440   -1.9670 hc        1 OCB      0.040700
     28 HAD1       -4.3410   -1.0110   -0.4680 hc        1 OCB      0.042700
     29 HAD2       -4.1220   -0.9010   -2.0440 hc        1 OCB      0.042700
     30 HAE1       -3.4340    1.2860   -0.3500 hc        1 OCB      0.042700
     31 HAE2       -2.9180    1.0470   -1.8370 hc        1 OCB      0.042700
     32 HAF1       -2.1310   -0.4540    0.4390 hc        1 OCB      0.057700
     33 HAF2       -1.7100   -0.8640   -1.0420 hc        1 OCB      0.057700
     34 HAG1       -0.4520    1.0740   -1.2850 hc        1 OCB      0.082700
     35 HAG2       -1.0220    1.6640    0.0900 hc        1 OCB      0.082700
     36 HAP         2.7010   -0.5320    1.4640 h1        1 OCB      0.077700
     37 HAQ1        1.4100    1.7080    1.9530 hc        1 OCB      0.067700
     38 HAQ2        2.9400    2.1440    2.0970 hc        1 OCB      0.067700
     39 HAO1        4.6010    1.2380    1.2170 hx        1 OCB      0.117200
     40 HAO2        4.0570    1.1850   -0.2940 hx        1 OCB      0.117200
     41 HAT1        5.1800   -0.6480    2.3000 hx        1 OCB      0.102589
     42 HAT2        5.6260   -1.9690    1.4900 hx        1 OCB      0.102589
     43 HAT3        4.0810   -1.6800    1.7690 hx        1 OCB      0.102589
     44 HAJ1        6.0750    0.2270   -0.9860 hx        1 OCB      0.102589
     45 HAJ2        6.6040    0.3080    0.5110 hx        1 OCB      0.102589
     46 HAJ3        6.6410   -1.0940   -0.2730 hx        1 OCB      0.102589
     47 HAM1        4.7700   -2.0300   -0.9760 hx        1 OCB      0.102589
     48 HAM2        3.3850   -1.7460   -0.2110 hx        1 OCB      0.102589
     49 HAM3        3.8630   -0.7540   -1.3680 hx        1 OCB      0.102589
@<TRIPOS>BOND
     1    1    2 1   
     2    1   21 1   
     3    1   22 1   
     4    1   23 1   
     5    2    3 1   
     6    2   24 1   
     7    2   25 1   
     8    3    4 1   
     9    3   26 1   
    10    3   27 1   
    11    4    5 1   
    12    4   28 1   
    13    4   29 1   
    14    5    6 1   
    15    5   30 1   
    16    5   31 1   
    17    6    7 1   
    18    6   32 1   
    19    6   33 1   
    20    7    8 1   
    21    7   34 1   
    22    7   35 1   
    23    8    9 2   
    24    8   10 1   
    25   10   11 1   
    26   11   12 1   
    27   11   16 1   
    28   11   36 1   
    29   12   13 1   
    30   12   37 1   
    31   12   38 1   
    32   13   14 1   
    33   13   15 1   
    34   16   17 1   
    35   16   39 1   
    36   16   40 1   
    37   17   18 1   
    38   17   19 1   
    39   17   20 1   
    40   18   41 1   
    41   18   42 1   
    42   18   43 1   
    43   19   44 1   
    44   19   45 1   
    45   19   46 1   
    46   20   47 1   
    47   20   48 1   
    48   20   49 1   
@<TRIPOS>SUBSTRUCTURE
     1 OCB         1 TEMP              0 ****  ****    0 ROOT
