@<TRIPOS>MOLECULE
OCB
   49    48     1     0     0
SMALL
bcc


@<TRIPOS>ATOM
      1 CAA        -0.0530   -0.5230   -0.0350 c3        1 OCB     -0.092100
      2 CAB         1.2320    0.2180    0.2240 c3        1 OCB     -0.079400
      3 CAC         2.0440   -0.4420    1.3170 c3        1 OCB     -0.080400
      4 CAD         3.3350    0.3060    1.5740 c3        1 OCB     -0.078400
      5 CAE         4.1440   -0.3570    2.6680 c3        1 OCB     -0.079400
      6 CAF         5.4360    0.3910    2.9210 c3        1 OCB     -0.074400
      7 CAG         6.2290   -0.2740    4.0240 c3        1 OCB     -0.142400
      8 CAH         7.5720    0.3400    4.1920 c         1 OCB      0.725100
      9 OAI         8.2780    0.9700    3.3960 o         1 OCB     -0.600000
     10 OAK         8.0600    0.3020    5.4960 os        1 OCB     -0.484900
     11 CAP         9.4320   -0.0840    5.6320 c3        1 OCB      0.167100
     12 CAQ         9.4750   -1.4610    6.2730 c3        1 OCB     -0.238400
     13 CAR         8.9950   -2.5000    5.2230 c         1 OCB      0.927600
     14 OAL         9.1570   -3.7120    5.4920 o         1 OCB     -0.820300
     15 OAS         8.4730   -2.0330    4.1650 o         1 OCB     -0.820300
     16 CAO        10.1280    0.9380    6.5440 c3        1 OCB      0.094800
     17 NAN        10.4010    2.2930    5.9310 n4        1 OCB     -0.593800
     18 CAT         9.1380    3.0770    5.8150 c3        1 OCB      0.084433
     19 CAJ        11.3440    3.0270    6.8250 c3        1 OCB      0.084433
     20 CAM        11.0180    2.1520    4.5800 c3        1 OCB      0.084433
     21 HAA1        0.1550   -1.5740   -0.3510 hc        1 OCB      0.032367
     22 HAA2       -0.6360   -0.0210   -0.8450 hc        1 OCB      0.032367
     23 HAA3       -0.6840   -0.5540    0.8860 hc        1 OCB      0.032367
     24 HAB1        1.0040    1.2780    0.5150 hc        1 OCB      0.036700
     25 HAB2        1.8400    0.2600   -0.7190 hc        1 OCB      0.036700
     26 HAC1        1.4390   -0.4840    2.2610 hc        1 OCB      0.041700
     27 HAC2        2.2750   -1.5010    1.0260 hc        1 OCB      0.041700
     28 HAD1        3.9400    0.3460    0.6310 hc        1 OCB      0.038200
     29 HAD2        3.1040    1.3650    1.8640 hc        1 OCB      0.038200
     30 HAE1        3.5400   -0.3980    3.6120 hc        1 OCB      0.046700
     31 HAE2        4.3760   -1.4160    2.3770 hc        1 OCB      0.046700
     32 HAF1        5.2090    1.4540    3.2000 hc        1 OCB      0.045700
     33 HAF2        6.0520    0.4180    1.9830 hc        1 OCB      0.045700
     34 HAG1        5.6730   -0.2420    4.9970 hc        1 OCB      0.114200
     35 HAG2        6.4290   -1.3630    3.7810 hc        1 OCB      0.114200
     36 HAP         9.9260   -0.1450    4.6200 h1        1 OCB      0.100700
     37 HAQ1       10.5130   -1.7160    6.5930 hc        1 OCB      0.052200
     38 HAQ2        8.7930   -1.5130    7.1550 hc        1 OCB      0.052200
     39 HAO1        9.4930    1.1070    7.4580 hx        1 OCB      0.093200
     40 HAO2       11.1220    0.5050    6.8480 hx        1 OCB      0.093200
     41 HAT1        8.6750    3.1900    6.8300 hx        1 OCB      0.098256
     42 HAT2        9.3660    4.0850    5.3810 hx        1 OCB      0.098256
     43 HAT3        8.4270    2.5230    5.1390 hx        1 OCB      0.098256
     44 HAJ1       12.3260    2.4850    6.8560 hx        1 OCB      0.098256
     45 HAJ2       11.5040    4.0640    6.4310 hx        1 OCB      0.098256
     46 HAJ3       10.9120    3.0800    7.8580 hx        1 OCB      0.098256
     47 HAM1       11.3810    3.1540    4.2350 hx        1 OCB      0.098256
     48 HAM2       10.2450    1.7610    3.8530 hx        1 OCB      0.098256
     49 HAM3       11.8750    1.4310    4.6390 hx        1 OCB      0.098256
@<TRIPOS>BOND
     1    1    2 1   
     2    1   21 1   
     3    1   22 1   
     4    1   23 1   
     5    2    3 1   
     6    2   24 1   
     7    2   25 1   
     8    3    4 1   
     9    3   26 1   
    10    3   27 1   
    11    4    5 1   
    12    4   28 1   
    13    4   29 1   
    14    5    6 1   
    15    5   30 1   
    16    5   31 1   
    17    6    7 1   
    18    6   32 1   
    19    6   33 1   
    20    7    8 1   
    21    7   34 1   
    22    7   35 1   
    23    8    9 2   
    24    8   10 1   
    25   10   11 1   
    26   11   12 1   
    27   11   16 1   
    28   11   36 1   
    29   12   13 1   
    30   12   37 1   
    31   12   38 1   
    32   13   14 1   
    33   13   15 1   
    34   16   17 1   
    35   16   39 1   
    36   16   40 1   
    37   17   18 1   
    38   17   19 1   
    39   17   20 1   
    40   18   41 1   
    41   18   42 1   
    42   18   43 1   
    43   19   44 1   
    44   19   45 1   
    45   19   46 1   
    46   20   47 1   
    47   20   48 1   
    48   20   49 1   
@<TRIPOS>SUBSTRUCTURE
     1 OCB         1 TEMP              0 ****  ****    0 ROOT
