@<TRIPOS>MOLECULE
OCB
   49    48     1     0     0
SMALL
bcc


@<TRIPOS>ATOM
      1 CAA        -0.0470   -0.5240   -0.0460 c3        1 OCB     -0.092100
      2 CAB         1.2450    0.2090    0.2050 c3        1 OCB     -0.079400
      3 CAC         2.0470   -0.4410    1.3120 c3        1 OCB     -0.080400
      4 CAD         3.3430    0.2990    1.5620 c3        1 OCB     -0.078400
      5 CAE         4.1430   -0.3540    2.6690 c3        1 OCB     -0.079400
      6 CAF         5.4400    0.3860    2.9160 c3        1 OCB     -0.074400
      7 CAG         6.2230   -0.2690    4.0310 c3        1 OCB     -0.142400
      8 CAH         7.5710    0.3370    4.1970 c         1 OCB      0.725100
      9 OAI         8.2840    0.9500    3.3940 o         1 OCB     -0.600000
     10 OAK         8.0530    0.3140    5.5030 os        1 OCB     -0.484900
     11 CAP         9.4210   -0.0800    5.6510 c3        1 OCB      0.167100
     12 CAQ         9.4510   -1.4480    6.3120 c3        1 OCB     -0.238400
     13 CAR         8.9680   -2.4980    5.2750 c         1 OCB      0.927600
     14 OAL         9.1190   -3.7070    5.5620 o         1 OCB     -0.820300
     15 OAS         8.4530   -2.0430    4.2090 o         1 OCB     -0.820300
     16 CAO        10.1200    0.9500    6.5510 c3        1 OCB      0.094800
     17 NAN        10.4060    2.2940    5.9200 n4        1 OCB     -0.593800
     18 CAT         9.1490    3.0860    5.7870 c3        1 OCB      0.084433
     19 CAJ        11.3510    3.0340    6.8070 c3        1 OCB      0.084433
     20 CAM        11.0280    2.1290    4.5740 c3        1 OCB      0.084433
     21 HAA1        0.1520   -1.5820   -0.3430 hc        1 OCB      0.032367
     22 HAA2       -0.6220   -0.0300   -0.8660 hc        1 OCB      0.032367
     23 HAA3       -0.6800   -0.5330    0.8740 hc        1 OCB      0.032367
     24 HAB1        1.8570    0.2290   -0.7360 hc        1 OCB      0.036700
     25 HAB2        1.0270    1.2750    0.4780 hc        1 OCB      0.036700
     26 HAC1        2.2690   -1.5070    1.0390 hc        1 OCB      0.041700
     27 HAC2        1.4380   -0.4620    2.2540 hc        1 OCB      0.041700
     28 HAD1        3.9530    0.3180    0.6200 hc        1 OCB      0.038200
     29 HAD2        3.1220    1.3640    1.8350 hc        1 OCB      0.038200
     30 HAE1        4.3660   -1.4190    2.3960 hc        1 OCB      0.046700
     31 HAE2        3.5350   -0.3750    3.6120 hc        1 OCB      0.046700
     32 HAF1        5.2220    1.4550    3.1770 hc        1 OCB      0.045700
     33 HAF2        6.0600    0.3930    1.9800 hc        1 OCB      0.045700
     34 HAG1        6.4160   -1.3630    3.8050 hc        1 OCB      0.114200
     35 HAG2        5.6640   -0.2190    5.0020 hc        1 OCB      0.114200
     36 HAP         9.9190   -0.1600    4.6420 h1        1 OCB      0.100700
     37 HAQ1       10.4850   -1.7050    6.6410 hc        1 OCB      0.052200
     38 HAQ2        8.7650   -1.4820    7.1920 hc        1 OCB      0.052200
     39 HAO1        9.4830    1.1370    7.4600 hx        1 OCB      0.093200
     40 HAO2       11.1100    0.5140    6.8650 hx        1 OCB      0.093200
     41 HAT1        8.6830    3.2160    6.7980 hx        1 OCB      0.098256
     42 HAT2        8.4380    2.5260    5.1150 hx        1 OCB      0.098256
     43 HAT3        9.3870    4.0850    5.3400 hx        1 OCB      0.098256
     44 HAJ1       11.5200    4.0650    6.3990 hx        1 OCB      0.098256
     45 HAJ2       12.3280    2.4850    6.8510 hx        1 OCB      0.098256
     46 HAJ3       10.9140    3.1050    7.8380 hx        1 OCB      0.098256
     47 HAM1       10.2560    1.7330    3.8490 hx        1 OCB      0.098256
     48 HAM2       11.4000    3.1230    4.2160 hx        1 OCB      0.098256
     49 HAM3       11.8790    1.4030    4.6470 hx        1 OCB      0.098256
@<TRIPOS>BOND
     1    1    2 1   
     2    1   21 1   
     3    1   22 1   
     4    1   23 1   
     5    2    3 1   
     6    2   24 1   
     7    2   25 1   
     8    3    4 1   
     9    3   26 1   
    10    3   27 1   
    11    4    5 1   
    12    4   28 1   
    13    4   29 1   
    14    5    6 1   
    15    5   30 1   
    16    5   31 1   
    17    6    7 1   
    18    6   32 1   
    19    6   33 1   
    20    7    8 1   
    21    7   34 1   
    22    7   35 1   
    23    8    9 2   
    24    8   10 1   
    25   10   11 1   
    26   11   12 1   
    27   11   16 1   
    28   11   36 1   
    29   12   13 1   
    30   12   37 1   
    31   12   38 1   
    32   13   14 1   
    33   13   15 1   
    34   16   17 1   
    35   16   39 1   
    36   16   40 1   
    37   17   18 1   
    38   17   19 1   
    39   17   20 1   
    40   18   41 1   
    41   18   42 1   
    42   18   43 1   
    43   19   44 1   
    44   19   45 1   
    45   19   46 1   
    46   20   47 1   
    47   20   48 1   
    48   20   49 1   
@<TRIPOS>SUBSTRUCTURE
     1 OCB         1 TEMP              0 ****  ****    0 ROOT
