@<TRIPOS>MOLECULE
OCB
   49    48     1     0     0
SMALL
bcc


@<TRIPOS>ATOM
      1 CAA         8.4500   -0.0940   -0.2710 c3        1 OCB     -0.092100
      2 CAB         7.1780    0.4930    0.2840 c3        1 OCB     -0.079400
      3 CAC         5.9540   -0.1200   -0.3640 c3        1 OCB     -0.080400
      4 CAD         4.6790    0.4730    0.1960 c3        1 OCB     -0.078400
      5 CAE         3.4580   -0.1420   -0.4540 c3        1 OCB     -0.079400
      6 CAF         2.1830    0.4500    0.1100 c3        1 OCB     -0.074400
      7 CAG         0.9720   -0.1640   -0.5560 c3        1 OCB     -0.142400
      8 CAH        -0.2970    0.2790    0.0800 c         1 OCB      0.725100
      9 OAI        -0.5260    0.6950    1.2210 o         1 OCB     -0.600000
     10 OAK        -1.3810    0.3480   -0.7920 os        1 OCB     -0.484900
     11 CAP        -2.6090   -0.1990   -0.2980 c3        1 OCB      0.167100
     12 CAQ        -2.9050   -1.4720   -1.0750 c3        1 OCB     -0.238400
     13 CAR        -1.9050   -2.5660   -0.6110 c         1 OCB      0.927600
     14 OAL        -2.1220   -3.7410   -0.9820 o         1 OCB     -0.820300
     15 OAS        -0.9390   -2.1770    0.1140 o         1 OCB     -0.820300
     16 CAO        -3.7220    0.8310   -0.5400 c3        1 OCB      0.094800
     17 NAN        -3.7100    2.0430    0.3640 n4        1 OCB     -0.593800
     18 CAT        -2.6050    2.9690   -0.0190 c3        1 OCB      0.084433
     19 CAJ        -5.0120    2.7540    0.2080 c3        1 OCB      0.084433
     20 CAM        -3.5410    1.6410    1.7910 c3        1 OCB      0.084433
     21 HAA1        9.3380    0.3710    0.2200 hc        1 OCB      0.032367
     22 HAA2        8.4850   -1.1960   -0.0930 hc        1 OCB      0.032367
     23 HAA3        8.5200    0.0860   -1.3710 hc        1 OCB      0.032367
     24 HAB1        7.1370    0.3250    1.3930 hc        1 OCB      0.036700
     25 HAB2        7.1710    1.6030    0.1190 hc        1 OCB      0.036700
     26 HAC1        5.9930    0.0480   -1.4730 hc        1 OCB      0.041700
     27 HAC2        5.9570   -1.2290   -0.1980 hc        1 OCB      0.041700
     28 HAD1        4.6400    0.3040    1.3040 hc        1 OCB      0.038200
     29 HAD2        4.6760    1.5830    0.0300 hc        1 OCB      0.038200
     30 HAE1        3.4950    0.0260   -1.5620 hc        1 OCB      0.046700
     31 HAE2        3.4600   -1.2520   -0.2870 hc        1 OCB      0.046700
     32 HAF1        2.1330    0.2670    1.2160 hc        1 OCB      0.045700
     33 HAF2        2.1820    1.5610   -0.0430 hc        1 OCB      0.045700
     34 HAG1        0.9490    0.0720   -1.6510 hc        1 OCB      0.114200
     35 HAG2        0.9780   -1.2930   -0.4500 hc        1 OCB      0.114200
     36 HAP        -2.5110   -0.4610    0.7940 h1        1 OCB      0.100700
     37 HAQ1       -3.9460   -1.8200   -0.8780 hc        1 OCB      0.052200
     38 HAQ2       -2.7680   -1.3120   -2.1700 hc        1 OCB      0.052200
     39 HAO1       -3.6530    1.2050   -1.5990 hx        1 OCB      0.093200
     40 HAO2       -4.7090    0.3110   -0.3840 hx        1 OCB      0.093200
     41 HAT1       -2.7340    3.2770   -1.0890 hx        1 OCB      0.098256
     42 HAT2       -2.6290    3.8690    0.6470 hx        1 OCB      0.098256
     43 HAT3       -1.6220    2.4310    0.1010 hx        1 OCB      0.098256
     44 HAJ1       -5.8440    2.0930    0.5680 hx        1 OCB      0.098256
     45 HAJ2       -4.9990    3.6990    0.8120 hx        1 OCB      0.098256
     46 HAJ3       -5.1720    3.0030   -0.8740 hx        1 OCB      0.098256
     47 HAM1       -2.4870    1.2650    1.9540 hx        1 OCB      0.098256
     48 HAM2       -3.7260    2.5290    2.4480 hx        1 OCB      0.098256
     49 HAM3       -4.2710    0.8250    2.0330 hx        1 OCB      0.098256
@<TRIPOS>BOND
     1    1    2 1   
     2    1   21 1   
     3    1   22 1   
     4    1   23 1   
     5    2    3 1   
     6    2   24 1   
     7    2   25 1   
     8    3    4 1   
     9    3   26 1   
    10    3   27 1   
    11    4    5 1   
    12    4   28 1   
    13    4   29 1   
    14    5    6 1   
    15    5   30 1   
    16    5   31 1   
    17    6    7 1   
    18    6   32 1   
    19    6   33 1   
    20    7    8 1   
    21    7   34 1   
    22    7   35 1   
    23    8    9 2   
    24    8   10 1   
    25   10   11 1   
    26   11   12 1   
    27   11   16 1   
    28   11   36 1   
    29   12   13 1   
    30   12   37 1   
    31   12   38 1   
    32   13   14 1   
    33   13   15 1   
    34   16   17 1   
    35   16   39 1   
    36   16   40 1   
    37   17   18 1   
    38   17   19 1   
    39   17   20 1   
    40   18   41 1   
    41   18   42 1   
    42   18   43 1   
    43   19   44 1   
    44   19   45 1   
    45   19   46 1   
    46   20   47 1   
    47   20   48 1   
    48   20   49 1   
@<TRIPOS>SUBSTRUCTURE
     1 OCB         1 TEMP              0 ****  ****    0 ROOT
