@<TRIPOS>MOLECULE
OCC
   85    87     1     0     0
SMALL
bcc


@<TRIPOS>ATOM
      1 C5          0.1470   -0.0500    0.2080 ce        1 OCC     -0.080200
      2 C10         1.5900   -0.2610    0.0990 ce        1 OCC     -0.075200
      3 C1          2.3270   -0.5910    1.3720 c3        1 OCC      0.167300
      4 C2          1.5620   -1.6510    2.1830 c3        1 OCC      0.066100
      5 C3          0.1040   -1.2130    2.4070 c3        1 OCC      0.153100
      6 C4         -0.5900   -1.0260    1.0620 c3        1 OCC     -0.037200
      7 C6         -0.5210    0.9400   -0.4200 cf        1 OCC     -0.102000
      8 C7          0.0890    1.9600   -1.2420 cf        1 OCC     -0.152000
      9 C8         -0.5320    2.6690   -2.2000 c2        1 OCC     -0.079400
     10 C14         0.1470    3.7160   -3.0080 c3        1 OCC     -0.036500
     11 C13        -0.6160    5.0690   -2.9270 c3        1 OCC     -0.040000
     12 C12        -1.9850    4.8400   -3.5490 c3        1 OCC     -0.067400
     13 C11        -2.7320    3.7400   -2.8150 c3        1 OCC     -0.073400
     14 C9         -1.9410    2.4530   -2.6480 c3        1 OCC     -0.044200
     15 C15         1.5950    4.0980   -2.7390 c3        1 OCC     -0.074400
     16 C16         1.7440    5.4900   -3.3550 c3        1 OCC     -0.079400
     17 C17         0.3330    5.9980   -3.7200 c3        1 OCC     -0.053700
     18 C19         2.2530   -0.1880   -1.0620 c2        1 OCC     -0.190000
     19 O2         -0.6120   -2.2130    3.1120 oh        1 OCC     -0.600800
     20 O1          2.5080    0.6120    2.1060 oh        1 OCC     -0.589800
     21 C20         0.1870    7.4970   -3.4780 c3        1 OCC     -0.055700
     22 C22         1.2040    8.2700   -4.3160 c3        1 OCC     -0.079400
     23 C18        -0.7490    5.5360   -1.4880 c3        1 OCC     -0.083100
     24 C21        -1.2110    7.9850   -3.8080 c3        1 OCC     -0.091100
     25 C23         1.5120    9.6270   -3.7180 c3        1 OCC     -0.079400
     26 C24         2.4650   10.4020   -4.6020 c3        1 OCC     -0.064400
     27 C25         2.9610   11.6990   -3.9530 c3        1 OCC      0.147800
     28 O25         3.6930   11.3050   -2.7900 oh        1 OCC     -0.597800
     29 C27         3.8890   12.4300   -4.9190 c3        1 OCC     -0.123100
     30 C26         1.8060   12.6100   -3.5570 c3        1 OCC     -0.123100
     31 O28         2.1320   -1.7660    3.4890 os        1 OCC     -0.438600
     32 C29         3.2480   -2.6550    3.5420 c3        1 OCC      0.129400
     33 C30         3.7210   -2.6620    4.9840 c3        1 OCC     -0.090400
     34 C31         4.9170   -3.5870    5.1280 c3        1 OCC      0.133400
     35 O32         5.2990   -3.5530    6.4930 oh        1 OCC     -0.596800
     36 H1          3.3530   -0.9980    1.1280 h1        1 OCC      0.035700
     37 H2          1.5900   -2.6390    1.6500 h1        1 OCC      0.066700
     38 H3          0.0990   -0.2520    2.9940 h1        1 OCC      0.059700
     39 H41        -1.6430   -0.6890    1.2490 hc        1 OCC      0.063700
     40 H42        -0.6460   -2.0170    0.5350 hc        1 OCC      0.063700
     41 H6         -1.6150    1.0140   -0.2800 ha        1 OCC      0.124000
     42 H7          1.1570    2.1560   -1.0270 ha        1 OCC      0.139000
     43 H14         0.0940    3.3650   -4.0830 hc        1 OCC      0.052700
     44 H121       -1.8620    4.5600   -4.6280 hc        1 OCC      0.041700
     45 H122       -2.5930    5.7800   -3.5130 hc        1 OCC      0.041700
     46 H111       -3.6770    3.5070   -3.3750 hc        1 OCC      0.040700
     47 H112       -3.0330    4.1170   -1.8020 hc        1 OCC      0.040700
     48 H91        -1.9030    1.9160   -3.6360 hc        1 OCC      0.046700
     49 H92        -2.4920    1.7870   -1.9340 hc        1 OCC      0.046700
     50 H151        1.8060    4.1320   -1.6410 hc        1 OCC      0.046200
     51 H152        2.3020    3.3670   -3.2010 hc        1 OCC      0.046200
     52 H161        2.2340    6.1830   -2.6260 hc        1 OCC      0.043700
     53 H162        2.3840    5.4470   -4.2700 hc        1 OCC      0.043700
     54 H17         0.1550    5.8110   -4.8160 hc        1 OCC      0.044700
     55 H191        1.7460    0.0300   -2.0120 ha        1 OCC      0.120500
     56 H192        3.3380   -0.3420   -1.1290 ha        1 OCC      0.120500
     57 HO2        -0.1460   -2.3420    3.9490 ho        1 OCC      0.415000
     58 HO1         2.6110    0.3640    3.0350 ho        1 OCC      0.415000
     59 H20         0.3920    7.7040   -2.3890 hc        1 OCC      0.053700
     60 H221        0.8070    8.3950   -5.3570 hc        1 OCC      0.040200
     61 H222        2.1600    7.6900   -4.3970 hc        1 OCC      0.040200
     62 H181       -1.1610    4.7190   -0.8470 hc        1 OCC      0.038033
     63 H182       -1.4310    6.4170   -1.4230 hc        1 OCC      0.038033
     64 H183        0.2500    5.8260   -1.0800 hc        1 OCC      0.038033
     65 H211       -1.2270    9.1000   -3.8830 hc        1 OCC      0.033367
     66 H212       -1.9340    7.6850   -3.0120 hc        1 OCC      0.033367
     67 H213       -1.5570    7.5630   -4.7820 hc        1 OCC      0.033367
     68 H231        1.9730    9.5010   -2.7020 hc        1 OCC      0.048700
     69 H232        0.5640   10.2110   -3.5840 hc        1 OCC      0.048700
     70 H241        3.3590    9.7650   -4.8340 hc        1 OCC      0.047200
     71 H242        1.9660   10.6640   -5.5700 hc        1 OCC      0.047200
     72 H25         4.0060   12.1160   -2.3730 ho        1 OCC      0.397000
     73 H271        4.7500   11.7740   -5.1890 hc        1 OCC      0.042200
     74 H272        4.2850   13.3600   -4.4460 hc        1 OCC      0.042200
     75 H273        3.3350   12.7060   -5.8460 hc        1 OCC      0.042200
     76 H261        1.2360   12.1580   -2.7110 hc        1 OCC      0.042200
     77 H262        1.1180   12.7550   -4.4230 hc        1 OCC      0.042200
     78 H263        2.1910   13.6060   -3.2330 hc        1 OCC      0.042200
     79 H291        2.9260   -3.6810    3.2170 h1        1 OCC      0.032200
     80 H292        4.0540   -2.2870    2.8540 h1        1 OCC      0.032200
     81 H301        4.0010   -1.6250    5.3020 hc        1 OCC      0.070200
     82 H302        2.8930   -3.0030    5.6580 hc        1 OCC      0.070200
     83 H311        4.6450   -4.6360    4.8320 h1        1 OCC      0.021700
     84 H312        5.7680   -3.2380    4.4830 h1        1 OCC      0.021700
     85 H32         6.0610   -4.1370    6.5800 ho        1 OCC      0.402000
@<TRIPOS>BOND
     1    1    2 1   
     2    1    6 1   
     3    1    7 2   
     4    2    3 1   
     5    2   18 2   
     6    3    4 1   
     7    3   20 1   
     8    3   36 1   
     9    4    5 1   
    10    4   31 1   
    11    4   37 1   
    12    5    6 1   
    13    5   19 1   
    14    5   38 1   
    15    6   39 1   
    16    6   40 1   
    17    7    8 1   
    18    7   41 1   
    19    8    9 2   
    20    8   42 1   
    21    9   10 1   
    22    9   14 1   
    23   10   11 1   
    24   10   15 1   
    25   10   43 1   
    26   11   12 1   
    27   11   17 1   
    28   11   23 1   
    29   12   13 1   
    30   12   44 1   
    31   12   45 1   
    32   13   14 1   
    33   13   46 1   
    34   13   47 1   
    35   14   48 1   
    36   14   49 1   
    37   15   16 1   
    38   15   50 1   
    39   15   51 1   
    40   16   17 1   
    41   16   52 1   
    42   16   53 1   
    43   17   21 1   
    44   17   54 1   
    45   18   55 1   
    46   18   56 1   
    47   19   57 1   
    48   20   58 1   
    49   21   22 1   
    50   21   24 1   
    51   21   59 1   
    52   22   25 1   
    53   22   60 1   
    54   22   61 1   
    55   23   62 1   
    56   23   63 1   
    57   23   64 1   
    58   24   65 1   
    59   24   66 1   
    60   24   67 1   
    61   25   26 1   
    62   25   68 1   
    63   25   69 1   
    64   26   27 1   
    65   26   70 1   
    66   26   71 1   
    67   27   28 1   
    68   27   29 1   
    69   27   30 1   
    70   28   72 1   
    71   29   73 1   
    72   29   74 1   
    73   29   75 1   
    74   30   76 1   
    75   30   77 1   
    76   30   78 1   
    77   31   32 1   
    78   32   33 1   
    79   32   79 1   
    80   32   80 1   
    81   33   34 1   
    82   33   81 1   
    83   33   82 1   
    84   34   35 1   
    85   34   83 1   
    86   34   84 1   
    87   35   85 1   
@<TRIPOS>SUBSTRUCTURE
     1 OCC         1 TEMP              0 ****  ****    0 ROOT
