@<TRIPOS>MOLECULE
OCC
   85    87     1     0     0
SMALL
bcc


@<TRIPOS>ATOM
      1 C5          0.0660   -0.2050    0.0450 ce        1 OCC     -0.096200
      2 C10         1.5090   -0.4160   -0.0620 ce        1 OCC     -0.116200
      3 C1          2.2490   -0.7110    1.2170 c3        1 OCC      0.159300
      4 C2          1.4900   -1.7340    2.0780 c3        1 OCC      0.075100
      5 C3          0.0030   -1.3690    2.2380 c3        1 OCC      0.155100
      6 C4         -0.6600   -1.2110    0.8740 c3        1 OCC     -0.041200
      7 C6         -0.6070    0.7930   -0.5630 cf        1 OCC     -0.101000
      8 C7         -0.0000    1.8290   -1.3670 cf        1 OCC     -0.160000
      9 C8         -0.6360    2.6010   -2.2640 c2        1 OCC     -0.070400
     10 C14         0.0470    3.6540   -3.0600 c3        1 OCC     -0.039500
     11 C13        -0.6570    5.0310   -2.8900 c3        1 OCC     -0.040000
     12 C12        -2.0600    4.8800   -3.4570 c3        1 OCC     -0.067400
     13 C11        -2.8170    3.7790   -2.7350 c3        1 OCC     -0.073400
     14 C9         -2.0710    2.4580   -2.6560 c3        1 OCC     -0.046200
     15 C15         1.5200    3.9690   -2.8450 c3        1 OCC     -0.074400
     16 C16         1.6960    5.3790   -3.4110 c3        1 OCC     -0.079400
     17 C17         0.2920    5.9550   -3.6890 c3        1 OCC     -0.053700
     18 C19         2.1640   -0.3680   -1.2290 c2        1 OCC     -0.179000
     19 O2         -0.6890   -2.4060    2.9150 oh        1 OCC     -0.599800
     20 O1          2.5380    0.4720    1.9400 oh        1 OCC     -0.582800
     21 C20         0.2170    7.4460   -3.3800 c3        1 OCC     -0.055700
     22 C22         1.2260    8.2140   -4.2330 c3        1 OCC     -0.079400
     23 C18        -0.7070    5.4420   -1.4290 c3        1 OCC     -0.083100
     24 C21        -1.1730    8.0020   -3.6260 c3        1 OCC     -0.091100
     25 C23         1.6160    9.5320   -3.5950 c3        1 OCC     -0.079400
     26 C24         2.5620   10.3050   -4.4890 c3        1 OCC     -0.064400
     27 C25         3.1390   11.5520   -3.8100 c3        1 OCC      0.147800
     28 O25         3.9000   11.0790   -2.6970 oh        1 OCC     -0.597800
     29 C27         4.0570   12.2830   -4.7850 c3        1 OCC     -0.123100
     30 C26         2.0420   12.4930   -3.3290 c3        1 OCC     -0.123100
     31 O28         1.9880   -1.7800    3.4140 os        1 OCC     -0.428600
     32 C29         3.3690   -2.1330    3.5020 c3        1 OCC      0.130400
     33 C30         3.6280   -2.4810    4.9560 c3        1 OCC     -0.089400
     34 C31         5.1080   -2.7510    5.1620 c3        1 OCC      0.133400
     35 O32         5.2720   -3.1350    6.5180 oh        1 OCC     -0.598800
     36 H1          3.2740   -1.1250    0.9800 h1        1 OCC      0.073700
     37 H2          1.5840   -2.7520    1.6080 h1        1 OCC      0.060700
     38 H3         -0.0800   -0.4160    2.8330 h1        1 OCC      0.045700
     39 H41        -0.6580   -2.2030    0.3470 hc        1 OCC      0.066700
     40 H42        -1.7310   -0.9180    1.0290 hc        1 OCC      0.066700
     41 H6         -1.7010    0.8570   -0.4220 ha        1 OCC      0.126000
     42 H7          1.0840    1.9780   -1.1980 ha        1 OCC      0.136000
     43 H14        -0.0680    3.3500   -4.1450 hc        1 OCC      0.054700
     44 H121       -2.6280    5.8400   -3.3560 hc        1 OCC      0.042700
     45 H122       -1.9970    4.6410   -4.5510 hc        1 OCC      0.042700
     46 H111       -3.7940    3.6060   -3.2600 hc        1 OCC      0.041200
     47 H112       -3.0590    4.1250   -1.6940 hc        1 OCC      0.041200
     48 H91        -2.6180    1.7840   -1.9450 hc        1 OCC      0.047700
     49 H92        -2.0980    1.9610   -3.6650 hc        1 OCC      0.047700
     50 H151        2.1750    3.2310   -3.3680 hc        1 OCC      0.045700
     51 H152        1.7810    3.9500   -1.7570 hc        1 OCC      0.045700
     52 H161        2.2470    6.0210   -2.6800 hc        1 OCC      0.044200
     53 H162        2.2920    5.3490   -4.3570 hc        1 OCC      0.044200
     54 H17         0.0570    5.8210   -4.7820 hc        1 OCC      0.045700
     55 H191        3.2470   -0.5320   -1.3000 ha        1 OCC      0.120500
     56 H192        1.6520   -0.1640   -2.1790 ha        1 OCC      0.120500
     57 HO2        -0.2220   -2.5480    3.7500 ho        1 OCC      0.420000
     58 HO1         1.6990    0.8370    2.2470 ho        1 OCC      0.408000
     59 H20         0.4790    7.6000   -2.2950 hc        1 OCC      0.053700
     60 H221        0.7880    8.3990   -5.2490 hc        1 OCC      0.040200
     61 H222        2.1530    7.6020   -4.3820 hc        1 OCC      0.040200
     62 H181       -1.3490    6.3460   -1.2980 hc        1 OCC      0.038033
     63 H182       -1.1240    4.6160   -0.8030 hc        1 OCC      0.038033
     64 H183        0.3210    5.6750   -1.0560 hc        1 OCC      0.038033
     65 H211       -1.5790    7.6340   -4.5990 hc        1 OCC      0.033367
     66 H212       -1.8720    7.6970   -2.8100 hc        1 OCC      0.033367
     67 H213       -1.1470    9.1180   -3.6550 hc        1 OCC      0.033367
     68 H231        2.1140    9.3450   -2.6070 hc        1 OCC      0.048700
     69 H232        0.6990   10.1470   -3.3960 hc        1 OCC      0.048700
     70 H241        2.0310   10.6280   -5.4220 hc        1 OCC      0.047200
     71 H242        3.4170    9.6430   -4.7870 hc        1 OCC      0.047200
     72 H25         4.2680   11.8570   -2.2630 ho        1 OCC      0.397000
     73 H271        4.5120   13.1760   -4.2930 hc        1 OCC      0.042200
     74 H272        4.8780   11.6040   -5.1180 hc        1 OCC      0.042200
     75 H273        3.4780   12.6200   -5.6760 hc        1 OCC      0.042200
     76 H261        1.4870   12.0290   -2.4780 hc        1 OCC      0.042200
     77 H262        1.3270   12.7030   -4.1580 hc        1 OCC      0.042200
     78 H263        2.4830   13.4570   -2.9810 hc        1 OCC      0.042200
     79 H291        3.9850   -1.2500    3.1790 h1        1 OCC      0.036700
     80 H292        3.5880   -3.0060    2.8330 h1        1 OCC      0.036700
     81 H301        3.3010   -1.6370    5.6160 hc        1 OCC      0.068700
     82 H302        3.0320   -3.3820    5.2500 hc        1 OCC      0.068700
     83 H311        5.7130   -1.8290    4.9460 h1        1 OCC      0.021200
     84 H312        5.4580   -3.5790    4.4870 h1        1 OCC      0.021200
     85 H32         6.2170   -3.2680    6.6530 ho        1 OCC      0.400000
@<TRIPOS>BOND
     1    1    2 1   
     2    1    6 1   
     3    1    7 2   
     4    2    3 1   
     5    2   18 2   
     6    3    4 1   
     7    3   20 1   
     8    3   36 1   
     9    4    5 1   
    10    4   31 1   
    11    4   37 1   
    12    5    6 1   
    13    5   19 1   
    14    5   38 1   
    15    6   39 1   
    16    6   40 1   
    17    7    8 1   
    18    7   41 1   
    19    8    9 2   
    20    8   42 1   
    21    9   10 1   
    22    9   14 1   
    23   10   11 1   
    24   10   15 1   
    25   10   43 1   
    26   11   12 1   
    27   11   17 1   
    28   11   23 1   
    29   12   13 1   
    30   12   44 1   
    31   12   45 1   
    32   13   14 1   
    33   13   46 1   
    34   13   47 1   
    35   14   48 1   
    36   14   49 1   
    37   15   16 1   
    38   15   50 1   
    39   15   51 1   
    40   16   17 1   
    41   16   52 1   
    42   16   53 1   
    43   17   21 1   
    44   17   54 1   
    45   18   55 1   
    46   18   56 1   
    47   19   57 1   
    48   20   58 1   
    49   21   22 1   
    50   21   24 1   
    51   21   59 1   
    52   22   25 1   
    53   22   60 1   
    54   22   61 1   
    55   23   62 1   
    56   23   63 1   
    57   23   64 1   
    58   24   65 1   
    59   24   66 1   
    60   24   67 1   
    61   25   26 1   
    62   25   68 1   
    63   25   69 1   
    64   26   27 1   
    65   26   70 1   
    66   26   71 1   
    67   27   28 1   
    68   27   29 1   
    69   27   30 1   
    70   28   72 1   
    71   29   73 1   
    72   29   74 1   
    73   29   75 1   
    74   30   76 1   
    75   30   77 1   
    76   30   78 1   
    77   31   32 1   
    78   32   33 1   
    79   32   79 1   
    80   32   80 1   
    81   33   34 1   
    82   33   81 1   
    83   33   82 1   
    84   34   35 1   
    85   34   83 1   
    86   34   84 1   
    87   35   85 1   
@<TRIPOS>SUBSTRUCTURE
     1 OCC         1 TEMP              0 ****  ****    0 ROOT
