@<TRIPOS>MOLECULE
OCC
   85    83     1     0     0
SMALL
bcc


@<TRIPOS>ATOM
      1 C5          4.1190   -0.0920    1.3190 c1        1 OCC     -0.063000
      2 C10         5.8100   -0.0630    1.3360 c1        1 OCC     -0.071000
      3 C1          6.4450    0.5710    2.4660 c3        1 OCC      0.075000
      4 C2          5.5650    0.3850    3.8580 c3        1 OCC      0.005000
      5 C3          4.3280    0.6950    3.7690 c3        1 OCC      0.011000
      6 C4          3.4530   -0.1380    2.5880 c3        1 OCC     -0.153000
      7 C6          3.4070   -0.0740    0.1330 c1        1 OCC     -0.110000
      8 C7          1.8450   -0.1020    0.1600 c1        1 OCC     -0.160000
      9 C8          1.1400   -0.6150   -0.9250 c1        1 OCC     -0.067000
     10 C14        -0.4290   -0.0520   -1.2710 c2        1 OCC     -0.073000
     11 C13        -1.3120   -1.0640   -2.0660 c3        1 OCC     -0.031000
     12 C12        -0.6180   -1.6520   -3.1940 c3        1 OCC     -0.148000
     13 C11         0.8240   -2.2410   -2.8380 c3        1 OCC     -0.153000
     14 C9          1.8310   -1.1060   -2.0390 c3        1 OCC     -0.126000
     15 C15        -0.5880    1.0370   -1.7980 c3        1 OCC     -0.154000
     16 C16        -2.1800    0.9970   -2.4090 c3        1 OCC     -0.159000
     17 C17        -2.3340   -0.1370   -2.8750 c3        1 OCC     -0.097000
     18 C19         6.5440   -0.6130    0.3230 c1        1 OCC     -0.193000
     19 O2          3.6860    0.4320    5.0950 oh        1 OCC     -0.335000
     20 O1          6.7340    1.9620    2.2020 oh        1 OCC     -0.319000
     21 C20        -3.8680   -0.6460   -2.6330 c3        1 OCC     -0.096000
     22 C22        -4.8200    0.3600   -3.1860 c3        1 OCC     -0.156000
     23 C18        -2.0250   -2.1000   -1.1730 c3        1 OCC     -0.204000
     24 C21        -4.0730   -1.9300   -3.2990 c3        1 OCC     -0.211000
     25 C23        -6.2150    0.1690   -2.5330 c3        1 OCC     -0.158000
     26 C24        -7.3130    0.3420   -3.6020 c3        1 OCC     -0.143000
     27 C25        -8.5960    0.8730   -2.9370 c3        1 OCC      0.076000
     28 O25        -8.2550    1.7610   -1.9140 oh        1 OCC     -0.325000
     29 C27        -9.3970   -0.3100   -2.3480 c3        1 OCC     -0.241500
     30 C26        -9.4620    1.6090   -3.9950 c3        1 OCC     -0.241500
     31 O28         6.1960    1.2540    4.9380 os        1 OCC     -0.292000
     32 C29         6.9060    0.5040    5.9500 c3        1 OCC     -0.017000
     33 C30         7.6510    1.4830    6.9000 c3        1 OCC     -0.168000
     34 C31         8.1850    0.7110    8.1180 c3        1 OCC     -0.017000
     35 O32         8.9420    1.5850    8.9350 oh        1 OCC     -0.327000
     36 H1          7.3500    0.2150    2.5890 h1        1 OCC      0.085000
     37 H2          5.6270   -0.5470    4.1380 h1        1 OCC      0.102000
     38 H3          4.2660    1.6430    3.5810 h1        1 OCC      0.103000
     39 H41         3.1070   -0.9970    2.9310 hc        1 OCC      0.096500
     40 H42         2.6010    0.3340    2.4300 hc        1 OCC      0.096500
     41 H6          3.8840   -0.0440   -0.7300 ha        1 OCC      0.129000
     42 H7          1.3580    0.2750    0.9320 ha        1 OCC      0.122000
     43 H14        -0.8620    0.0280   -0.3910 ha        1 OCC      0.091000
     44 H121       -1.1720   -2.3800   -3.5580 hc        1 OCC      0.081000
     45 H122       -0.5090   -0.9570   -3.8950 hc        1 OCC      0.081000
     46 H111        0.7110   -3.0160   -2.2630 hc        1 OCC      0.082000
     47 H112        1.2730   -2.5310   -3.6850 hc        1 OCC      0.082000
     48 H91         2.2130   -0.3970   -2.5870 hc        1 OCC      0.089000
     49 H92         2.6610   -1.5800   -1.7500 hc        1 OCC      0.089000
     50 H151        0.0460    1.1570   -2.5200 hc        1 OCC      0.086000
     51 H152       -0.4920    1.7640   -1.1270 hc        1 OCC      0.086000
     52 H161       -2.2880    1.6680   -3.1100 hc        1 OCC      0.083500
     53 H162       -2.8250    1.1560   -1.6840 hc        1 OCC      0.083500
     54 H17        -2.1180   -0.1440   -3.8340 hc        1 OCC      0.086000
     55 H191        7.5260   -0.5830    0.3560 DU        1 OCC      0.118000
     56 H192        6.0940   -1.0370   -0.4330 ha        1 OCC      0.118000
     57 HO2         3.0910    1.0610    5.2630 ho        1 OCC      0.202000
     58 HO1         7.6260    2.0620    2.0420 ho        1 OCC      0.219000
     59 H20        -4.0270   -0.7510   -1.6740 hc        1 OCC      0.093000
     60 H221       -4.4900    1.2600   -2.9940 hc        1 OCC      0.078000
     61 H222       -4.8950    0.2400   -4.1530 hc        1 OCC      0.078000
     62 H181       -1.3940   -2.4380   -0.4940 hc        1 OCC      0.075667
     63 H182       -2.3340   -2.8320   -1.7160 hc        1 OCC      0.075667
     64 H183       -2.8030   -1.6700   -0.7200 hc        1 OCC      0.075667
     65 H211       -3.3180   -2.1090   -3.9080 hc        1 OCC      0.073000
     66 H212       -4.9180   -1.9020   -3.8180 hc        1 OCC      0.073000
     67 H213       -4.1260   -2.6440   -2.6240 hc        1 OCC      0.073000
     68 H231       -6.2750   -0.7280   -2.1460 hc        1 OCC      0.088500
     69 H232       -6.3390    0.8400   -1.8240 hc        1 OCC      0.088500
     70 H241       -7.0070    0.9840   -4.2860 hc        1 OCC      0.086000
     71 H242       -7.4960   -0.5210   -4.0230 hc        1 OCC      0.086000
     72 H25        -8.9340    2.2790   -1.7410 ho        1 OCC      0.196000
     73 H271      -10.2820    0.0070   -2.0520 hc        1 OCC      0.081667
     74 H272       -8.9080   -0.6870   -1.5780 hc        1 OCC      0.081667
     75 H273       -9.5100   -1.0020   -3.0350 hc        1 OCC      0.081667
     76 H261      -10.3410    1.8300   -3.6040 hc        1 OCC      0.081667
     77 H262       -9.5870    1.0300   -4.7740 hc        1 OCC      0.081667
     78 H263       -9.0100    2.4350   -4.2710 hc        1 OCC      0.081667
     79 H291        6.2700   -0.0280    6.4660 h1        1 OCC      0.081500
     80 H292        7.5530   -0.0870    5.5220 h1        1 OCC      0.081500
     81 H301        8.4010    1.8960    6.4200 hc        1 OCC      0.106000
     82 H302        7.0220    2.1910    7.2060 hc        1 OCC      0.106000
     83 H311        7.4330    0.3520    8.6320 h1        1 OCC      0.060500
     84 H312        8.7560   -0.0290    7.8120 h1        1 OCC      0.060500
     85 H32         9.2650    1.1370    9.6280 ho        1 OCC      0.199000
@<TRIPOS>BOND
     1    1    6 1   
     2    1    7 1   
     3    2    3 1   
     4    2   18 1   
     5    3    4 1   
     6    3   20 1   
     7    3   36 1   
     8    4    5 1   
     9    4   31 1   
    10    4   37 1   
    11    5    6 1   
    12    5   19 1   
    13    5   38 1   
    14    6   39 1   
    15    6   40 1   
    16    7   41 1   
    17    8    9 1   
    18    8   42 1   
    19    9   14 1   
    20   10   11 1   
    21   10   15 1   
    22   10   43 1   
    23   11   12 1   
    24   11   17 1   
    25   11   23 1   
    26   12   13 1   
    27   12   44 1   
    28   12   45 1   
    29   13   14 1   
    30   13   46 1   
    31   13   47 1   
    32   14   48 1   
    33   14   49 1   
    34   15   16 1   
    35   15   50 1   
    36   15   51 1   
    37   16   17 1   
    38   16   52 1   
    39   16   53 1   
    40   17   21 1   
    41   17   54 1   
    42   18   56 1   
    43   19   57 1   
    44   20   58 1   
    45   21   22 1   
    46   21   24 1   
    47   21   59 1   
    48   22   25 1   
    49   22   60 1   
    50   22   61 1   
    51   23   62 1   
    52   23   63 1   
    53   23   64 1   
    54   24   65 1   
    55   24   66 1   
    56   24   67 1   
    57   25   26 1   
    58   25   68 1   
    59   25   69 1   
    60   26   27 1   
    61   26   70 1   
    62   26   71 1   
    63   27   28 1   
    64   27   29 1   
    65   27   30 1   
    66   28   72 1   
    67   29   73 1   
    68   29   74 1   
    69   29   75 1   
    70   30   76 1   
    71   30   77 1   
    72   30   78 1   
    73   31   32 1   
    74   32   33 1   
    75   32   79 1   
    76   32   80 1   
    77   33   34 1   
    78   33   81 1   
    79   33   82 1   
    80   34   35 1   
    81   34   83 1   
    82   34   84 1   
    83   35   85 1   
@<TRIPOS>SUBSTRUCTURE
     1 OCC         1 TEMP              0 ****  ****    0 ROOT
