@<TRIPOS>MOLECULE
OCC
   85    87     1     0     0
SMALL
bcc


@<TRIPOS>ATOM
      1 C5         -3.4090    1.7950   -0.2270 ce        1 OCC     -0.095200
      2 C10        -3.6190    0.7340   -1.2110 ce        1 OCC     -0.116200
      3 C1         -4.5960   -0.3530   -0.8400 c3        1 OCC      0.159300
      4 C2         -5.8690    0.2320   -0.2090 c3        1 OCC      0.075100
      5 C3         -5.5530    1.2510    0.9000 c3        1 OCC      0.155100
      6 C4         -4.6540    2.3610    0.3680 c3        1 OCC     -0.041200
      7 C6         -2.2000    2.2760    0.1280 cf        1 OCC     -0.101000
      8 C7         -0.9360    1.7850   -0.3690 cf        1 OCC     -0.159000
      9 C8          0.2320    2.4490   -0.3380 c2        1 OCC     -0.071400
     10 C14         1.5030    1.8840   -0.8640 c3        1 OCC     -0.038500
     11 C13         2.6200    1.9130    0.2170 c3        1 OCC     -0.039000
     12 C12         2.8800    3.3760    0.5420 c3        1 OCC     -0.067400
     13 C11         1.6130    4.0500    1.0390 c3        1 OCC     -0.073400
     14 C9          0.4080    3.8550    0.1350 c3        1 OCC     -0.046200
     15 C15         1.5630    0.4660   -1.4130 c3        1 OCC     -0.074400
     16 C16         3.0440    0.0920   -1.3430 c3        1 OCC     -0.079400
     17 C17         3.7660    1.1750   -0.5140 c3        1 OCC     -0.053700
     18 C19        -2.9990    0.7110   -2.3970 c2        1 OCC     -0.180000
     19 O2         -6.7460    1.8700    1.3560 oh        1 OCC     -0.599800
     20 O1         -3.9980   -1.3320   -0.0090 oh        1 OCC     -0.582800
     21 C20         4.8690    0.5850    0.3590 c3        1 OCC     -0.055700
     22 C22         5.9070   -0.1240   -0.5090 c3        1 OCC     -0.079400
     23 C18         2.1960    1.1510    1.4610 c3        1 OCC     -0.083100
     24 C21         5.5550    1.6490    1.1940 c3        1 OCC     -0.091100
     25 C23         6.6660   -1.1810    0.2680 c3        1 OCC     -0.080400
     26 C24         7.7320   -1.8260   -0.5900 c3        1 OCC     -0.104400
     27 C25         8.3660   -3.0520    0.0770 c3        1 OCC      0.147800
     28 O25         7.3650   -4.0100    0.4220 oh        1 OCC     -0.596800
     29 C27         9.3700   -3.6830   -0.8840 c3        1 OCC     -0.103600
     30 C26         9.0520   -2.6850    1.3870 c3        1 OCC     -0.103600
     31 O28        -6.6490   -0.7690    0.4440 os        1 OCC     -0.428600
     32 C29        -7.0830   -1.8160   -0.4240 c3        1 OCC      0.130400
     33 C30        -8.1640   -2.5720    0.3270 c3        1 OCC     -0.089400
     34 C31        -8.6000   -3.7810   -0.4800 c3        1 OCC      0.133400
     35 O32        -9.6520   -4.4010    0.2420 oh        1 OCC     -0.598800
     36 H1         -4.8840   -0.9400   -1.7630 h1        1 OCC      0.073700
     37 H2         -6.4870    0.7220   -1.0120 h1        1 OCC      0.060700
     38 H3         -5.0590    0.7170    1.7600 h1        1 OCC      0.045700
     39 H41        -4.4210    3.0670    1.2080 hc        1 OCC      0.066700
     40 H42        -5.2120    2.9440   -0.4130 hc        1 OCC      0.066700
     41 H6         -2.1520    3.0880    0.8770 ha        1 OCC      0.126000
     42 H7         -0.9670    0.7660   -0.8010 ha        1 OCC      0.135000
     43 H14         1.8280    2.5740   -1.7010 hc        1 OCC      0.054700
     44 H121        3.2550    3.9010   -0.3760 hc        1 OCC      0.043200
     45 H122        3.6740    3.4670    1.3280 hc        1 OCC      0.043200
     46 H111        1.8060    5.1510    1.1430 hc        1 OCC      0.041200
     47 H112        1.3700    3.6590    2.0630 hc        1 OCC      0.041200
     48 H91         0.5240    4.5060   -0.7760 hc        1 OCC      0.048200
     49 H92        -0.5050    4.2150    0.6790 hc        1 OCC      0.048200
     50 H151        1.1770    0.4180   -2.4600 hc        1 OCC      0.045700
     51 H152        0.9530   -0.2340   -0.7890 hc        1 OCC      0.045700
     52 H161        3.4840    0.0390   -2.3690 hc        1 OCC      0.042200
     53 H162        3.1640   -0.9120   -0.8650 hc        1 OCC      0.042200
     54 H17         4.2470    1.9080   -1.2200 hc        1 OCC      0.045700
     55 H191       -3.1670   -0.0870   -3.1320 ha        1 OCC      0.120500
     56 H192       -2.2880    1.4920   -2.7010 ha        1 OCC      0.120500
     57 HO2        -7.3380    1.1570    1.6300 ho        1 OCC      0.420000
     58 HO1        -3.8080   -0.9140    0.8400 ho        1 OCC      0.408000
     59 H20         4.4070   -0.1740    1.0530 hc        1 OCC      0.053700
     60 H221        5.4100   -0.6120   -1.3870 hc        1 OCC      0.039700
     61 H222        6.6270    0.6330   -0.9190 hc        1 OCC      0.039700
     62 H181        1.1920    1.4960    1.8090 hc        1 OCC      0.038367
     63 H182        2.1320    0.0570    1.2440 hc        1 OCC      0.038367
     64 H183        2.9310    1.3100    2.2870 hc        1 OCC      0.038367
     65 H211        5.7840    2.5500    0.5740 hc        1 OCC      0.034367
     66 H212        4.9070    1.9600    2.0490 hc        1 OCC      0.034367
     67 H213        6.5130    1.2580    1.6140 hc        1 OCC      0.034367
     68 H231        7.1410   -0.7230    1.1750 hc        1 OCC      0.049700
     69 H232        5.9560   -1.9710    0.6320 hc        1 OCC      0.049700
     70 H241        7.2810   -2.1440   -1.5680 hc        1 OCC      0.042700
     71 H242        8.5400   -1.0840   -0.8170 hc        1 OCC      0.042700
     72 H25         6.9040   -4.2370   -0.3940 ho        1 OCC      0.397000
     73 H271       10.2100   -2.9750   -1.0780 hc        1 OCC      0.043200
     74 H272        9.7780   -4.6220   -0.4420 hc        1 OCC      0.043200
     75 H273        8.8770   -3.9320   -1.8540 hc        1 OCC      0.043200
     76 H261        8.2920   -2.3800    2.1440 hc        1 OCC      0.043200
     77 H262        9.6110   -3.5670    1.7830 hc        1 OCC      0.043200
     78 H263        9.7630   -1.8440    1.2150 hc        1 OCC      0.043200
     79 H291       -7.4830   -1.3860   -1.3800 h1        1 OCC      0.036700
     80 H292       -6.2070   -2.4810   -0.6510 h1        1 OCC      0.036700
     81 H301       -7.7770   -2.9010    1.3260 hc        1 OCC      0.068700
     82 H302       -9.0430   -1.9040    0.5160 hc        1 OCC      0.068700
     83 H311       -8.9670   -3.4700   -1.4950 h1        1 OCC      0.021200
     84 H312       -7.7460   -4.5000   -0.6090 h1        1 OCC      0.021200
     85 H32        -9.8990   -5.1890   -0.2550 ho        1 OCC      0.400000
@<TRIPOS>BOND
     1    1    2 1   
     2    1    6 1   
     3    1    7 2   
     4    2    3 1   
     5    2   18 2   
     6    3    4 1   
     7    3   20 1   
     8    3   36 1   
     9    4    5 1   
    10    4   31 1   
    11    4   37 1   
    12    5    6 1   
    13    5   19 1   
    14    5   38 1   
    15    6   39 1   
    16    6   40 1   
    17    7    8 1   
    18    7   41 1   
    19    8    9 2   
    20    8   42 1   
    21    9   10 1   
    22    9   14 1   
    23   10   11 1   
    24   10   15 1   
    25   10   43 1   
    26   11   12 1   
    27   11   17 1   
    28   11   23 1   
    29   12   13 1   
    30   12   44 1   
    31   12   45 1   
    32   13   14 1   
    33   13   46 1   
    34   13   47 1   
    35   14   48 1   
    36   14   49 1   
    37   15   16 1   
    38   15   50 1   
    39   15   51 1   
    40   16   17 1   
    41   16   52 1   
    42   16   53 1   
    43   17   21 1   
    44   17   54 1   
    45   18   55 1   
    46   18   56 1   
    47   19   57 1   
    48   20   58 1   
    49   21   22 1   
    50   21   24 1   
    51   21   59 1   
    52   22   25 1   
    53   22   60 1   
    54   22   61 1   
    55   23   62 1   
    56   23   63 1   
    57   23   64 1   
    58   24   65 1   
    59   24   66 1   
    60   24   67 1   
    61   25   26 1   
    62   25   68 1   
    63   25   69 1   
    64   26   27 1   
    65   26   70 1   
    66   26   71 1   
    67   27   28 1   
    68   27   29 1   
    69   27   30 1   
    70   28   72 1   
    71   29   73 1   
    72   29   74 1   
    73   29   75 1   
    74   30   76 1   
    75   30   77 1   
    76   30   78 1   
    77   31   32 1   
    78   32   33 1   
    79   32   79 1   
    80   32   80 1   
    81   33   34 1   
    82   33   81 1   
    83   33   82 1   
    84   34   35 1   
    85   34   83 1   
    86   34   84 1   
    87   35   85 1   
@<TRIPOS>SUBSTRUCTURE
     1 OCC         1 TEMP              0 ****  ****    0 ROOT
