@<TRIPOS>MOLECULE
OCE
   24    22     1     0     0
SMALL
bcc


@<TRIPOS>ATOM
      1 OAO        18.8050  -40.3130  333.7300 o         1 OCE     -0.589500
      2 OAP       -17.5500   48.1030 -403.4470 o         1 OCE     -0.585000
      3 CAX        16.2270  -38.1930  336.4270 c3        1 OCE     -0.204000
      4 CAY       -17.6670   44.8750 -406.6770 c3        1 OCE     -0.191000
      5 CAZ        17.3510  -38.5380  335.4840 c3        1 OCE     -0.148000
      6 CBA       -17.5970   45.4060 -405.2660 c3        1 OCE     -0.206000
      7 CBN        16.8480  -38.9550  334.1230 c3        1 OCE     -0.221000
      8 CBO       -16.8230   46.6360 -405.1490 c1        1 OCE     -0.089000
      9 CCW        17.9910  -39.4790  333.2370 c2        1 OCE      0.327000
     10 CCX       -16.6850   47.2450 -403.8080 c2        1 OCE      0.286000
     11 HAX        15.6080  -37.3590  336.0150 hc        1 OCE      0.049333
     12 HAXA       16.6260  -37.8750  337.4200 hc        1 OCE      0.049333
     13 HAY       -18.1380   45.6280 -407.3530 hc        1 OCE      0.055667
     14 HAYA       15.5590  -39.0750  336.5840 hc        1 OCE      0.049333
     15 HAZ        18.0310  -37.6540  335.3730 hc        1 OCE      0.081500
     16 HAZA       17.9670  -39.3760  335.9080 hc        1 OCE      0.081500
     17 HBA       -18.2700   43.9350 -406.7150 hc        1 OCE      0.055667
     18 HBAA      -16.6420   44.6560 -407.0610 hc        1 OCE      0.055667
     19 HBN        16.0940  -39.7750  334.2300 hc        1 OCE      0.057000
     20 HBNA       16.3480  -38.0930  333.6130 hc        1 OCE      0.057000
     21 HBO       -17.1420   44.6250 -404.5910 hc        1 OCE      0.101000
     22 HBOA      -18.6420   45.5990 -404.8840 hc        1 OCE      0.101000
     23 O3         18.0510  -39.0620  332.0440 o         1 OCE     -0.589500
     24 O4        -15.6920   46.9020 -403.0930 o         1 OCE     -0.585000
@<TRIPOS>BOND
     1    1    9 1   
     2    2   10 1   
     3    3    5 1   
     4    3   11 1   
     5    3   12 1   
     6    3   14 1   
     7    4    6 1   
     8    4   13 1   
     9    4   17 1   
    10    4   18 1   
    11    5    7 1   
    12    5   15 1   
    13    5   16 1   
    14    6    8 1   
    15    6   21 1   
    16    6   22 1   
    17    7    9 1   
    18    7   19 1   
    19    7   20 1   
    20    8   10 1   
    21    9   23 1   
    22   10   24 1   
@<TRIPOS>SUBSTRUCTURE
     1 OCE         1 TEMP              0 ****  ****    0 ROOT
