@<TRIPOS>MOLECULE
OCE
   24    23     1     0     0
SMALL
bcc


@<TRIPOS>ATOM
      1 OAO        -3.2170    2.1450    3.2290 o         1 OCE     -0.865800
      2 OAP         1.8530   -1.8770   -4.2930 o         1 OCE     -0.865800
      3 CAX        -0.0940    0.7130    0.2380 c3        1 OCE     -0.078400
      4 CAY         0.0380   -0.7020   -0.2820 c3        1 OCE     -0.078400
      5 CAZ        -0.9750    0.7190    1.4680 c3        1 OCE     -0.063400
      6 CBA         1.0040   -0.7240   -1.4460 c3        1 OCE     -0.063400
      7 CBN        -1.2010    2.1450    1.9190 c3        1 OCE     -0.185400
      8 CBO         1.0440   -2.1140   -2.0420 c3        1 OCE     -0.185400
      9 CCW        -1.9580    2.1450    3.2290 c         1 OCE      0.904600
     10 CCX         2.1220   -2.1770   -3.1010 c         1 OCE      0.904600
     11 HAX        -0.4930    1.2770   -0.4510 hc        1 OCE      0.023200
     12 HAXA        0.7900    1.0580    0.4690 hc        1 OCE      0.023200
     13 HAY         0.3730   -1.2800    0.4300 hc        1 OCE      0.023200
     14 HAYA       -0.8350   -1.0220   -0.5770 hc        1 OCE      0.023200
     15 HAZ        -0.5390    0.2160    2.1820 hc        1 OCE      0.036700
     16 HAZA       -1.8330    0.3040    1.2550 hc        1 OCE      0.036700
     17 HBA         1.8960   -0.4780   -1.1330 hc        1 OCE      0.036700
     18 HBAA        0.7100   -0.0870   -2.1240 hc        1 OCE      0.036700
     19 HBN        -0.3400    2.5880    2.0410 hc        1 OCE      0.016700
     20 HBNA       -1.7210    2.6210    1.2440 hc        1 OCE      0.016700
     21 HBO         0.1790   -2.3190   -2.4460 hc        1 OCE      0.016700
     22 HBOA        1.2380   -2.7640   -1.3400 hc        1 OCE      0.016700
     23 O3         -1.3280    2.1450    4.3200 o         1 OCE     -0.865800
     24 O4          3.2900   -2.5310   -2.7900 o         1 OCE     -0.865800
@<TRIPOS>BOND
     1    1    9 1   
     2    2   10 1   
     3    3    4 1   
     4    3    5 1   
     5    3   11 1   
     6    3   12 1   
     7    4    6 1   
     8    4   13 1   
     9    4   14 1   
    10    5    7 1   
    11    5   15 1   
    12    5   16 1   
    13    6    8 1   
    14    6   17 1   
    15    6   18 1   
    16    7    9 1   
    17    7   19 1   
    18    7   20 1   
    19    8   10 1   
    20    8   21 1   
    21    8   22 1   
    22    9   23 1   
    23   10   24 1   
@<TRIPOS>SUBSTRUCTURE
     1 OCE         1 TEMP              0 ****  ****    0 ROOT
