@<TRIPOS>MOLECULE
OCE
   24    23     1     0     0
SMALL
bcc


@<TRIPOS>ATOM
      1 OAO         4.5120    1.2850   -0.0000 o         1 OCE     -0.866300
      2 OAP        -4.5120   -1.2850   -0.0000 o         1 OCE     -0.866300
      3 CAX         0.5910   -0.4730    0.0000 c3        1 OCE     -0.078400
      4 CAY        -0.5910    0.4730    0.0000 c3        1 OCE     -0.078400
      5 CAZ         1.9150    0.2640   -0.0000 c3        1 OCE     -0.062400
      6 CBA        -1.9150   -0.2640    0.0000 c3        1 OCE     -0.062400
      7 CBN         3.0890   -0.6850   -0.0000 c3        1 OCE     -0.184400
      8 CBO        -3.0890    0.6850    0.0000 c3        1 OCE     -0.184400
      9 CCW         4.4510    0.0210    0.0000 c         1 OCE      0.904600
     10 CCX        -4.4510   -0.0210   -0.0000 c         1 OCE      0.904600
     11 HAX         0.5330   -1.1390    0.9010 hc        1 OCE      0.021700
     12 HAXA        0.5330   -1.1390   -0.9010 hc        1 OCE      0.021700
     13 HAY        -0.5330    1.1390    0.9010 hc        1 OCE      0.021700
     14 HAYA       -0.5330    1.1390   -0.9010 hc        1 OCE      0.021700
     15 HAZ         1.9820    0.9320   -0.8980 hc        1 OCE      0.037700
     16 HAZA        1.9820    0.9320    0.8980 hc        1 OCE      0.037700
     17 HBA        -1.9820   -0.9320   -0.8980 hc        1 OCE      0.037700
     18 HBAA       -1.9820   -0.9320    0.8980 hc        1 OCE      0.037700
     19 HBN         3.0440   -1.3480    0.9020 hc        1 OCE      0.017700
     20 HBNA        3.0440   -1.3480   -0.9020 hc        1 OCE      0.017700
     21 HBO        -3.0440    1.3480    0.9020 hc        1 OCE      0.017700
     22 HBOA       -3.0440    1.3480   -0.9020 hc        1 OCE      0.017700
     23 O3          5.4850   -0.7160    0.0000 o         1 OCE     -0.866300
     24 O4         -5.4850    0.7160   -0.0000 o         1 OCE     -0.866300
@<TRIPOS>BOND
     1    1    9 1   
     2    2   10 1   
     3    3    4 1   
     4    3    5 1   
     5    3   11 1   
     6    3   12 1   
     7    4    6 1   
     8    4   13 1   
     9    4   14 1   
    10    5    7 1   
    11    5   15 1   
    12    5   16 1   
    13    6    8 1   
    14    6   17 1   
    15    6   18 1   
    16    7    9 1   
    17    7   19 1   
    18    7   20 1   
    19    8   10 1   
    20    8   21 1   
    21    8   22 1   
    22    9   23 1   
    23   10   24 1   
@<TRIPOS>SUBSTRUCTURE
     1 OCE         1 TEMP              0 ****  ****    0 ROOT
