@<TRIPOS>MOLECULE
OCE
   24    22     1     0     0
SMALL
bcc


@<TRIPOS>ATOM
      1 OAO         2.7160   -3.1230  134.5370 o         1 OCE     -0.589500
      2 OAP        -1.3380    3.5640 -167.9870 o         1 OCE     -0.585000
      3 CAX         3.2350   -3.3660  130.2830 c3        1 OCE     -0.204000
      4 CAY        -0.6790    3.6980 -164.5700 c3        1 OCE     -0.238000
      5 CAZ         3.0310   -3.7330  131.7310 c3        1 OCE     -0.148000
      6 CBA        -2.1410    3.9890 -164.8070 c3        1 OCE     -0.188000
      7 CBN         4.1620   -3.2540  132.6080 c3        1 OCE     -0.221000
      8 CBO        -2.5370    4.4140 -166.1410 c1        1 OCE     -0.104000
      9 CCW         3.8500   -3.4740  134.0980 c2        1 OCE      0.327000
     10 CCX        -1.5580    4.5650 -167.2360 c2        1 OCE      0.295000
     11 HAX         4.1860   -3.8050  129.8950 hc        1 OCE      0.049333
     12 HAXA       -0.0680    4.6060 -164.7920 hc        1 OCE      0.069667
     13 HAY         3.2900   -2.2570  130.1630 hc        1 OCE      0.049333
     14 HAYA        2.3920   -3.7450  129.6550 hc        1 OCE      0.049333
     15 HAZ         2.0720   -3.2890  132.1110 hc        1 OCE      0.081500
     16 HAZA        2.9360   -4.8470  131.8240 hc        1 OCE      0.081500
     17 HBA        -0.4950    3.3870 -163.5140 hc        1 OCE      0.069667
     18 HBAA       -0.3370    2.8830 -165.2530 hc        1 OCE      0.069667
     19 HBN         5.1100   -3.7850  132.3440 hc        1 OCE      0.057000
     20 HBNA        4.3270   -2.1580  132.4510 hc        1 OCE      0.057000
     21 HBO        -2.7540    3.0730 -164.5720 hc        1 OCE      0.099000
     22 HBOA       -2.4850    4.8010 -164.1040 hc        1 OCE      0.099000
     23 O3          4.7560   -3.9820  134.8210 o         1 OCE     -0.589500
     24 O4         -1.0130    5.7010 -167.4010 o         1 OCE     -0.585000
@<TRIPOS>BOND
     1    1    9 1   
     2    2   10 1   
     3    3    5 1   
     4    3   11 1   
     5    3   13 1   
     6    3   14 1   
     7    4    6 1   
     8    4   12 1   
     9    4   17 1   
    10    4   18 1   
    11    5    7 1   
    12    5   15 1   
    13    5   16 1   
    14    6    8 1   
    15    6   21 1   
    16    6   22 1   
    17    7    9 1   
    18    7   19 1   
    19    7   20 1   
    20    8   10 1   
    21    9   23 1   
    22   10   24 1   
@<TRIPOS>SUBSTRUCTURE
     1 OCE         1 TEMP              0 ****  ****    0 ROOT
