@<TRIPOS>MOLECULE
OCG
   48    41     1     0     0
SMALL
bcc


@<TRIPOS>ATOM
      1 N1         -0.4010   -1.0140   -4.2690 n3        1 OCG     -0.131000
      2 N2          0.9690   -0.9340   -4.3000 n2        1 OCG     -0.069000
      3 C3          1.4230   -1.0100   -3.0300 c1        1 OCG     -0.103000
      4 C4          0.3430   -1.1380   -2.2020 c1        1 OCG     -0.343000
      5 C5         -0.7830   -1.1400   -2.9770 c1        1 OCG      0.187000
      6 N6         -2.1180   -1.2050   -2.5070 n2        1 OCG     -0.335000
      7 C7          0.3790   -1.1320   -0.6730 c1        1 OCG      0.412000
      8 O8         -0.6510   -1.2540   -0.0450 o         1 OCG     -0.399000
      9 N9          1.5950   -0.8110    0.0080 n3        1 OCG     -0.324000
     10 C10         1.5940   -0.6350    1.4290 c2        1 OCG      0.082000
     11 C11         2.2390   -1.5570    2.2430 c2        1 OCG     -0.102000
     12 C12         2.2820   -1.3580    3.6180 c1        1 OCG     -0.112000
     13 C13         1.6790   -0.2380    4.1780 c1        1 OCG     -0.133000
     14 C14         1.0340    0.6840    3.3630 c1        1 OCG     -0.109000
     15 C15         0.9910    0.4860    1.9890 c1        1 OCG     -0.100000
     16 C16         0.3620    1.9120    3.9800 c2        1 OCG      0.355000
     17 O17        -0.2020    2.7180    3.2680 o         1 OCG     -0.287000
     18 N18         0.3850    2.1030    5.3980 n         1 OCG     -0.311000
     19 C19        -0.2600    3.2450    5.9750 c2        1 OCG      0.025000
     20 N20        -1.1660    4.0390    5.3640 n2        1 OCG     -0.025000
     21 O21        -1.5180    5.0540    6.2500 os        1 OCG     -0.065000
     22 C22        -0.8210    4.8700    7.3960 c1        1 OCG     -0.062000
     23 C23        -0.0360    3.7500    7.2400 c1        1 OCG     -0.264000
     24 C24         2.8360   -2.8170    1.6390 c3        1 OCG     -0.183000
     25 C25        -1.2330   -0.9070   -5.3420 c1        1 OCG      0.058000
     26 C26        -1.7970    0.3190   -5.6620 c1        1 OCG     -0.128000
     27 C27        -2.6390    0.4300   -6.7610 c1        1 OCG     -0.128000
     28 C28        -2.9150   -0.6840   -7.5380 c1        1 OCG     -0.128000
     29 C29        -2.3500   -1.9110   -7.2180 c1        1 OCG     -0.128000
     30 C30        -1.5090   -2.0220   -6.1200 c1        1 OCG     -0.113000
     31 H3          2.3610   -0.9790   -2.7510 DU        1 OCG      0.183000
     32 HN6        -2.8130   -1.1910   -3.1010 hn        1 OCG      0.242500
     33 HN6A       -2.2850   -1.2370   -1.6090 hn        1 OCG      0.242500
     34 HN9         2.3780   -0.7570   -0.4580 hn        1 OCG      0.234000
     35 H12         2.7350   -2.0070    4.1910 ha        1 OCG      0.136000
     36 H13         1.7100   -0.0990    5.1430 ha        1 OCG      0.139000
     37 H15         0.5390    1.1330    1.4170 ha        1 OCG      0.188000
     38 HN18        0.8650    1.5360    5.9260 hn        1 OCG      0.244000
     39 H22        -0.8670    5.4320    8.1930 DU        1 OCG      0.183000
     40 H23         0.5720    3.3790    7.9070 DU        1 OCG      0.183000
     41 H24         3.6440   -3.0680    2.1370 hc        1 OCG      0.085667
     42 H24A        3.0690   -2.6510    0.7010 hc        1 OCG      0.085667
     43 H24B        2.1820   -3.5450    1.6880 hc        1 OCG      0.085667
     44 H26        -1.6030    1.1030   -5.1150 ha        1 OCG      0.143500
     45 H27        -3.0370    1.2950   -6.9860 ha        1 OCG      0.143500
     46 H28        -3.5080   -0.6060   -8.3130 ha        1 OCG      0.143500
     47 H29        -2.5450   -2.6970   -7.7670 ha        1 OCG      0.143500
     48 H30        -1.1120   -2.8840   -5.8950 ha        1 OCG      0.156000
@<TRIPOS>BOND
     1    1    2 1   
     2    1    5 1   
     3    1   25 1   
     4    2    3 1   
     5    3    4 1   
     6    4    5 1   
     7    6   32 1   
     8    6   33 1   
     9    7    8 1   
    10    7    9 1   
    11    9   10 1   
    12    9   34 1   
    13   10   11 1   
    14   10   15 1   
    15   11   12 1   
    16   11   24 1   
    17   12   35 1   
    18   13   14 1   
    19   13   36 1   
    20   14   16 1   
    21   15   37 1   
    22   16   17 1   
    23   16   18 1   
    24   18   19 1   
    25   18   38 1   
    26   19   20 1   
    27   19   23 1   
    28   20   21 1   
    29   21   22 1   
    30   22   23 1   
    31   24   41 1   
    32   24   42 1   
    33   24   43 1   
    34   25   30 1   
    35   26   27 1   
    36   26   44 1   
    37   27   45 1   
    38   28   29 1   
    39   28   46 1   
    40   29   47 1   
    41   30   48 1   
@<TRIPOS>SUBSTRUCTURE
     1 OCG         1 TEMP              0 ****  ****    0 ROOT
