@<TRIPOS>MOLECULE
OCG
   48    51     1     0     0
SMALL
bcc


@<TRIPOS>ATOM
      1 N1         -0.0060   -0.1530   -0.1100 na        1 OCG      0.110300
      2 N2          1.3520   -0.1600   -0.0710 nc        1 OCG     -0.500800
      3 C3          1.7180   -0.0440    1.2190 cd        1 OCG      0.362200
      4 C4          0.5610    0.0650    2.0800 cd        1 OCG     -0.427900
      5 C5         -0.5590   -0.0050    1.1900 cc        1 OCG      0.240300
      6 N6         -1.8900   -0.0170    1.5110 nv        1 OCG     -0.823200
      7 C7          0.4620    0.2500    3.5160 c         1 OCG      0.738700
      8 O8         -0.6370    0.4650    4.0780 o         1 OCG     -0.637100
      9 N9          1.6560    0.1860    4.2340 ns        1 OCG     -0.469100
     10 C10         1.7980    0.3210    5.6230 ca        1 OCG      0.073600
     11 C11         2.9390   -0.2330    6.2680 ca        1 OCG     -0.106300
     12 C12         3.0960   -0.0670    7.6460 ca        1 OCG     -0.111000
     13 C13         2.1540    0.6160    8.4070 ca        1 OCG     -0.130000
     14 C14         1.0320    1.1570    7.7760 ca        1 OCG     -0.129600
     15 C15         0.8520    1.0260    6.4000 ca        1 OCG     -0.097000
     16 C16         0.0090    1.9250    8.5460 c         1 OCG      0.692700
     17 O17        -0.4240    3.0240    8.1640 o         1 OCG     -0.571100
     18 N18        -0.4280    1.3160    9.7240 ns        1 OCG     -0.537400
     19 C19        -1.3750    1.8540   10.5880 cc        1 OCG      0.435200
     20 N20        -1.8170    1.2510   11.7350 nd        1 OCG     -0.420300
     21 O21        -2.7030    2.0450   12.3050 os        1 OCG     -0.120100
     22 C22        -2.8820    3.2170   11.5440 cd        1 OCG      0.252600
     23 C23        -2.0650    3.1530   10.4420 cc        1 OCG     -0.348600
     24 C24         3.9700   -0.9800    5.5090 c3        1 OCG     -0.058800
     25 C25        -0.7580   -0.2050   -1.3170 ca        1 OCG      0.011800
     26 C26        -0.3790    0.5860   -2.4220 ca        1 OCG     -0.128500
     27 C27        -1.1270    0.5320   -3.5960 ca        1 OCG     -0.120500
     28 C28        -2.2460   -0.2930   -3.6880 ca        1 OCG     -0.126000
     29 C29        -2.6140   -1.0850   -2.6020 ca        1 OCG     -0.120500
     30 C30        -1.8770   -1.0570   -1.4200 ca        1 OCG     -0.128500
     31 H3          2.7700   -0.0300    1.5100 h4        1 OCG      0.041100
     32 HN6        -2.5430    0.2500    0.8110 hn        1 OCG      0.444800
     33 HN6A       -2.0920    0.2480    2.4550 hn        1 OCG      0.444800
     34 HN9         2.4700   -0.0960    3.7360 hn        1 OCG      0.320500
     35 H12         3.9860   -0.4900    8.1390 ha        1 OCG      0.138000
     36 H13         2.3080    0.7380    9.4890 ha        1 OCG      0.140000
     37 H15        -0.0380    1.4800    5.9290 ha        1 OCG      0.187000
     38 HN18       -0.0690    0.4130    9.9460 hn        1 OCG      0.338500
     39 H22        -3.5990    3.9210   11.9510 h4        1 OCG      0.063100
     40 H23        -1.9200    3.8560    9.6260 ha        1 OCG      0.206000
     41 H24         4.7530   -1.3910    6.1930 hc        1 OCG      0.047367
     42 H24A        3.5120   -1.8400    4.9570 hc        1 OCG      0.047367
     43 H24B        4.4790   -0.3110    4.7690 hc        1 OCG      0.047367
     44 H26         0.5080    1.2360   -2.3670 ha        1 OCG      0.155000
     45 H27        -0.8260    1.1510   -4.4550 ha        1 OCG      0.140500
     46 H28        -2.8330   -0.3250   -4.6180 ha        1 OCG      0.140000
     47 H29        -3.4890   -1.7490   -2.6750 ha        1 OCG      0.140500
     48 H30        -2.1630   -1.7190   -0.5880 ha        1 OCG      0.155000
@<TRIPOS>BOND
     1    1    2 1   
     2    1    5 1   
     3    1   25 1   
     4    2    3 2   
     5    3    4 1   
     6    3   31 1   
     7    4    5 2   
     8    4    7 1   
     9    5    6 1   
    10    6   32 1   
    11    6   33 1   
    12    7    8 2   
    13    7    9 1   
    14    9   10 1   
    15    9   34 1   
    16   10   11 ar  
    17   10   15 ar  
    18   11   12 ar  
    19   11   24 1   
    20   12   13 ar  
    21   12   35 1   
    22   13   14 ar  
    23   13   36 1   
    24   14   15 ar  
    25   14   16 1   
    26   15   37 1   
    27   16   17 2   
    28   16   18 1   
    29   18   19 1   
    30   18   38 1   
    31   19   20 2   
    32   19   23 1   
    33   20   21 1   
    34   21   22 1   
    35   22   23 2   
    36   22   39 1   
    37   23   40 1   
    38   24   41 1   
    39   24   42 1   
    40   24   43 1   
    41   25   26 ar  
    42   25   30 ar  
    43   26   27 ar  
    44   26   44 1   
    45   27   28 ar  
    46   27   45 1   
    47   28   29 ar  
    48   28   46 1   
    49   29   30 ar  
    50   29   47 1   
    51   30   48 1   
@<TRIPOS>SUBSTRUCTURE
     1 OCG         1 TEMP              0 ****  ****    0 ROOT
