@<TRIPOS>MOLECULE
OCG
   51    54     1     0     0
SMALL
bcc


@<TRIPOS>ATOM
      1 N1          0.1270    0.3700   -0.2710 na        1 OCG      0.315300
      2 N2          1.0800    1.2680   -0.0040 nc        1 OCG     -0.375800
      3 C3          1.1380    1.4470    1.3450 cd        1 OCG      0.378200
      4 C4          0.1590    0.6160    1.9970 cd        1 OCG     -0.363900
      5 C5         -0.4870   -0.0720    0.9050 cc        1 OCG     -0.031700
      6 N6         -1.5720   -1.0230    0.9830 n4        1 OCG     -0.686000
      7 C7         -0.1850    0.4600    3.3800 c         1 OCG      0.604700
      8 O8         -1.0820   -0.2530    3.8240 o         1 OCG     -0.460100
      9 N9          0.6220    1.2880    4.3630 n4        1 OCG     -0.525200
     10 C10         0.6570    0.7700    5.7360 ca        1 OCG     -0.067400
     11 C11         1.7350   -0.0500    6.1550 ca        1 OCG      0.036700
     12 C12         1.7560   -0.4780    7.4880 ca        1 OCG     -0.102000
     13 C13         0.7610   -0.1110    8.3910 ca        1 OCG     -0.003000
     14 C14        -0.3010    0.7010    7.9690 ca        1 OCG     -0.159600
     15 C15        -0.3600    1.1360    6.6330 ca        1 OCG     -0.012000
     16 C16        -1.4050    1.1430    8.8360 c         1 OCG      0.574700
     17 O17        -2.4660    1.6290    8.4720 o         1 OCG     -0.389100
     18 N18        -1.2700    1.0000   10.3430 n4        1 OCG     -0.619500
     19 C19        -0.3370    1.9500   10.9150 cc        1 OCG      0.326200
     20 N20         0.8910    2.2630   10.3940 nd        1 OCG     -0.318300
     21 O21         1.4460    3.1360   11.1790 os        1 OCG     -0.040100
     22 C22         0.6070    3.4500   12.2740 cd        1 OCG      0.344600
     23 C23        -0.5560    2.7110   12.1460 cc        1 OCG     -0.320600
     24 C24         2.8360   -0.4370    5.2440 c3        1 OCG     -0.112800
     25 C25        -0.2500   -0.0590   -1.5920 ca        1 OCG     -0.128200
     26 C26        -0.4150    0.8950   -2.6130 ca        1 OCG     -0.106000
     27 C27        -0.7660    0.4590   -3.8930 ca        1 OCG     -0.094000
     28 C28        -0.9320   -0.8980   -4.1610 ca        1 OCG     -0.047000
     29 C29        -0.7410   -1.8430   -3.1440 ca        1 OCG     -0.094000
     30 C30        -0.3930   -1.4400   -1.8610 ca        1 OCG     -0.106000
     31 H3          1.8620    2.1500    1.7740 h4        1 OCG      0.088100
     32 HN6        -2.1270   -0.8310    1.8350 hn        1 OCG      0.496467
     33 HN6A       -1.1920   -1.9820    1.0330 hn        1 OCG      0.496467
     34 HN9         0.2140    2.2370    4.3800 hn        1 OCG      0.481800
     35 H12         2.5920   -1.1180    7.8350 ha        1 OCG      0.205000
     36 H13         0.8450   -0.4750    9.4300 ha        1 OCG      0.173000
     37 H15        -1.2140    1.7640    6.3140 ha        1 OCG      0.184000
     38 HN18       -2.1970    1.1780   10.7760 hn        1 OCG      0.489800
     39 H22         1.0200    4.1790   12.9780 h4        1 OCG      0.129100
     40 H23        -1.4300    2.6910   12.7970 ha        1 OCG      0.225000
     41 H24         3.5100   -1.1960    5.7250 hc        1 OCG      0.089700
     42 H24A        2.4470   -0.8910    4.2990 hc        1 OCG      0.089700
     43 H24B        3.4740    0.4520    4.9950 hc        1 OCG      0.089700
     44 H26        -0.2680    1.9730   -2.4280 ha        1 OCG      0.154500
     45 H27        -0.8980    1.2050   -4.6990 ha        1 OCG      0.188000
     46 H28        -1.1990   -1.2340   -5.1810 ha        1 OCG      0.193000
     47 H29        -0.8450   -2.9190   -3.3710 ha        1 OCG      0.188000
     48 H30        -0.1630   -2.2050   -1.1040 ha        1 OCG      0.154500
     49 H63        -2.1770   -0.9520    0.1440 hn        1 OCG      0.496467
     50 H92         1.5930    1.3570    4.0160 hn        1 OCG      0.481800
     51 H182       -0.9680    0.0440   10.5850 hn        1 OCG      0.489800
@<TRIPOS>BOND
     1    1    2 1   
     2    1    5 1   
     3    1   25 1   
     4    2    3 2   
     5    3    4 1   
     6    3   31 1   
     7    4    5 2   
     8    4    7 1   
     9    5    6 1   
    10    6   32 1   
    11    6   33 1   
    12    6   49 1   
    13    7    8 2   
    14    7    9 1   
    15    9   10 1   
    16    9   34 1   
    17    9   50 1   
    18   10   11 ar  
    19   10   15 ar  
    20   11   12 ar  
    21   11   24 1   
    22   12   13 ar  
    23   12   35 1   
    24   13   14 ar  
    25   13   36 1   
    26   14   15 ar  
    27   14   16 1   
    28   15   37 1   
    29   16   17 2   
    30   16   18 1   
    31   18   19 1   
    32   18   38 1   
    33   18   51 1   
    34   19   20 2   
    35   19   23 1   
    36   20   21 1   
    37   21   22 1   
    38   22   23 2   
    39   22   39 1   
    40   23   40 1   
    41   24   41 1   
    42   24   42 1   
    43   24   43 1   
    44   25   26 ar  
    45   25   30 ar  
    46   26   27 ar  
    47   26   44 1   
    48   27   28 ar  
    49   27   45 1   
    50   28   29 ar  
    51   28   46 1   
    52   29   30 ar  
    53   29   47 1   
    54   30   48 1   
@<TRIPOS>SUBSTRUCTURE
     1 OCG         1 TEMP              0 ****  ****    0 ROOT
