@<TRIPOS>MOLECULE
OCG
   48    51     1     0     0
SMALL
bcc


@<TRIPOS>ATOM
      1 N1          4.6780    0.1380   -0.0500 na        1 OCG      0.110300
      2 N2          4.6200    1.4200   -0.4960 nc        1 OCG     -0.500800
      3 C3          3.3230    1.7810   -0.5140 cd        1 OCG      0.362200
      4 C4          2.4750    0.6920   -0.0800 cd        1 OCG     -0.427900
      5 C5          3.3820   -0.3760    0.2170 cc        1 OCG      0.240300
      6 N6          3.0900   -1.6110    0.7320 nh        1 OCG     -0.823200
      7 C7          1.0300    0.5980    0.0210 c         1 OCG      0.738700
      8 O8          0.4580   -0.4840    0.2870 o         1 OCG     -0.637100
      9 N9          0.3140    1.7730   -0.2050 n         1 OCG     -0.469100
     10 C10        -1.0790    1.9210   -0.1460 ca        1 OCG      0.073600
     11 C11        -1.6390    3.2080    0.0880 ca        1 OCG     -0.106300
     12 C12        -3.0270    3.3590    0.1100 ca        1 OCG     -0.111000
     13 C13        -3.8790    2.2750   -0.0770 ca        1 OCG     -0.130000
     14 C14        -3.3310    1.0110   -0.3050 ca        1 OCG     -0.129600
     15 C15        -1.9500    0.8270   -0.3510 ca        1 OCG     -0.097000
     16 C16        -4.2040   -0.1760   -0.5420 c         1 OCG      0.692700
     17 O17        -4.0080   -0.9700   -1.4770 o         1 OCG     -0.571100
     18 N18        -5.2530   -0.3340    0.3650 n         1 OCG     -0.537400
     19 C19        -6.1800   -1.3680    0.3300 cc        1 OCG      0.435200
     20 N20        -7.2010   -1.5330    1.2290 nd        1 OCG     -0.420300
     21 O21        -7.8830   -2.6090    0.8880 os        1 OCG     -0.120100
     22 C22        -7.3310   -3.2030   -0.2640 cd        1 OCG      0.252600
     23 C23        -6.2480   -2.4590   -0.6640 cc        1 OCG     -0.348600
     24 C24        -0.7800    4.3970    0.3060 c3        1 OCG     -0.058800
     25 C25         5.8900   -0.6030    0.0530 ca        1 OCG      0.011800
     26 C26         6.8370   -0.5590   -0.9900 ca        1 OCG     -0.128500
     27 C27         8.0150   -1.2940   -0.8820 ca        1 OCG     -0.120500
     28 C28         8.2650   -2.0740    0.2460 ca        1 OCG     -0.126000
     29 C29         7.3350   -2.1070    1.2840 ca        1 OCG     -0.120500
     30 C30         6.1550   -1.3730    1.2040 ca        1 OCG     -0.128500
     31 H3          3.0170    2.7780   -0.8340 h4        1 OCG      0.041100
     32 HN6         3.7440   -2.3450    0.5900 hn        1 OCG      0.444800
     33 HN6A        2.1170   -1.8490    0.7110 hn        1 OCG      0.444800
     34 HN9         0.8390    2.6130   -0.3010 hn        1 OCG      0.320500
     35 H12        -3.4560    4.3590    0.2830 ha        1 OCG      0.138000
     36 H13        -4.9680    2.4260   -0.0630 ha        1 OCG      0.140000
     37 H15        -1.5490   -0.1830   -0.5490 ha        1 OCG      0.187000
     38 HN18       -5.3230    0.3170    1.1180 hn        1 OCG      0.338500
     39 H22        -7.8410   -4.0970   -0.6060 h4        1 OCG      0.063100
     40 H23        -5.5660   -2.5940   -1.5000 ha        1 OCG      0.206000
     41 H24        -0.1740    4.6190   -0.6090 hc        1 OCG      0.047367
     42 H24A       -1.3970    5.3010    0.5350 hc        1 OCG      0.047367
     43 H24B       -0.0820    4.2310    1.1650 hc        1 OCG      0.047367
     44 H26         6.6580    0.0590   -1.8840 ha        1 OCG      0.155000
     45 H27         8.7520   -1.2560   -1.6990 ha        1 OCG      0.140500
     46 H28         9.1960   -2.6550    0.3200 ha        1 OCG      0.140000
     47 H29         7.5350   -2.7100    2.1830 ha        1 OCG      0.140500
     48 H30         5.4520   -1.3840    2.0530 ha        1 OCG      0.155000
@<TRIPOS>BOND
     1    1    2 1   
     2    1    5 1   
     3    1   25 1   
     4    2    3 2   
     5    3    4 1   
     6    3   31 1   
     7    4    5 2   
     8    4    7 1   
     9    5    6 1   
    10    6   32 1   
    11    6   33 1   
    12    7    8 2   
    13    7    9 1   
    14    9   10 1   
    15    9   34 1   
    16   10   11 ar  
    17   10   15 ar  
    18   11   12 ar  
    19   11   24 1   
    20   12   13 ar  
    21   12   35 1   
    22   13   14 ar  
    23   13   36 1   
    24   14   15 ar  
    25   14   16 1   
    26   15   37 1   
    27   16   17 2   
    28   16   18 1   
    29   18   19 1   
    30   18   38 1   
    31   19   20 2   
    32   19   23 1   
    33   20   21 1   
    34   21   22 1   
    35   22   23 2   
    36   22   39 1   
    37   23   40 1   
    38   24   41 1   
    39   24   42 1   
    40   24   43 1   
    41   25   26 ar  
    42   25   30 ar  
    43   26   27 ar  
    44   26   44 1   
    45   27   28 ar  
    46   27   45 1   
    47   28   29 ar  
    48   28   46 1   
    49   29   30 ar  
    50   29   47 1   
    51   30   48 1   
@<TRIPOS>SUBSTRUCTURE
     1 OCG         1 TEMP              0 ****  ****    0 ROOT
