@<TRIPOS>MOLECULE
OCH
   18    15     1     0     0
SMALL
bcc


@<TRIPOS>ATOM
      1 O1         -3.3910   -0.0000   -1.4140 o         1 OCH     -0.357000
      2 N2         -1.1550   -0.0000   -1.4140 n2        1 OCH     -0.299000
      3 C3          0.0210   -0.0000   -0.6830 c1        1 OCH     -0.010500
      4 C4          1.2630   -0.0000   -1.3470 c2        1 OCH     -0.114500
      5 C5          2.4430   -0.0000   -0.6130 c1        1 OCH     -0.145000
      6 C6          2.3970   -0.0000    0.7780 c1        1 OCH     -0.119500
      7 C7          1.1720    0.0000    1.4340 c1        1 OCH     -0.119500
      8 C8         -0.0240    0.0000    0.6910 c1        1 OCH     -0.010500
      9 C9         -1.2480    0.0000    1.3430 c2        1 OCH     -0.114500
     10 C10        -2.4080    0.0000    0.6190 c1        1 OCH     -0.145000
     11 C1         -2.3600   -0.0000   -0.7720 c1        1 OCH      0.330000
     12 HN2        -1.1250   -0.0000   -2.3260 hn        1 OCH      0.246000
     13 H4          1.2960   -0.0000   -2.3220 ha        1 OCH      0.140500
     14 H5          3.3030   -0.0000   -1.0730 ha        1 OCH      0.151000
     15 H6          3.2260    0.0000    1.2930 ha        1 OCH      0.138000
     16 H7          1.1410    0.0000    2.4090 ha        1 OCH      0.138000
     17 H9         -1.2810    0.0000    2.3190 ha        1 OCH      0.140500
     18 H10        -3.2700    0.0000    1.0780 ha        1 OCH      0.151000
@<TRIPOS>BOND
     1    1   11 1   
     2    2   11 1   
     3    2   12 1   
     4    3    4 1   
     5    3    8 1   
     6    4    5 1   
     7    4   13 1   
     8    5   14 1   
     9    6    7 1   
    10    6   15 1   
    11    7   16 1   
    12    8    9 1   
    13    9   10 1   
    14    9   17 1   
    15   10   18 1   
@<TRIPOS>SUBSTRUCTURE
     1 OCH         1 TEMP              0 ****  ****    0 ROOT
