@<TRIPOS>MOLECULE
OCH
   18    19     1     0     0
SMALL
bcc


@<TRIPOS>ATOM
      1 O1         -3.2830    0.7380    0.0010 o         1 OCH     -0.632500
      2 N2         -1.0330    1.0810    0.0010 n         1 OCH     -0.445100
      3 C3          0.2700    0.6010    0.0000 ca        1 OCH      0.098600
      4 C4          1.3780    1.4880    0.0000 ca        1 OCH     -0.186000
      5 C5          2.6670    0.9850   -0.0000 ca        1 OCH     -0.077000
      6 C6          2.9000   -0.3980   -0.0000 ca        1 OCH     -0.169000
      7 C7          1.8320   -1.2790   -0.0000 ca        1 OCH     -0.070000
      8 C8          0.5100   -0.8030   -0.0000 ca        1 OCH     -0.138800
      9 C9         -0.6210   -1.6980   -0.0000 cc        1 OCH     -0.031200
     10 C10        -1.8830   -1.2180    0.0000 cd        1 OCH     -0.232200
     11 C1         -2.1460    0.2280    0.0010 c         1 OCH      0.691700
     12 HN2        -1.1850    2.0650    0.0010 hn        1 OCH      0.332500
     13 H4          1.2120    2.5760    0.0010 ha        1 OCH      0.139000
     14 H5          3.5220    1.6790   -0.0000 ha        1 OCH      0.137000
     15 H6          3.9320   -0.7770   -0.0010 ha        1 OCH      0.139000
     16 H7          2.0060   -2.3660   -0.0010 ha        1 OCH      0.137000
     17 H9         -0.4180   -2.7810   -0.0000 ha        1 OCH      0.142000
     18 H10        -2.7760   -1.8590    0.0000 ha        1 OCH      0.165000
@<TRIPOS>BOND
     1    1   11 2   
     2    2    3 1   
     3    2   11 1   
     4    2   12 1   
     5    3    4 ar  
     6    3    8 ar  
     7    4    5 ar  
     8    4   13 1   
     9    5    6 ar  
    10    5   14 1   
    11    6    7 ar  
    12    6   15 1   
    13    7    8 ar  
    14    7   16 1   
    15    8    9 1   
    16    9   10 2   
    17    9   17 1   
    18   10   11 1   
    19   10   18 1   
@<TRIPOS>SUBSTRUCTURE
     1 OCH         1 TEMP              0 ****  ****    0 ROOT
