@<TRIPOS>MOLECULE
OCP
   97    91     1     0     0
SMALL
bcc


@<TRIPOS>ATOM
      1 P1          5.0590    1.4100   -1.4450 p5        1 OCP      2.013000
      2 O1          6.9120    0.5150   -3.0340 o         1 OCP     -0.301000
      3 O2          5.1090    2.3110   -0.2760 o         1 OCP     -0.864500
      4 O4          4.4160    0.0720   -1.3380 o         1 OCP     -0.864500
      5 O5          5.5840   -2.7110   -1.8940 o         1 OCP     -0.468000
      6 O6          4.9950   -1.5870   -3.7270 oh        1 OCP     -0.330000
      7 O7          6.6540   -5.3340    0.9580 o         1 OCP     -0.351000
      8 C1          6.6500    1.2220   -2.0500 c2        1 OCP     -0.428000
      9 C2          4.9630   -1.5970    1.2560 c2        1 OCP     -0.265000
     10 C3          5.3610   -2.4070    2.2340 c2        1 OCP     -0.067000
     11 C4          1.5460    0.7920   -2.7700 c3        1 OCP     -0.223500
     12 C5          0.9020    2.1530   -2.7170 c3        1 OCP     -0.161500
     13 C6         -0.5010    2.1300   -3.2850 c3        1 OCP     -0.156000
     14 C7         -1.1440    3.4980   -3.2230 c3        1 OCP     -0.159000
     15 C8         -2.5500    3.4730   -3.7830 c3        1 OCP     -0.155500
     16 C9         -3.1960    4.8390   -3.7170 c3        1 OCP     -0.185500
     17 C10        -4.6050    4.8160   -4.2720 c3        1 OCP     -0.254500
     18 C11        -5.3480    6.0540   -4.2710 c1        1 OCP     -0.065000
     19 C12         6.2280   -4.1800    0.8780 c2        1 OCP      0.251000
     20 N1          6.5460   -6.1450    3.8050 n3        1 OCP     -0.350000
     21 C13         7.8410   -5.9020    4.3960 c3        1 OCP     -0.072000
     22 C14         8.7560   -7.1270    4.3740 c3        1 OCP     -0.162000
     23 C15        10.0680   -6.8140    5.0610 c3        1 OCP     -0.157000
     24 C16        10.9910   -8.0130    5.0480 c3        1 OCP     -0.157000
     25 C17        12.3040   -7.7040    5.7360 c3        1 OCP     -0.157000
     26 C18        13.2270   -8.9030    5.7250 c3        1 OCP     -0.184000
     27 C19        14.5400   -8.6010    6.4180 c3        1 OCP     -0.255000
     28 C20        15.5210   -9.6580    6.4870 c1        1 OCP     -0.062000
     29 N2          3.2860   -2.2150   -2.2520 n         1 OCP     -0.302000
     30 C23         3.5130    0.4310   -6.1080 c3        1 OCP     -0.223500
     31 C24         3.6960    1.8450   -5.6220 c3        1 OCP     -0.161500
     32 C25         3.0670    2.8500   -6.5640 c3        1 OCP     -0.156000
     33 C26         3.1820    4.2560   -6.0140 c3        1 OCP     -0.159000
     34 C27         2.5750    5.2700   -6.9600 c3        1 OCP     -0.155500
     35 C28         2.6930    6.6750   -6.4110 c3        1 OCP     -0.185500
     36 C29         2.0910    7.6940   -7.3560 c3        1 OCP     -0.254500
     37 C30         2.1350    9.0830   -6.9630 c1        1 OCP     -0.065000
     38 H11         4.5760   -0.5930    1.4850 ha        1 OCP      0.163500
     39 H12         5.9520   -1.4110   -3.7120 ho        1 OCP      0.265000
     40 H2          7.4870    1.7520   -1.5360 h4        1 OCP      0.066000
     41 H31         5.3280   -2.1730    3.3110 h4        1 OCP      0.148000
     42 H32         4.9960   -1.8160    0.1760 ha        1 OCP      0.163500
     43 H41         2.5710    0.8250   -2.3070 hc        1 OCP      0.079167
     44 H42         4.5750    2.0500   -2.4960 hp        1 OCP     -0.601000
     45 H51         1.6510    0.4440   -3.8270 hc        1 OCP      0.079167
     46 H52         0.9340    0.0430   -2.2110 hc        1 OCP      0.079167
     47 H61         0.8700    2.5120   -1.6550 hc        1 OCP      0.087750
     48 H62         1.5290    2.8850   -3.2940 hc        1 OCP      0.087750
     49 H71        -1.1250    1.3950   -2.7120 hc        1 OCP      0.071000
     50 H72        -0.4690    1.7760   -4.3490 hc        1 OCP      0.071000
     51 H81        -1.1690    3.8530   -2.1590 hc        1 OCP      0.082500
     52 H82        -0.5220    4.2320   -3.8010 hc        1 OCP      0.082500
     53 H91        -3.1700    2.7360   -3.2070 hc        1 OCP      0.074750
     54 H92        -2.5230    3.1200   -4.8480 hc        1 OCP      0.074750
     55 H101       -3.2170    5.1920   -2.6530 hc        1 OCP      0.082000
     56 H102       -2.5770    5.5740   -4.2960 hc        1 OCP      0.082000
     57 H111       -4.5940    4.4480   -5.3410 hc        1 OCP      0.144000
     58 H112       -5.2320    4.0650   -3.7030 hc        1 OCP      0.144000
     59 H113       -4.8340    6.9390   -3.8620 ha        1 OCP      0.036000
     60 HN1         6.1250   -3.5400   -0.0200 h5        1 OCP      0.215000
     61 H131        6.0520   -5.2760    3.7110 hn        1 OCP      0.158000
     62 H132        6.6470   -6.5380    2.8860 hn        1 OCP      0.158000
     63 H141        8.3950   -5.0500    3.9000 h1        1 OCP      0.056500
     64 H142        7.6700   -5.5980    5.4690 h1        1 OCP      0.056500
     65 H151        8.9500   -7.4380    3.3140 hc        1 OCP      0.084500
     66 H152        8.2550   -7.9870    4.8890 hc        1 OCP      0.084500
     67 H161       10.5670   -5.9500    4.5470 hc        1 OCP      0.077500
     68 H162        9.8740   -6.5010    6.1210 hc        1 OCP      0.077500
     69 H171       11.1870   -8.3250    3.9880 hc        1 OCP      0.079000
     70 H172       10.4920   -8.8780    5.5600 hc        1 OCP      0.079000
     71 H181       12.1070   -7.3910    6.7950 hc        1 OCP      0.078500
     72 H182       12.8030   -6.8400    5.2230 hc        1 OCP      0.078500
     73 H191       12.7250   -9.7680    6.2330 hc        1 OCP      0.080000
     74 H192       13.4250   -9.2140    4.6650 hc        1 OCP      0.080000
     75 H201       15.0500   -7.7250    5.9160 hc        1 OCP      0.145500
     76 H202       14.3480   -8.2660    7.4810 hc        1 OCP      0.145500
     77 H203       15.2500  -10.6150    6.0120 ha        1 OCP      0.034000
     78 HN2         3.1440   -2.1680   -1.2600 hn        1 OCP      0.200500
     79 H231        3.9910   -0.2840   -5.3910 hc        1 OCP      0.079167
     80 H232        2.8010   -1.4620   -2.7070 hn        1 OCP      0.200500
     81 H241        2.4270    0.1790   -6.1860 hc        1 OCP      0.079167
     82 H242        3.9780    0.2940   -7.1130 hc        1 OCP      0.079167
     83 H251        4.7900    2.0670   -5.5120 hc        1 OCP      0.087750
     84 H252        3.2400    1.9500   -4.5990 hc        1 OCP      0.087750
     85 H261        1.9860    2.5950   -6.7200 hc        1 OCP      0.071000
     86 H262        3.5680    2.7930   -7.5660 hc        1 OCP      0.071000
     87 H271        2.6660    4.3110   -5.0190 hc        1 OCP      0.082500
     88 H272        4.2620    4.5040   -5.8390 hc        1 OCP      0.082500
     89 H281        3.0900    5.2110   -7.9550 hc        1 OCP      0.074750
     90 H282        1.4940    5.0230   -7.1330 hc        1 OCP      0.074750
     91 H291        3.7730    6.9180   -6.2340 hc        1 OCP      0.082000
     92 H292        2.1760    6.7330   -5.4170 hc        1 OCP      0.082000
     93 H301        2.5960    7.6300   -8.3660 hc        1 OCP      0.144000
     94 H302        1.0040    7.4490   -7.5480 hc        1 OCP      0.144000
     95 H303        2.6050    9.3090   -5.9930 ha        1 OCP      0.036000
     96 O3          5.8560   -3.7010    2.1170 os        1 OCP     -0.262000
     97 C22         4.6560   -2.1670   -2.5290 c2        1 OCP      0.427000
@<TRIPOS>BOND
     1    1    3 1   
     2    1    4 1   
     3    1    8 1   
     4    1   44 1   
     5    2    8 1   
     6    5   97 1   
     7    6   39 1   
     8    6   97 1   
     9    7   19 1   
    10    8   40 1   
    11    9   10 1   
    12    9   38 1   
    13    9   42 1   
    14   10   41 1   
    15   10   96 1   
    16   11   12 1   
    17   11   43 1   
    18   11   45 1   
    19   11   46 1   
    20   12   13 1   
    21   12   47 1   
    22   12   48 1   
    23   13   14 1   
    24   13   49 1   
    25   13   50 1   
    26   14   15 1   
    27   14   51 1   
    28   14   52 1   
    29   15   16 1   
    30   15   53 1   
    31   15   54 1   
    32   16   17 1   
    33   16   55 1   
    34   16   56 1   
    35   17   18 1   
    36   17   57 1   
    37   17   58 1   
    38   18   59 1   
    39   19   60 1   
    40   19   96 1   
    41   20   21 1   
    42   20   61 1   
    43   20   62 1   
    44   21   22 1   
    45   21   63 1   
    46   21   64 1   
    47   22   23 1   
    48   22   65 1   
    49   22   66 1   
    50   23   24 1   
    51   23   67 1   
    52   23   68 1   
    53   24   25 1   
    54   24   69 1   
    55   24   70 1   
    56   25   26 1   
    57   25   71 1   
    58   25   72 1   
    59   26   27 1   
    60   26   73 1   
    61   26   74 1   
    62   27   28 1   
    63   27   75 1   
    64   27   76 1   
    65   28   77 1   
    66   29   78 1   
    67   29   80 1   
    68   29   97 1   
    69   30   31 1   
    70   30   79 1   
    71   30   81 1   
    72   30   82 1   
    73   31   32 1   
    74   31   83 1   
    75   31   84 1   
    76   32   33 1   
    77   32   85 1   
    78   32   86 1   
    79   33   34 1   
    80   33   87 1   
    81   33   88 1   
    82   34   35 1   
    83   34   89 1   
    84   34   90 1   
    85   35   36 1   
    86   35   91 1   
    87   35   92 1   
    88   36   37 1   
    89   36   93 1   
    90   36   94 1   
    91   37   95 1   
@<TRIPOS>SUBSTRUCTURE
     1 OCP         1 TEMP              0 ****  ****    0 ROOT
