@<TRIPOS>MOLECULE
OCP
   97    96     1     0     0
SMALL
bcc


@<TRIPOS>ATOM
      1 P1          0.1750    1.8250   -2.4780 p5        1 OCP      1.365600
      2 O1          1.0370    2.1590   -1.0750 os        1 OCP     -0.588200
      3 O2         -0.0840    3.1110   -3.1540 o         1 OCP     -0.869000
      4 O4         -0.9350    0.9810   -1.9560 o         1 OCP     -0.869000
      5 O5         -0.6690    1.5190    2.0590 os        1 OCP     -0.426900
      6 O6         -2.7130    1.2220    2.7030 o         1 OCP     -0.592000
      7 O7          3.2990    1.5670    4.0160 o         1 OCP     -0.590000
      8 C1          0.2730    2.4920    0.0310 c3        1 OCP      0.185400
      9 C2          0.4090    1.4060    1.1200 c3        1 OCP      0.105100
     10 C3          1.6800    1.6570    1.9340 c3        1 OCP      0.151400
     11 C4          1.3240    0.9040   -3.2910 c3        1 OCP     -0.342600
     12 C5          0.7760    0.6620   -4.6680 c3        1 OCP     -0.070400
     13 C6          1.7170   -0.1330   -5.5430 c3        1 OCP     -0.068400
     14 C7          1.1310   -0.3590   -6.9210 c3        1 OCP     -0.080400
     15 C8          2.0750   -1.1520   -7.7990 c3        1 OCP     -0.078400
     16 C9          1.4890   -1.3780   -9.1760 c3        1 OCP     -0.079400
     17 C10         2.4320   -2.1710  -10.0560 c3        1 OCP     -0.080400
     18 C11         1.8520   -2.3990  -11.4280 c3        1 OCP     -0.091100
     19 C12         2.8250    0.4730    3.6630 c         1 OCP      0.722100
     20 N1          3.1030   -0.7850    4.1990 n         1 OCP     -0.511900
     21 C13         3.5300   -0.8650    5.5730 c3        1 OCP      0.076000
     22 C14         2.4080   -1.0100    6.6030 c3        1 OCP     -0.118400
     23 C15         2.9910   -1.1320    7.9940 c3        1 OCP     -0.074400
     24 C16         1.9000   -1.2770    9.0320 c3        1 OCP     -0.080400
     25 C17         2.4800   -1.3970   10.4250 c3        1 OCP     -0.078400
     26 C18         1.3890   -1.5420   11.4640 c3        1 OCP     -0.079400
     27 C19         1.9660   -1.6620   12.8580 c3        1 OCP     -0.079400
     28 C20         0.8830   -1.8060   13.8960 c3        1 OCP     -0.092100
     29 N2         -2.1500    0.2050    0.6560 n         1 OCP     -0.539900
     30 C23        -3.5180   -0.0530    0.2690 c3        1 OCP      0.093000
     31 C24        -4.0190    0.8120   -0.8890 c3        1 OCP     -0.130400
     32 C25        -5.3330    0.2780   -1.4110 c3        1 OCP     -0.068400
     33 C26        -5.8620    1.1450   -2.5340 c3        1 OCP     -0.081400
     34 C27        -7.1660    0.6040   -3.0810 c3        1 OCP     -0.077400
     35 C28        -7.6950    1.4740   -4.2010 c3        1 OCP     -0.080400
     36 C29        -8.9970    0.9330   -4.7530 c3        1 OCP     -0.079400
     37 C30        -9.5270    1.7970   -5.8680 c3        1 OCP     -0.091100
     38 H11        -0.8140    2.5960   -0.2440 h1        1 OCP      0.035700
     39 H12         0.6420    3.4710    0.4490 h1        1 OCP      0.035700
     40 H2          0.4560    0.3770    0.6730 h1        1 OCP      0.082700
     41 H31         1.5280    2.4570    2.7030 h1        1 OCP      0.076200
     42 H32         2.5270    1.9150    1.2470 h1        1 OCP      0.076200
     43 H41         2.3040    1.4350   -3.3470 hc        1 OCP      0.072200
     44 H42         1.5160   -0.0650   -2.7700 hc        1 OCP      0.072200
     45 H51        -0.2030    0.1220   -4.5670 hc        1 OCP      0.055700
     46 H52         0.5590    1.6610   -5.1380 hc        1 OCP      0.055700
     47 H61         2.6940    0.4110   -5.6340 hc        1 OCP      0.031700
     48 H62         1.9340   -1.1220   -5.0590 hc        1 OCP      0.031700
     49 H71         0.1550   -0.9040   -6.8290 hc        1 OCP      0.039200
     50 H72         0.9120    0.6310   -7.4010 hc        1 OCP      0.039200
     51 H81         3.0510   -0.6060   -7.8910 hc        1 OCP      0.035200
     52 H82         2.2950   -2.1410   -7.3170 hc        1 OCP      0.035200
     53 H91         0.5130   -1.9240   -9.0840 hc        1 OCP      0.038700
     54 H92         1.2690   -0.3890   -9.6580 hc        1 OCP      0.038700
     55 H101        3.4080   -1.6240  -10.1450 hc        1 OCP      0.035700
     56 H102        2.6520   -3.1590   -9.5710 hc        1 OCP      0.035700
     57 H111        2.5620   -2.9840  -12.0590 hc        1 OCP      0.028700
     58 H112        0.8910   -2.9640  -11.3600 hc        1 OCP      0.028700
     59 H113        1.6490   -1.4250  -11.9350 hc        1 OCP      0.028700
     60 HN1         2.4860   -1.5100    3.8970 hn        1 OCP      0.304500
     61 H131        4.1340    0.0560    5.8140 h1        1 OCP      0.062700
     62 H132        4.2080   -1.7630    5.6470 h1        1 OCP      0.062700
     63 H141        1.7870   -1.9150    6.3740 hc        1 OCP      0.051700
     64 H142        1.7290   -0.1180    6.5550 hc        1 OCP      0.051700
     65 H151        3.6100   -0.2240    8.2230 hc        1 OCP      0.039200
     66 H152        3.6750   -2.0200    8.0410 hc        1 OCP      0.039200
     67 H161        1.2800   -2.1830    8.8030 hc        1 OCP      0.043200
     68 H162        1.2160   -0.3880    8.9840 hc        1 OCP      0.043200
     69 H171        3.0990   -0.4890   10.6540 hc        1 OCP      0.037700
     70 H172        3.1650   -2.2840   10.4730 hc        1 OCP      0.037700
     71 H181        0.7690   -2.4490   11.2350 hc        1 OCP      0.041200
     72 H182        0.7040   -0.6540   11.4160 hc        1 OCP      0.041200
     73 H191        2.5860   -0.7540   13.0840 hc        1 OCP      0.036700
     74 H192        2.6520   -2.5480   12.9030 hc        1 OCP      0.036700
     75 H201        1.3300   -1.8930   14.9150 hc        1 OCP      0.031033
     76 H202        0.2040   -0.9200   13.8820 hc        1 OCP      0.031033
     77 H203        0.2700   -2.7190   13.7000 hc        1 OCP      0.031033
     78 HN2        -1.5260    0.3160   -0.1310 hn        1 OCP      0.368500
     79 H231       -3.5550   -1.1360   -0.0460 h1        1 OCP      0.045200
     80 H232       -4.1950    0.0770    1.1600 h1        1 OCP      0.045200
     81 H241       -4.1500    1.8680   -0.5390 hc        1 OCP      0.079700
     82 H242       -3.2470    0.8280   -1.7110 hc        1 OCP      0.079700
     83 H251       -5.1940   -0.7710   -1.7820 hc        1 OCP      0.027700
     84 H252       -6.0870    0.2380   -0.5800 hc        1 OCP      0.027700
     85 H261       -6.0160    2.1910   -2.1600 hc        1 OCP      0.047700
     86 H262       -5.0990    1.1980   -3.3550 hc        1 OCP      0.047700
     87 H271       -7.0110   -0.4410   -3.4580 hc        1 OCP      0.032700
     88 H272       -7.9260    0.5480   -2.2570 hc        1 OCP      0.032700
     89 H281       -7.8520    2.5180   -3.8230 hc        1 OCP      0.041700
     90 H282       -6.9340    1.5310   -5.0230 hc        1 OCP      0.041700
     91 H291       -8.8380   -0.1120   -5.1290 hc        1 OCP      0.034700
     92 H292       -9.7560    0.8740   -3.9290 hc        1 OCP      0.034700
     93 H301      -10.4860    1.3810   -6.2610 hc        1 OCP      0.028700
     94 H302       -9.7160    2.8360   -5.5050 hc        1 OCP      0.028700
     95 H303       -8.7940    1.8490   -6.7080 hc        1 OCP      0.028700
     96 O3          1.9900    0.4050    2.5760 os        1 OCP     -0.439900
     97 C22        -1.9140    0.9890    1.7730 c         1 OCP      0.723100
@<TRIPOS>BOND
     1    1    2 1   
     2    1    3 1   
     3    1    4 1   
     4    1   11 1   
     5    2    8 1   
     6    5    9 1   
     7    5   97 1   
     8    6   97 2   
     9    7   19 2   
    10    8    9 1   
    11    8   38 1   
    12    8   39 1   
    13    9   10 1   
    14    9   40 1   
    15   10   41 1   
    16   10   42 1   
    17   10   96 1   
    18   11   12 1   
    19   11   43 1   
    20   11   44 1   
    21   12   13 1   
    22   12   45 1   
    23   12   46 1   
    24   13   14 1   
    25   13   47 1   
    26   13   48 1   
    27   14   15 1   
    28   14   49 1   
    29   14   50 1   
    30   15   16 1   
    31   15   51 1   
    32   15   52 1   
    33   16   17 1   
    34   16   53 1   
    35   16   54 1   
    36   17   18 1   
    37   17   55 1   
    38   17   56 1   
    39   18   57 1   
    40   18   58 1   
    41   18   59 1   
    42   19   20 1   
    43   19   96 1   
    44   20   21 1   
    45   20   60 1   
    46   21   22 1   
    47   21   61 1   
    48   21   62 1   
    49   22   23 1   
    50   22   63 1   
    51   22   64 1   
    52   23   24 1   
    53   23   65 1   
    54   23   66 1   
    55   24   25 1   
    56   24   67 1   
    57   24   68 1   
    58   25   26 1   
    59   25   69 1   
    60   25   70 1   
    61   26   27 1   
    62   26   71 1   
    63   26   72 1   
    64   27   28 1   
    65   27   73 1   
    66   27   74 1   
    67   28   75 1   
    68   28   76 1   
    69   28   77 1   
    70   29   30 1   
    71   29   78 1   
    72   29   97 1   
    73   30   31 1   
    74   30   79 1   
    75   30   80 1   
    76   31   32 1   
    77   31   81 1   
    78   31   82 1   
    79   32   33 1   
    80   32   83 1   
    81   32   84 1   
    82   33   34 1   
    83   33   85 1   
    84   33   86 1   
    85   34   35 1   
    86   34   87 1   
    87   34   88 1   
    88   35   36 1   
    89   35   89 1   
    90   35   90 1   
    91   36   37 1   
    92   36   91 1   
    93   36   92 1   
    94   37   93 1   
    95   37   94 1   
    96   37   95 1   
@<TRIPOS>SUBSTRUCTURE
     1 OCP         1 TEMP              0 ****  ****    0 ROOT
