@<TRIPOS>MOLECULE
OCP
   97    95     1     0     0
SMALL
bcc


@<TRIPOS>ATOM
      1 P1          3.5250    2.5490   -2.8680 p3        1 OCP      2.653000
      2 O1          3.6230    1.3940   -1.7420 o         1 OCP     -0.751000
      3 O2          4.2860    2.1180   -4.0980 o         1 OCP     -1.193500
      4 O4          2.0820    2.7790   -3.2270 o         1 OCP     -1.193500
      5 O5          2.2070   -1.8920   -0.8490 os        1 OCP     -0.276000
      6 O6          3.8810   -3.0480   -1.9280 o         1 OCP     -0.403000
      7 O3          1.2000    0.0860    0.7000 os        1 OCP     -0.272000
      8 O7          1.2140   -0.3110    2.9690 o         1 OCP     -0.429000
      9 C1          2.7380    0.2360   -1.8520 c3        1 OCP      0.047000
     10 C2          2.9950   -0.7100   -0.6890 c3        1 OCP      0.007000
     11 C3          2.6250   -0.0260    0.6080 c3        1 OCP     -0.029000
     12 C4          4.2530    4.1180   -2.2110 c3        1 OCP     -0.828000
     13 C5          3.5210    5.3080   -2.8150 c3        1 OCP     -0.148000
     14 C6          4.2320    6.6270   -2.3900 c3        1 OCP     -0.148000
     15 C7          3.1880    7.6590   -1.9830 c3        1 OCP     -0.159000
     16 C8          3.8760    8.9890   -1.6950 c3        1 OCP     -0.157000
     17 C9          2.9710    9.8510   -0.7510 c3        1 OCP     -0.158000
     18 C10         3.7640   11.0630   -0.2410 c3        1 OCP     -0.159000
     19 C11         3.0230   11.6890    0.9870 c3        1 OCP     -0.209000
     20 C12         0.7250    0.3140    2.0190 c2        1 OCP      0.380000
     21 N1         -0.3870    1.2030    2.2400 n         1 OCP     -0.296000
     22 C13        -1.5810    0.7160    2.8750 c3        1 OCP     -0.031000
     23 C14        -2.8090    1.0820    2.0120 c3        1 OCP     -0.210000
     24 C15        -4.1140    0.9500    2.8740 c3        1 OCP     -0.146000
     25 C16        -5.3010    1.6720    2.1400 c3        1 OCP     -0.157000
     26 C17        -6.4010    0.6770    1.8600 c3        1 OCP     -0.156000
     27 C18        -7.2140    1.1490    0.6630 c3        1 OCP     -0.159000
     28 C19        -8.0520    0.0240    0.1520 c3        1 OCP     -0.159000
     29 C20        -8.4490    0.3020   -1.2640 c3        1 OCP     -0.209000
     30 C22         2.9810   -3.0800   -1.1130 c2        1 OCP      0.378000
     31 N2          2.7530   -4.2740   -0.3410 n         1 OCP     -0.329000
     32 C23         2.5770   -5.5450   -1.0130 c3        1 OCP     -0.035000
     33 C24         2.2950   -6.6420    0.0300 c3        1 OCP     -0.195000
     34 C25         1.3040   -7.6570   -0.5540 c3        1 OCP     -0.161000
     35 C26         0.9290   -8.6980    0.5300 c3        1 OCP     -0.157000
     36 C27        -0.2430   -9.5630    0.0280 c3        1 OCP     -0.158000
     37 C28        -1.0780  -10.0440    1.2330 c3        1 OCP     -0.157000
     38 C29        -2.1600  -11.0570    0.7450 c3        1 OCP     -0.159000
     39 C30        -3.2890  -11.1400    1.7820 c3        1 OCP     -0.210000
     40 H11         2.9130   -0.2300   -2.6970 h1        1 OCP      0.082500
     41 H12         1.8030    0.5350   -1.8300 h1        1 OCP      0.082500
     42 H2          3.9330   -0.9480   -0.6710 h1        1 OCP      0.134000
     43 H31         3.0210    0.8600    0.6310 h1        1 OCP      0.105000
     44 H32         2.9550   -0.5450    1.3510 h1        1 OCP      0.105000
     45 H41         4.1620    4.1380   -1.2380 hc        1 OCP      0.110500
     46 H42         5.1990    4.1630   -2.4500 hc        1 OCP      0.110500
     47 H51         3.5280    5.2330   -3.7890 hc        1 OCP      0.094500
     48 H52         2.5930    5.3170   -2.4940 hc        1 OCP      0.094500
     49 H61         4.8290    6.4480   -1.6310 hc        1 OCP      0.071000
     50 H62         4.7600    6.9750   -3.1490 hc        1 OCP      0.071000
     51 H71         2.7300    7.3570   -1.1900 hc        1 OCP      0.078000
     52 H72         2.5460    7.7750   -2.7050 hc        1 OCP      0.078000
     53 H81         4.7300    8.8240   -1.2640 hc        1 OCP      0.075000
     54 H82         4.0250    9.4750   -2.5470 hc        1 OCP      0.075000
     55 H91         2.6850    9.3110    0.0050 hc        1 OCP      0.077500
     56 H92         2.1810   10.1630   -1.2490 hc        1 OCP      0.077500
     57 H101        3.8370   11.7360   -0.9610 hc        1 OCP      0.075000
     58 H102        4.6560   10.7780    0.0280 hc        1 OCP      0.075000
     59 H111        2.2460   12.2170    0.6700 hc        1 OCP      0.067667
     60 H112        2.7120   10.9720    1.5810 hc        1 OCP      0.067667
     61 H113        3.6410   12.2780    1.4790 hc        1 OCP      0.067667
     62 HN1        -0.3260    2.0860    1.9910 hn        1 OCP      0.283000
     63 H131       -1.5270   -0.2500    2.9690 h1        1 OCP      0.082500
     64 H132       -1.6720    1.1280    3.7640 h1        1 OCP      0.082500
     65 H141       -2.8610    0.4750    1.2470 hc        1 OCP      0.121000
     66 H142       -2.7190    2.0110    1.6890 hc        1 OCP      0.121000
     67 H151       -3.9690    1.3690    3.7560 hc        1 OCP      0.064500
     68 H152       -4.3320    0.0030    2.9940 hc        1 OCP      0.064500
     69 H161       -5.6530    2.4010    2.7170 hc        1 OCP      0.080500
     70 H162       -4.9820    2.0480    1.2990 hc        1 OCP      0.080500
     71 H171       -6.0150   -0.1860    1.6670 hc        1 OCP      0.079500
     72 H172       -6.9860    0.6060    2.6450 hc        1 OCP      0.079500
     73 H181       -7.8000    1.8990    0.9370 hc        1 OCP      0.079000
     74 H182       -6.6090    1.4500   -0.0420 hc        1 OCP      0.079000
     75 H191       -8.8570   -0.0630    0.7070 hc        1 OCP      0.076500
     76 H192       -7.5420   -0.8040    0.1900 hc        1 OCP      0.076500
     77 H201       -7.6940    0.6840   -1.7440 hc        1 OCP      0.067333
     78 H202       -9.1980    0.9350   -1.2750 hc        1 OCP      0.067333
     79 H203       -8.7230   -0.5370   -1.6990 hc        1 OCP      0.067333
     80 HN2         2.8110   -4.2440    0.5780 hn        1 OCP      0.220000
     81 H231        1.8260   -5.4850   -1.6310 h1        1 OCP      0.102000
     82 H232        3.3910   -5.7670   -1.5080 h1        1 OCP      0.102000
     83 H241        1.9140   -6.2400    0.8300 hc        1 OCP      0.089500
     84 H242        3.1290   -7.0970    0.2590 hc        1 OCP      0.089500
     85 H251        1.7170   -8.1140   -1.3180 hc        1 OCP      0.080000
     86 H252        0.5000   -7.1920   -0.8500 hc        1 OCP      0.080000
     87 H261        1.7070   -9.2750    0.7160 hc        1 OCP      0.079000
     88 H262        0.6640   -8.2360    1.3460 hc        1 OCP      0.079000
     89 H271        0.1060  -10.3350   -0.4530 hc        1 OCP      0.080000
     90 H272       -0.8000   -9.0410   -0.5620 hc        1 OCP      0.080000
     91 H281       -1.5170   -9.2740    1.6540 hc        1 OCP      0.078000
     92 H282       -0.4860  -10.4840    1.8890 hc        1 OCP      0.078000
     93 H291       -1.7550  -11.9340    0.6350 hc        1 OCP      0.078500
     94 H292       -2.5240  -10.7580   -0.1070 hc        1 OCP      0.078500
     95 H301       -3.7470  -12.0120    1.7000 hc        1 OCP      0.069667
     96 H302       -2.9140  -11.0530    2.6800 hc        1 OCP      0.069667
     97 H303       -3.9330  -10.4170    1.6250 hc        1 OCP      0.069667
@<TRIPOS>BOND
     1    1    3 1   
     2    1    4 1   
     3    1   12 1   
     4    2    9 1   
     5    5   10 1   
     6    5   30 1   
     7    6   30 1   
     8    7   11 1   
     9    7   20 1   
    10    8   20 1   
    11    9   10 1   
    12    9   40 1   
    13    9   41 1   
    14   10   11 1   
    15   10   42 1   
    16   11   43 1   
    17   11   44 1   
    18   12   13 1   
    19   12   45 1   
    20   12   46 1   
    21   13   14 1   
    22   13   47 1   
    23   13   48 1   
    24   14   15 1   
    25   14   49 1   
    26   14   50 1   
    27   15   16 1   
    28   15   51 1   
    29   15   52 1   
    30   16   17 1   
    31   16   53 1   
    32   16   54 1   
    33   17   18 1   
    34   17   55 1   
    35   17   56 1   
    36   18   19 1   
    37   18   57 1   
    38   18   58 1   
    39   19   59 1   
    40   19   60 1   
    41   19   61 1   
    42   20   21 1   
    43   21   22 1   
    44   21   62 1   
    45   22   23 1   
    46   22   63 1   
    47   22   64 1   
    48   23   24 1   
    49   23   65 1   
    50   23   66 1   
    51   24   25 1   
    52   24   67 1   
    53   24   68 1   
    54   25   26 1   
    55   25   69 1   
    56   25   70 1   
    57   26   27 1   
    58   26   71 1   
    59   26   72 1   
    60   27   28 1   
    61   27   73 1   
    62   27   74 1   
    63   28   29 1   
    64   28   75 1   
    65   28   76 1   
    66   29   77 1   
    67   29   78 1   
    68   29   79 1   
    69   30   31 1   
    70   31   32 1   
    71   31   80 1   
    72   32   33 1   
    73   32   81 1   
    74   32   82 1   
    75   33   34 1   
    76   33   83 1   
    77   33   84 1   
    78   34   35 1   
    79   34   85 1   
    80   34   86 1   
    81   35   36 1   
    82   35   87 1   
    83   35   88 1   
    84   36   37 1   
    85   36   89 1   
    86   36   90 1   
    87   37   38 1   
    88   37   91 1   
    89   37   92 1   
    90   38   39 1   
    91   38   93 1   
    92   38   94 1   
    93   39   95 1   
    94   39   96 1   
    95   39   97 1   
@<TRIPOS>SUBSTRUCTURE
     1 OCP         1 TEMP              0 ****  ****    0 ROOT
