@<TRIPOS>MOLECULE
OCQ
   27    26     1     0     0
SMALL
bcc


@<TRIPOS>ATOM
      1 OAD        -1.6480    0.7030    2.5190 o         1 OCQ     -0.368000
      2 CD2        -0.4780    0.3770    2.4890 c1        1 OCQ      0.305000
      3 NAH         0.4570    0.3640    3.6490 n3        1 OCQ     -0.391000
      4 CAE         1.5140   -0.4860    3.3050 c3        1 OCQ     -0.025000
      5 CD1         1.5940   -0.5080    1.7890 c3        1 OCQ     -0.172000
      6 CG          0.3520    0.2060    1.2650 c2        1 OCQ     -0.129000
      7 CB         -0.3710   -0.5500    0.1130 c3        1 OCQ     -0.185000
      8 CA         -0.5800    0.3890   -1.0530 c3        1 OCQ     -0.067000
      9 N          -1.7200    1.2040   -0.8070 n3        1 OCQ     -0.330000
     10 C          -0.7980   -0.4140   -2.3140 c2        1 OCQ      0.200000
     11 O          -1.5310   -1.3830   -2.2980 o         1 OCQ     -0.285000
     12 CMK        -0.1430    0.0180   -3.6090 c3        1 OCQ     -0.066000
     13 OMP        -0.5470   -0.8440   -4.6500 oh        1 OCQ     -0.318000
     14 HMP        -0.2850   -0.5080   -5.4310 ho        1 OCQ      0.220000
     15 HMK1       -0.4120    0.9350   -3.8210 h1        1 OCQ      0.112000
     16 HMK2        0.8310   -0.0220   -3.5110 h1        1 OCQ      0.112000
     17 HA          0.2090    0.9560   -1.1600 h1        1 OCQ      0.103000
     18 HN1        -1.5180    2.0760   -1.0000 hn        1 OCQ      0.167000
     19 HN2        -2.4130    0.9260   -1.3370 hn        1 OCQ      0.167000
     20 HB1         0.1760   -1.3090   -0.1730 hc        1 OCQ      0.103500
     21 HB2        -1.2380   -0.8740    0.4300 hc        1 OCQ      0.103500
     22 HG          0.5670    1.0590    0.8420 ha        1 OCQ      0.123000
     23 HAH         0.2840    0.6930    4.4820 hn        1 OCQ      0.251000
     24 HAE1        1.3400   -1.3890    3.6440 h1        1 OCQ      0.085000
     25 HAE2        2.3530   -0.1450    3.6790 h1        1 OCQ      0.085000
     26 HD11        1.6070   -1.4330    1.4690 hc        1 OCQ      0.099500
     27 HD12        2.3990   -0.0400    1.4910 hc        1 OCQ      0.099500
@<TRIPOS>BOND
     1    1    2 1   
     2    2    3 1   
     3    3    4 1   
     4    3   23 1   
     5    4    5 1   
     6    4   24 1   
     7    4   25 1   
     8    5    6 1   
     9    5   26 1   
    10    5   27 1   
    11    6    7 1   
    12    6   22 1   
    13    7    8 1   
    14    7   20 1   
    15    7   21 1   
    16    8    9 1   
    17    8   10 1   
    18    8   17 1   
    19    9   18 1   
    20    9   19 1   
    21   10   11 1   
    22   10   12 1   
    23   12   13 1   
    24   12   15 1   
    25   12   16 1   
    26   13   14 1   
@<TRIPOS>SUBSTRUCTURE
     1 OCQ         1 TEMP              0 ****  ****    0 ROOT
