@<TRIPOS>MOLECULE
OCQ
   28    28     1     0     0
SMALL
bcc


@<TRIPOS>ATOM
      1 OAD         1.0890    1.4080   -1.4610 o         1 OCQ     -0.711500
      2 CD2         1.9280    0.7740   -0.7810 c         1 OCQ      0.697500
      3 NAH         2.1110    0.9010    0.5660 ns        1 OCQ     -0.529900
      4 CAE         3.1550    0.0320    1.0730 c3        1 OCQ      0.079000
      5 CD1         3.6410   -0.8170   -0.1240 c3        1 OCQ     -0.093400
      6 CG          2.9050   -0.2670   -1.3580 c3        1 OCQ     -0.164700
      7 CB          2.2000   -1.3570   -2.1390 c3        1 OCQ     -0.086400
      8 CA          1.9770   -1.0130   -3.6170 c3        1 OCQ      0.008500
      9 N           0.9750    0.0830   -3.8040 nz        1 OCQ     -0.834600
     10 C           1.5660   -2.2810   -4.3790 c         1 OCQ      0.513100
     11 O           0.4460   -2.3810   -4.8790 o         1 OCQ     -0.485100
     12 CMK         2.6260   -3.3530   -4.4950 c3        1 OCQ      0.056400
     13 OMP         2.6310   -3.8980   -5.7890 oh        1 OCQ     -0.553800
     14 HMP         1.8040   -4.3870   -5.9170 ho        1 OCQ      0.433000
     15 HMK1        2.4250   -4.1360   -3.7120 h1        1 OCQ      0.088200
     16 HMK2        3.6570   -2.9270   -4.3560 h1        1 OCQ      0.088200
     17 HA          2.9500   -0.6440   -4.0680 hx        1 OCQ      0.126700
     18 HN1         0.7690    0.2010   -4.8000 hn        1 OCQ      0.475467
     19 HN2         1.3320    0.9660   -3.3940 hn        1 OCQ      0.475467
     20 HB1         1.2250   -1.6170   -1.6470 hc        1 OCQ      0.093200
     21 HB2         2.8410   -2.2840   -2.1210 hc        1 OCQ      0.093200
     22 HG          3.6320    0.2790   -2.0190 hc        1 OCQ      0.089700
     23 HAH         1.6290    1.5490    1.1390 hn        1 OCQ      0.362500
     24 HAE1        3.9970    0.6450    1.4980 h1        1 OCQ      0.075200
     25 HAE2        2.7440   -0.6220    1.8910 h1        1 OCQ      0.075200
     26 HD11        4.7470   -0.7200   -0.2460 hc        1 OCQ      0.077200
     27 HD12        3.4020   -1.8950    0.0500 hc        1 OCQ      0.077200
     28 HN3         0.1050   -0.1540   -3.3120 hn        1 OCQ      0.475467
@<TRIPOS>BOND
     1    1    2 2   
     2    2    3 1   
     3    2    6 1   
     4    3    4 1   
     5    3   23 1   
     6    4    5 1   
     7    4   24 1   
     8    4   25 1   
     9    5    6 1   
    10    5   26 1   
    11    5   27 1   
    12    6    7 1   
    13    6   22 1   
    14    7    8 1   
    15    7   20 1   
    16    7   21 1   
    17    8    9 1   
    18    8   10 1   
    19    8   17 1   
    20    9   18 1   
    21    9   19 1   
    22    9   28 1   
    23   10   11 2   
    24   10   12 1   
    25   12   13 1   
    26   12   15 1   
    27   12   16 1   
    28   13   14 1   
@<TRIPOS>SUBSTRUCTURE
     1 OCQ         1 TEMP              0 ****  ****    0 ROOT
