@<TRIPOS>MOLECULE
OCQ
   28    28     1     0     0
SMALL
bcc


@<TRIPOS>ATOM
      1 OAD         1.3150    1.5480   -1.6030 o         1 OCQ     -0.711500
      2 CD2         2.0660    0.8660   -0.8710 c         1 OCQ      0.697500
      3 NAH         2.2240    1.0360    0.4750 n         1 OCQ     -0.529900
      4 CAE         3.1620    0.0920    1.0520 c3        1 OCQ      0.079000
      5 CD1         3.5940   -0.8530   -0.0920 c3        1 OCQ     -0.093400
      6 CG          2.9510   -0.2910   -1.3720 c3        1 OCQ     -0.164700
      7 CB          2.1630   -1.3410   -2.1270 c3        1 OCQ     -0.086400
      8 CA          2.0160   -1.0440   -3.6250 c3        1 OCQ      0.008500
      9 N           1.1340    0.1350   -3.8910 n4        1 OCQ     -0.834600
     10 C           1.5020   -2.3000   -4.3450 c         1 OCQ      0.513100
     11 O           0.3920   -2.3110   -4.8750 o         1 OCQ     -0.485100
     12 CMK         2.4510   -3.4750   -4.3810 c3        1 OCQ      0.056400
     13 OMP         2.4380   -4.0770   -5.6490 oh        1 OCQ     -0.553800
     14 HMP         1.5700   -4.4870   -5.7820 ho        1 OCQ      0.433000
     15 HMK1        2.1520   -4.1970   -3.5720 h1        1 OCQ      0.088200
     16 HMK2        3.5160   -3.1470   -4.2270 h1        1 OCQ      0.088200
     17 HA          3.0340   -0.7940   -4.0610 hx        1 OCQ      0.126700
     18 HN1         0.2320    0.0070   -3.4170 hn        1 OCQ      0.475467
     19 HN2         1.5660    0.9960   -3.5080 hn        1 OCQ      0.475467
     20 HB1         1.1530   -1.4810   -1.6560 hc        1 OCQ      0.093200
     21 HB2         2.7080   -2.3240   -2.0490 hc        1 OCQ      0.093200
     22 HG          3.7460    0.1500   -2.0320 hc        1 OCQ      0.089700
     23 HAH         1.7930    1.7540    1.0040 hn        1 OCQ      0.362500
     24 HAE1        4.0480    0.6390    1.4770 h1        1 OCQ      0.075200
     25 HAE2        2.6650   -0.4800    1.8830 h1        1 OCQ      0.075200
     26 HD11        4.7070   -0.8710   -0.1830 hc        1 OCQ      0.077200
     27 HD12        3.2450   -1.8930    0.1190 hc        1 OCQ      0.077200
     28 HN3         0.9690    0.2280   -4.8970 hn        1 OCQ      0.475467
@<TRIPOS>BOND
     1    1    2 2   
     2    2    3 1   
     3    2    6 1   
     4    3    4 1   
     5    3   23 1   
     6    4    5 1   
     7    4   24 1   
     8    4   25 1   
     9    5    6 1   
    10    5   26 1   
    11    5   27 1   
    12    6    7 1   
    13    6   22 1   
    14    7    8 1   
    15    7   20 1   
    16    7   21 1   
    17    8    9 1   
    18    8   10 1   
    19    8   17 1   
    20    9   18 1   
    21    9   19 1   
    22    9   28 1   
    23   10   11 2   
    24   10   12 1   
    25   12   13 1   
    26   12   15 1   
    27   12   16 1   
    28   13   14 1   
@<TRIPOS>SUBSTRUCTURE
     1 OCQ         1 TEMP              0 ****  ****    0 ROOT
