@<TRIPOS>MOLECULE
OCQ
   27    27     1     0     0
SMALL
bcc


@<TRIPOS>ATOM
      1 OAD         2.7740   -1.4410   -1.3870 o         1 OCQ     -0.625500
      2 CD2         2.6200   -0.5230   -0.5670 c         1 OCQ      0.697500
      3 NAH         3.4970    0.5330   -0.3970 n         1 OCQ     -0.586900
      4 CAE         3.0710    1.4580    0.6250 c3        1 OCQ      0.093000
      5 CD1         1.7290    0.9220    1.1770 c3        1 OCQ     -0.094400
      6 CG          1.4520   -0.3840    0.4210 c3        1 OCQ     -0.140700
      7 CB          0.1340   -0.3880   -0.3220 c3        1 OCQ     -0.107400
      8 CA         -1.0560   -0.5730    0.6390 c3        1 OCQ      0.075500
      9 N          -1.2760   -1.9180    1.1300 n3        1 OCQ     -0.898800
     10 C          -2.2910   -0.0160   -0.0640 c         1 OCQ      0.535100
     11 O          -2.9940   -0.6830   -0.8260 o         1 OCQ     -0.520100
     12 CMK        -2.6050    1.4270    0.2420 c3        1 OCQ      0.034400
     13 OMP        -3.4380    2.0240   -0.7250 oh        1 OCQ     -0.587800
     14 HMP        -4.1120    1.3740   -0.9750 ho        1 OCQ      0.422000
     15 HMK1       -3.0930    1.4780    1.2550 h1        1 OCQ      0.070200
     16 HMK2       -1.6660    2.0460    0.2470 h1        1 OCQ      0.070200
     17 HA         -0.8620    0.0670    1.5550 h1        1 OCQ      0.070700
     18 HN1        -1.7760   -2.4660    0.4550 hn        1 OCQ      0.362800
     19 HN2        -0.4010   -2.3620    1.3300 hn        1 OCQ      0.362800
     20 HB1         0.0120    0.5800   -0.8750 hc        1 OCQ      0.071200
     21 HB2         0.1440   -1.2110   -1.0860 hc        1 OCQ      0.071200
     22 HG          1.5040   -1.2580    1.1240 hc        1 OCQ      0.082700
     23 HAH         4.3230    0.6620   -0.9200 hn        1 OCQ      0.336500
     24 HAE1        3.8410    1.5180    1.4420 h1        1 OCQ      0.044200
     25 HAE2        2.9410    2.4870    0.1920 h1        1 OCQ      0.044200
     26 HD11        1.8080    0.7380    2.2750 hc        1 OCQ      0.057700
     27 HD12        0.9160    1.6690    1.0070 hc        1 OCQ      0.057700
@<TRIPOS>BOND
     1    1    2 2   
     2    2    3 1   
     3    2    6 1   
     4    3    4 1   
     5    3   23 1   
     6    4    5 1   
     7    4   24 1   
     8    4   25 1   
     9    5    6 1   
    10    5   26 1   
    11    5   27 1   
    12    6    7 1   
    13    6   22 1   
    14    7    8 1   
    15    7   20 1   
    16    7   21 1   
    17    8    9 1   
    18    8   10 1   
    19    8   17 1   
    20    9   18 1   
    21    9   19 1   
    22   10   11 2   
    23   10   12 1   
    24   12   13 1   
    25   12   15 1   
    26   12   16 1   
    27   13   14 1   
@<TRIPOS>SUBSTRUCTURE
     1 OCQ         1 TEMP              0 ****  ****    0 ROOT
