@<TRIPOS>MOLECULE
OCQ
   28    28     1     0     0
SMALL
bcc


@<TRIPOS>ATOM
      1 OAD         1.1380    1.4320   -1.4710 o         1 OCQ     -0.711500
      2 CD2         1.8890    0.7350   -0.7520 c         1 OCQ      0.697500
      3 NAH         1.9670    0.8050    0.6100 n         1 OCQ     -0.529900
      4 CAE         2.9250   -0.1300    1.1650 c3        1 OCQ      0.079000
      5 CD1         3.4700   -0.9570   -0.0220 c3        1 OCQ     -0.093400
      6 CG          2.8630   -0.3300   -1.2890 c3        1 OCQ     -0.164700
      7 CB          2.1780   -1.3560   -2.1660 c3        1 OCQ     -0.086400
      8 CA          2.0920   -0.9500   -3.6430 c3        1 OCQ      0.008500
      9 N           1.1580    0.1980   -3.8660 n4        1 OCQ     -0.834600
     10 C           1.6890   -2.1690   -4.4850 c         1 OCQ      0.513100
     11 O           0.6110   -2.1980   -5.0770 o         1 OCQ     -0.485100
     12 CMK         2.7070   -3.2840   -4.5580 c3        1 OCQ      0.056400
     13 OMP         2.7950   -3.7820   -5.8680 oh        1 OCQ     -0.553800
     14 HMP         1.9610   -4.2260   -6.0810 ho        1 OCQ      0.433000
     15 HMK1        2.4080   -4.0850   -3.8260 h1        1 OCQ      0.088200
     16 HMK2        3.7410   -2.9130   -4.3190 h1        1 OCQ      0.088200
     17 HA          3.1140   -0.6110   -4.0000 hx        1 OCQ      0.126700
     18 HN1         0.2400   -0.0150   -3.4560 hn        1 OCQ      0.475467
     19 HN2         1.0400    0.3620   -4.8700 hn        1 OCQ      0.475467
     20 HB1         2.7730   -2.3120   -2.1340 hc        1 OCQ      0.093200
     21 HB2         1.1540   -1.5870   -1.7650 hc        1 OCQ      0.093200
     22 HG          3.6650    0.2040   -1.8670 hc        1 OCQ      0.089700
     23 HAH         1.4680    1.4550    1.1670 hn        1 OCQ      0.362500
     24 HAE1        2.4200   -0.7920    1.9200 h1        1 OCQ      0.075200
     25 HAE2        3.7560    0.4270    1.6790 h1        1 OCQ      0.075200
     26 HD11        3.1700   -2.0280    0.0890 hc        1 OCQ      0.077200
     27 HD12        4.5860   -0.9090   -0.0510 hc        1 OCQ      0.077200
     28 HN3         1.5180    1.0480   -3.3950 hn        1 OCQ      0.475467
@<TRIPOS>BOND
     1    1    2 2   
     2    2    3 1   
     3    2    6 1   
     4    3    4 1   
     5    3   23 1   
     6    4    5 1   
     7    4   24 1   
     8    4   25 1   
     9    5    6 1   
    10    5   26 1   
    11    5   27 1   
    12    6    7 1   
    13    6   22 1   
    14    7    8 1   
    15    7   20 1   
    16    7   21 1   
    17    8    9 1   
    18    8   10 1   
    19    8   17 1   
    20    9   18 1   
    21    9   19 1   
    22    9   28 1   
    23   10   11 2   
    24   10   12 1   
    25   12   13 1   
    26   12   15 1   
    27   12   16 1   
    28   13   14 1   
@<TRIPOS>SUBSTRUCTURE
     1 OCQ         1 TEMP              0 ****  ****    0 ROOT
