@<TRIPOS>MOLECULE
OCR
   52    47     1     0     0
SMALL
bcc


@<TRIPOS>ATOM
      1 C1         -8.1360    4.3080   -5.7780 c3        1 OCR     -0.210000
      2 C2         -6.8360    3.5350   -5.7310 c3        1 OCR     -0.159000
      3 C3         -6.5600    3.0980   -4.3090 c3        1 OCR     -0.157000
      4 C4         -5.2010    2.4370   -4.2400 c3        1 OCR     -0.154000
      5 C5         -4.9120    2.0260   -2.8130 c3        1 OCR     -0.207000
      6 C6         -3.4850    1.5360   -2.7090 c2        1 OCR      0.263000
      7 O7         -2.5790    2.1990   -3.1730 o         1 OCR     -0.307000
      8 C8         -3.1860    0.2170   -2.0300 c2        1 OCR     -0.266000
      9 C9         -2.1440    0.1170   -1.1820 c1        1 OCR     -0.020000
     10 C11        -1.2730    1.3230   -0.9070 c1        1 OCR     -0.147000
     11 C12        -0.0880    1.1700   -0.2850 c1        1 OCR     -0.147000
     12 C13         0.3720   -0.2070    0.1400 c2        1 OCR     -0.107000
     13 C14         1.8140   -0.1400    0.5930 c2        1 OCR     -0.207500
     14 C15         2.3370   -1.1420    1.3260 c1        1 OCR     -0.123500
     15 C16         3.7790   -1.0750    1.7790 c2        1 OCR     -0.107000
     16 C17         4.0440   -2.1750    2.7830 c2        1 OCR     -0.207500
     17 C18         5.2620   -2.2930    3.3480 c1        1 OCR     -0.123500
     18 C19         5.5270   -3.3940    4.3510 c2        1 OCR     -0.143000
     19 C20         6.8630   -3.1560    5.0190 c3        1 OCR     -0.141000
     20 C21         7.0660   -4.1750    6.1190 c3        1 OCR     -0.225000
     21 C22         8.4200   -3.9630    6.7600 c2        1 OCR      0.328000
     22 O23         8.5810   -3.0400    7.6000 o         1 OCR     -0.586000
     23 O24         9.3870   -4.7070    6.4480 o         1 OCR     -0.586000
     24 H1         -8.2890    4.6350   -6.6890 hc        1 OCR      0.070000
     25 H1A        -8.8750    3.7210   -5.5130 hc        1 OCR      0.070000
     26 H1B        -8.0860    5.0680   -5.1620 hc        1 OCR      0.070000
     27 H2         -6.1060    4.1050   -6.0450 hc        1 OCR      0.080000
     28 H2A        -6.9050    2.7460   -6.3070 hc        1 OCR      0.080000
     29 H3         -7.2470    2.4630   -4.0240 hc        1 OCR      0.076000
     30 H3A        -6.5730    3.8790   -3.7200 hc        1 OCR      0.076000
     31 H4         -5.1940    1.6450   -4.8150 hc        1 OCR      0.093500
     32 H4A        -4.5160    3.0660   -4.5440 hc        1 OCR      0.093500
     33 H5         -5.5230    1.3100   -2.5500 hc        1 OCR      0.101000
     34 H5A        -5.0360    2.7950   -2.2210 hc        1 OCR      0.101000
     35 H8         -3.7480   -0.5610   -2.2070 ha        1 OCR      0.126000
     36 H9         -1.9510   -0.7340   -0.7440 ha        1 OCR      0.120000
     37 H11        -1.5700    2.2120   -1.1810 ha        1 OCR      0.146000
     38 H12         0.4740    1.9490   -0.1070 ha        1 OCR      0.146000
     39 H13        -0.1870   -0.5250    0.8770 ha        1 OCR      0.092250
     40 H13A        0.2960   -0.8230   -0.6160 ha        1 OCR      0.092250
     41 H14         2.3650    0.6300    0.3550 ha        1 OCR      0.119000
     42 H15         1.7870   -1.9120    1.5630 ha        1 OCR      0.118500
     43 H16         4.3690   -1.1890    1.0070 ha        1 OCR      0.092250
     44 H16A        3.9500   -0.2060    2.1950 ha        1 OCR      0.092250
     45 H17         3.3340   -2.8030    3.0180 ha        1 OCR      0.119000
     46 H18         5.9740   -1.6710    3.1060 ha        1 OCR      0.118500
     47 H19         5.5410   -4.2570    3.8920 ha        1 OCR      0.078000
     48 H19A        4.8200   -3.3950    5.0280 ha        1 OCR      0.078000
     49 H20         7.5780   -3.2440    4.3580 hc        1 OCR      0.086000
     50 H20A        6.8810   -2.2560    5.4020 hc        1 OCR      0.086000
     51 H21         6.3660   -4.0690    6.7940 hc        1 OCR      0.059000
     52 H21A        7.0210   -5.0760    5.7410 hc        1 OCR      0.059000
@<TRIPOS>BOND
     1    1    2 1   
     2    1   24 1   
     3    1   25 1   
     4    1   26 1   
     5    2    3 1   
     6    2   27 1   
     7    2   28 1   
     8    3    4 1   
     9    3   29 1   
    10    3   30 1   
    11    4    5 1   
    12    4   31 1   
    13    4   32 1   
    14    5    6 1   
    15    5   33 1   
    16    5   34 1   
    17    6    7 1   
    18    6    8 1   
    19    8    9 1   
    20    8   35 1   
    21    9   36 1   
    22   10   11 1   
    23   10   37 1   
    24   11   38 1   
    25   12   13 1   
    26   12   39 1   
    27   12   40 1   
    28   13   14 1   
    29   13   41 1   
    30   14   42 1   
    31   15   16 1   
    32   15   43 1   
    33   15   44 1   
    34   16   17 1   
    35   16   45 1   
    36   17   46 1   
    37   18   19 1   
    38   18   47 1   
    39   18   48 1   
    40   19   20 1   
    41   19   49 1   
    42   19   50 1   
    43   20   21 1   
    44   20   51 1   
    45   20   52 1   
    46   21   22 1   
    47   21   23 1   
@<TRIPOS>SUBSTRUCTURE
     1 OCR         1 TEMP              0 ****  ****    0 ROOT
