@<TRIPOS>MOLECULE
OCR
   52    51     1     0     0
SMALL
bcc


@<TRIPOS>ATOM
      1 C1         11.5840    1.7560    0.5880 c3        1 OCR     -0.092100
      2 C2         10.2380    1.8090   -0.0870 c3        1 OCR     -0.080400
      3 C3          9.2740    0.8100    0.5180 c3        1 OCR     -0.078400
      4 C4          7.9250    0.8690   -0.1650 c3        1 OCR     -0.075400
      5 C5          6.9620   -0.1280    0.4400 c3        1 OCR     -0.175400
      6 C6          5.6080   -0.0980   -0.2140 c         1 OCR      0.565300
      7 O7          5.3390    0.6650   -1.1530 o         1 OCR     -0.546100
      8 C8          4.6400   -1.0470    0.3510 ce        1 OCR     -0.285200
      9 C9          3.3650   -1.1160   -0.0710 cf        1 OCR     -0.028000
     10 C11         2.4030   -2.0460    0.4750 cf        1 OCR     -0.195000
     11 C12         1.1120   -2.1130    0.1160 c2        1 OCR     -0.095200
     12 C13         0.4510   -1.2350   -0.8810 c3        1 OCR     -0.028000
     13 C14        -0.8740   -1.7620   -1.2930 c2        1 OCR     -0.208200
     14 C15        -2.0090   -1.0630   -1.2010 c2        1 OCR     -0.131200
     15 C16        -3.3280   -1.5770   -1.6510 c3        1 OCR     -0.013000
     16 C17        -4.3720   -1.3930   -0.6110 c2        1 OCR     -0.225200
     17 C18        -5.5800   -0.8790   -0.8620 c2        1 OCR     -0.121200
     18 C19        -6.6430   -0.7340    0.1600 c3        1 OCR     -0.060200
     19 C20        -7.4420    0.5420   -0.0280 c3        1 OCR     -0.063400
     20 C21        -8.5320    0.6750    1.0060 c3        1 OCR     -0.196400
     21 C22        -9.4890    1.8320    0.6650 c         1 OCR      0.908600
     22 O23        -9.8580    2.5860    1.6110 o         1 OCR     -0.851300
     23 O24        -9.8760    1.9620   -0.5330 o         1 OCR     -0.851300
     24 H1         11.4890    1.9900    1.6760 hc        1 OCR      0.031033
     25 H1A        12.0370    0.7400    0.4860 hc        1 OCR      0.031033
     26 H1B        12.2780    2.4990    0.1270 hc        1 OCR      0.031033
     27 H2          9.8100    2.8420    0.0040 hc        1 OCR      0.041200
     28 H2A        10.3560    1.5960   -1.1830 hc        1 OCR      0.041200
     29 H3          9.6990   -0.2240    0.4270 hc        1 OCR      0.036200
     30 H3A         9.1520    1.0220    1.6130 hc        1 OCR      0.036200
     31 H4          7.4940    1.9010   -0.0770 hc        1 OCR      0.054700
     32 H4A         8.0390    0.6580   -1.2610 hc        1 OCR      0.054700
     33 H5          7.3760   -1.1680    0.3460 hc        1 OCR      0.062700
     34 H5A         6.8280    0.0820    1.5350 hc        1 OCR      0.062700
     35 H8          5.0200   -1.7030    1.1500 ha        1 OCR      0.130000
     36 H9          3.0130   -0.4370   -0.8710 ha        1 OCR      0.145000
     37 H11         2.7890   -2.7410    1.2430 ha        1 OCR      0.124000
     38 H12         0.4550   -2.8610    0.5940 ha        1 OCR      0.132000
     39 H13         0.3480   -0.2030   -0.4420 hc        1 OCR      0.061700
     40 H13A        1.1000   -1.1360   -1.7960 hc        1 OCR      0.061700
     41 H14        -0.8630   -2.7860   -1.7010 ha        1 OCR      0.119000
     42 H15        -2.0250   -0.0430   -0.7810 ha        1 OCR      0.129000
     43 H16        -3.6140   -1.0370   -2.5960 hc        1 OCR      0.046200
     44 H16A       -3.2580   -2.6710   -1.9060 hc        1 OCR      0.046200
     45 H17        -4.0900   -1.7240    0.4000 ha        1 OCR      0.117000
     46 H18        -5.8550   -0.5340   -1.8740 ha        1 OCR      0.121000
     47 H19        -7.3360   -1.6170    0.0790 hc        1 OCR      0.039200
     48 H19A       -6.2050   -0.7540    1.1940 hc        1 OCR      0.039200
     49 H20        -6.7560    1.4270    0.0340 hc        1 OCR      0.047200
     50 H20A       -7.9110    0.5580   -1.0490 hc        1 OCR      0.047200
     51 H21        -9.1380   -0.2650    1.0480 hc        1 OCR      0.019700
     52 H21A       -8.0910    0.8450    2.0200 hc        1 OCR      0.019700
@<TRIPOS>BOND
     1    1    2 1   
     2    1   24 1   
     3    1   25 1   
     4    1   26 1   
     5    2    3 1   
     6    2   27 1   
     7    2   28 1   
     8    3    4 1   
     9    3   29 1   
    10    3   30 1   
    11    4    5 1   
    12    4   31 1   
    13    4   32 1   
    14    5    6 1   
    15    5   33 1   
    16    5   34 1   
    17    6    7 2   
    18    6    8 1   
    19    8    9 2   
    20    8   35 1   
    21    9   10 1   
    22    9   36 1   
    23   10   11 2   
    24   10   37 1   
    25   11   12 1   
    26   11   38 1   
    27   12   13 1   
    28   12   39 1   
    29   12   40 1   
    30   13   14 2   
    31   13   41 1   
    32   14   15 1   
    33   14   42 1   
    34   15   16 1   
    35   15   43 1   
    36   15   44 1   
    37   16   17 2   
    38   16   45 1   
    39   17   18 1   
    40   17   46 1   
    41   18   19 1   
    42   18   47 1   
    43   18   48 1   
    44   19   20 1   
    45   19   49 1   
    46   19   50 1   
    47   20   21 1   
    48   20   51 1   
    49   20   52 1   
    50   21   22 1   
    51   21   23 1   
@<TRIPOS>SUBSTRUCTURE
     1 OCR         1 TEMP              0 ****  ****    0 ROOT
