@<TRIPOS>MOLECULE
OCR
   52    51     1     0     0
SMALL
bcc


@<TRIPOS>ATOM
      1 C1          1.7010   -1.8960   -0.6590 c3        1 OCR     -0.092100
      2 C2          2.8580   -1.7040    0.2870 c3        1 OCR     -0.081400
      3 C3          2.7140   -0.4260    1.0870 c3        1 OCR     -0.078400
      4 C4          3.8800   -0.2390    2.0340 c3        1 OCR     -0.073400
      5 C5          3.7270    1.0370    2.8360 c3        1 OCR     -0.180400
      6 C6          4.9010    1.2470    3.7610 c         1 OCR      0.571300
      7 O7          4.7550    1.1630    4.9880 o         1 OCR     -0.547100
      8 C8          6.1650    1.5680    3.0920 ce        1 OCR     -0.282200
      9 C9          7.3830    1.6610    3.6550 cf        1 OCR     -0.022000
     10 C11         7.7020    1.4550    5.0480 cf        1 OCR     -0.193000
     11 C12         8.9320    1.5980    5.5680 c2        1 OCR     -0.104200
     12 C13        10.1400    1.9940    4.8050 c3        1 OCR     -0.027000
     13 C14        11.3640    2.0250    5.6450 c2        1 OCR     -0.206200
     14 C15        12.5430    1.5480    5.2360 c2        1 OCR     -0.134200
     15 C16        13.7850    1.6280    6.0480 c3        1 OCR     -0.012000
     16 C17        14.6500    0.4380    5.8520 c2        1 OCR     -0.224200
     17 C18        15.9400    0.5110    5.5130 c2        1 OCR     -0.122200
     18 C19        16.8200   -0.6690    5.3400 c3        1 OCR     -0.060200
     19 C20        17.7210   -0.5260    4.1270 c3        1 OCR     -0.062400
     20 C21        18.6270   -1.7220    3.9610 c3        1 OCR     -0.196400
     21 C22        19.6880   -1.4700    2.8730 c         1 OCR      0.908600
     22 O23        19.9210   -2.4050    2.0550 o         1 OCR     -0.851300
     23 O24        20.2860   -0.3550    2.8610 o         1 OCR     -0.851300
     24 H1          1.8280   -2.8430   -1.2390 hc        1 OCR      0.032033
     25 H1A         0.7380   -1.9520   -0.0980 hc        1 OCR      0.032033
     26 H1B         1.6370   -1.0470   -1.3820 hc        1 OCR      0.032033
     27 H2          2.9220   -2.5780    0.9870 hc        1 OCR      0.041200
     28 H2A         3.8190   -1.6750   -0.2930 hc        1 OCR      0.041200
     29 H3          1.7560   -0.4550    1.6700 hc        1 OCR      0.039200
     30 H3A         2.6500    0.4490    0.3890 hc        1 OCR      0.039200
     31 H4          3.9420   -1.1150    2.7330 hc        1 OCR      0.048200
     32 H4A         4.8380   -0.2080    1.4520 hc        1 OCR      0.048200
     33 H5          2.7830    0.9920    3.4420 hc        1 OCR      0.061700
     34 H5A         3.6490    1.9170    2.1450 hc        1 OCR      0.061700
     35 H8          6.0690    1.7410    2.0050 ha        1 OCR      0.129000
     36 H9          8.2420    1.9110    3.0000 ha        1 OCR      0.122000
     37 H11         6.8600    1.1620    5.7030 ha        1 OCR      0.159000
     38 H12         9.0860    1.4150    6.6460 ha        1 OCR      0.130000
     39 H13        10.2810    1.2930    3.9350 hc        1 OCR      0.057700
     40 H13A        9.9800    3.0220    4.3700 hc        1 OCR      0.057700
     41 H14        11.2460    2.4890    6.6370 ha        1 OCR      0.119000
     42 H15        12.6600    1.0740    4.2470 ha        1 OCR      0.129000
     43 H16        13.5320    1.7220    7.1410 hc        1 OCR      0.046200
     44 H16A       14.3360    2.5670    5.7580 hc        1 OCR      0.046200
     45 H17        14.1540   -0.5330    6.0110 ha        1 OCR      0.118000
     46 H18        16.4300    1.4850    5.3400 ha        1 OCR      0.119000
     47 H19        17.4560   -0.7760    6.2610 hc        1 OCR      0.038700
     48 H19A       16.2120   -1.6080    5.2490 hc        1 OCR      0.038700
     49 H20        18.3570    0.3950    4.2240 hc        1 OCR      0.046700
     50 H20A       17.0940   -0.4010    3.2070 hc        1 OCR      0.046700
     51 H21        18.0310   -2.6300    3.6960 hc        1 OCR      0.020200
     52 H21A       19.1660   -1.9310    4.9200 hc        1 OCR      0.020200
@<TRIPOS>BOND
     1    1    2 1   
     2    1   24 1   
     3    1   25 1   
     4    1   26 1   
     5    2    3 1   
     6    2   27 1   
     7    2   28 1   
     8    3    4 1   
     9    3   29 1   
    10    3   30 1   
    11    4    5 1   
    12    4   31 1   
    13    4   32 1   
    14    5    6 1   
    15    5   33 1   
    16    5   34 1   
    17    6    7 2   
    18    6    8 1   
    19    8    9 2   
    20    8   35 1   
    21    9   10 1   
    22    9   36 1   
    23   10   11 2   
    24   10   37 1   
    25   11   12 1   
    26   11   38 1   
    27   12   13 1   
    28   12   39 1   
    29   12   40 1   
    30   13   14 2   
    31   13   41 1   
    32   14   15 1   
    33   14   42 1   
    34   15   16 1   
    35   15   43 1   
    36   15   44 1   
    37   16   17 2   
    38   16   45 1   
    39   17   18 1   
    40   17   46 1   
    41   18   19 1   
    42   18   47 1   
    43   18   48 1   
    44   19   20 1   
    45   19   49 1   
    46   19   50 1   
    47   20   21 1   
    48   20   51 1   
    49   20   52 1   
    50   21   22 1   
    51   21   23 1   
@<TRIPOS>SUBSTRUCTURE
     1 OCR         1 TEMP              0 ****  ****    0 ROOT
