@<TRIPOS>MOLECULE
OCR
   52    51     1     0     0
SMALL
bcc


@<TRIPOS>ATOM
      1 C1          1.6830   -1.8780   -0.6740 c3        1 OCR     -0.092100
      2 C2          2.8410   -1.6920    0.2730 c3        1 OCR     -0.081400
      3 C3          2.7050   -0.4120    1.0700 c3        1 OCR     -0.078400
      4 C4          3.8720   -0.2320    2.0180 c3        1 OCR     -0.073400
      5 C5          3.7280    1.0460    2.8170 c3        1 OCR     -0.180400
      6 C6          4.9030    1.2490    3.7430 c         1 OCR      0.571300
      7 O7          4.7550    1.1670    4.9700 o         1 OCR     -0.547100
      8 C8          6.1700    1.5610    3.0750 ce        1 OCR     -0.282200
      9 C9          7.3870    1.6500    3.6390 cf        1 OCR     -0.022000
     10 C11         7.7030    1.4490    5.0340 cf        1 OCR     -0.193000
     11 C12         8.9320    1.5920    5.5560 c2        1 OCR     -0.104200
     12 C13        10.1430    1.9820    4.7930 c3        1 OCR     -0.027000
     13 C14        11.3640    2.0180    5.6370 c2        1 OCR     -0.206200
     14 C15        12.5450    1.5400    5.2350 c2        1 OCR     -0.134200
     15 C16        13.7840    1.6260    6.0500 c3        1 OCR     -0.012000
     16 C17        14.6510    0.4360    5.8630 c2        1 OCR     -0.224200
     17 C18        15.9430    0.5100    5.5280 c2        1 OCR     -0.122200
     18 C19        16.8250   -0.6700    5.3650 c3        1 OCR     -0.060200
     19 C20        17.7310   -0.5320    4.1560 c3        1 OCR     -0.062400
     20 C21        18.6390   -1.7270    3.9990 c3        1 OCR     -0.196400
     21 C22        19.7040   -1.4800    2.9150 c         1 OCR      0.908600
     22 O23        19.9420   -2.4180    2.1020 o         1 OCR     -0.851300
     23 O24        20.3010   -0.3640    2.8990 o         1 OCR     -0.851300
     24 H1          1.8020   -2.8260   -1.2520 hc        1 OCR      0.032033
     25 H1A         0.7180   -1.9250   -0.1130 hc        1 OCR      0.032033
     26 H1B         1.6250   -1.0290   -1.3980 hc        1 OCR      0.032033
     27 H2          2.8970   -2.5660    0.9750 hc        1 OCR      0.041200
     28 H2A         3.8020   -1.6720   -0.3060 hc        1 OCR      0.041200
     29 H3          1.7470   -0.4320    1.6530 hc        1 OCR      0.039200
     30 H3A         2.6490    0.4620    0.3700 hc        1 OCR      0.039200
     31 H4          3.9270   -1.1070    2.7180 hc        1 OCR      0.048200
     32 H4A         4.8310   -0.2100    1.4370 hc        1 OCR      0.048200
     33 H5          2.7840    1.0100    3.4220 hc        1 OCR      0.061700
     34 H5A         3.6580    1.9260    2.1250 hc        1 OCR      0.061700
     35 H8          6.0760    1.7300    1.9870 ha        1 OCR      0.129000
     36 H9          8.2480    1.8940    2.9850 ha        1 OCR      0.122000
     37 H11         6.8590    1.1610    5.6880 ha        1 OCR      0.159000
     38 H12         9.0840    1.4120    6.6350 ha        1 OCR      0.130000
     39 H13        10.2860    1.2740    3.9290 hc        1 OCR      0.057700
     40 H13A        9.9850    3.0070    4.3500 hc        1 OCR      0.057700
     41 H14        11.2430    2.4900    6.6250 ha        1 OCR      0.119000
     42 H15        12.6650    1.0600    4.2490 ha        1 OCR      0.129000
     43 H16        13.5280    1.7260    7.1410 hc        1 OCR      0.046200
     44 H16A       14.3350    2.5640    5.7560 hc        1 OCR      0.046200
     45 H17        14.1560   -0.5340    6.0250 ha        1 OCR      0.118000
     46 H18        16.4320    1.4830    5.3520 ha        1 OCR      0.119000
     47 H19        17.4570   -0.7720    6.2900 hc        1 OCR      0.038700
     48 H19A       16.2190   -1.6110    5.2760 hc        1 OCR      0.038700
     49 H20        18.3650    0.3900    4.2500 hc        1 OCR      0.046700
     50 H20A       17.1070   -0.4130    3.2320 hc        1 OCR      0.046700
     51 H21        18.0460   -2.6380    3.7360 hc        1 OCR      0.020200
     52 H21A       19.1740   -1.9310    4.9620 hc        1 OCR      0.020200
@<TRIPOS>BOND
     1    1    2 1   
     2    1   24 1   
     3    1   25 1   
     4    1   26 1   
     5    2    3 1   
     6    2   27 1   
     7    2   28 1   
     8    3    4 1   
     9    3   29 1   
    10    3   30 1   
    11    4    5 1   
    12    4   31 1   
    13    4   32 1   
    14    5    6 1   
    15    5   33 1   
    16    5   34 1   
    17    6    7 2   
    18    6    8 1   
    19    8    9 2   
    20    8   35 1   
    21    9   10 1   
    22    9   36 1   
    23   10   11 2   
    24   10   37 1   
    25   11   12 1   
    26   11   38 1   
    27   12   13 1   
    28   12   39 1   
    29   12   40 1   
    30   13   14 2   
    31   13   41 1   
    32   14   15 1   
    33   14   42 1   
    34   15   16 1   
    35   15   43 1   
    36   15   44 1   
    37   16   17 2   
    38   16   45 1   
    39   17   18 1   
    40   17   46 1   
    41   18   19 1   
    42   18   47 1   
    43   18   48 1   
    44   19   20 1   
    45   19   49 1   
    46   19   50 1   
    47   20   21 1   
    48   20   51 1   
    49   20   52 1   
    50   21   22 1   
    51   21   23 1   
@<TRIPOS>SUBSTRUCTURE
     1 OCR         1 TEMP              0 ****  ****    0 ROOT
