@<TRIPOS>MOLECULE
OCS
   15    14     1     0     0
SMALL
bcc


@<TRIPOS>ATOM
      1 N           1.5960    0.7540    0.9030 n3        1 OCS     -0.920800
      2 CA          0.1780    0.4590    1.0160 c3        1 OCS      0.095500
      3 CB         -0.3780   -0.5030   -0.0400 c3        1 OCS     -0.327600
      4 SG         -0.2070   -0.0930   -1.7270 s6        1 OCS      1.407800
      5 C          -0.1780   -0.1200    2.4210 c         1 OCS      0.914600
      6 O           0.5810   -0.9940    2.9390 o         1 OCS     -0.873800
      7 OXT        -1.2230    0.3060    2.9950 o         1 OCS     -0.873800
      8 OD1        -0.9010    1.1260   -1.9720 o         1 OCS     -0.769533
      9 OD2        -0.8040   -1.1910   -2.4280 o         1 OCS     -0.769533
     10 OD3         1.1940    0.0050   -2.0020 o         1 OCS     -0.769533
     11 H           2.1120    0.0450    1.3940 hn        1 OCS      0.341800
     12 HN2         1.8780    0.7310   -0.0620 hn        1 OCS      0.341800
     13 HA         -0.3660    1.4420    0.9010 h1        1 OCS      0.046700
     14 HB2         0.0870   -1.5060    0.1390 h1        1 OCS      0.077200
     15 HB3        -1.4660   -0.6230    0.1930 h1        1 OCS      0.077200
@<TRIPOS>BOND
     1    1    2 1   
     2    1   11 1   
     3    1   12 1   
     4    2    3 1   
     5    2    5 1   
     6    2   13 1   
     7    3    4 1   
     8    3   14 1   
     9    3   15 1   
    10    4    8 1   
    11    4    9 1   
    12    4   10 1   
    13    5    6 1   
    14    5    7 1   
@<TRIPOS>SUBSTRUCTURE
     1 OCS         1 TEMP              0 ****  ****    0 ROOT
