@<TRIPOS>MOLECULE
OCT
   26    25     1     0     0
SMALL
bcc


@<TRIPOS>ATOM
      1 C1         -0.2690   -0.0000    4.3840 c3        1 OCT     -0.092100
      2 C2          0.5340    0.0000    3.1090 c3        1 OCT     -0.080400
      3 C3         -0.3620   -0.0000    1.8880 c3        1 OCT     -0.079400
      4 C4          0.4480   -0.0000    0.6100 c3        1 OCT     -0.079400
      5 C5         -0.4480   -0.0000   -0.6100 c3        1 OCT     -0.079400
      6 C6          0.3620    0.0000   -1.8880 c3        1 OCT     -0.079400
      7 C7         -0.5340   -0.0000   -3.1090 c3        1 OCT     -0.080400
      8 C8          0.2690    0.0000   -4.3840 c3        1 OCT     -0.092100
      9 H11        -0.9210   -0.9050    4.4390 hc        1 OCT      0.032700
     10 H12         0.4110    0.0000    5.2700 hc        1 OCT      0.032700
     11 H13        -0.9210    0.9050    4.4390 hc        1 OCT      0.032700
     12 H21         1.2000    0.9020    3.0830 hc        1 OCT      0.038700
     13 H22         1.2000   -0.9020    3.0830 hc        1 OCT      0.038700
     14 H31        -1.0280   -0.9020    1.9110 hc        1 OCT      0.039700
     15 H32        -1.0280    0.9020    1.9110 hc        1 OCT      0.039700
     16 H41         1.1150    0.9020    0.5870 hc        1 OCT      0.039700
     17 H42         1.1150   -0.9020    0.5870 hc        1 OCT      0.039700
     18 H51        -1.1150   -0.9020   -0.5870 hc        1 OCT      0.039700
     19 H52        -1.1150    0.9020   -0.5870 hc        1 OCT      0.039700
     20 H61         1.0280    0.9020   -1.9110 hc        1 OCT      0.039700
     21 H62         1.0280   -0.9020   -1.9110 hc        1 OCT      0.039700
     22 H71        -1.2000   -0.9020   -3.0830 hc        1 OCT      0.038700
     23 H72        -1.2000    0.9020   -3.0830 hc        1 OCT      0.038700
     24 H81        -0.4110    0.0000   -5.2700 hc        1 OCT      0.032700
     25 H82         0.9210    0.9050   -4.4390 hc        1 OCT      0.032700
     26 H83         0.9210   -0.9050   -4.4390 hc        1 OCT      0.032700
@<TRIPOS>BOND
     1    1    2 1   
     2    1    9 1   
     3    1   10 1   
     4    1   11 1   
     5    2    3 1   
     6    2   12 1   
     7    2   13 1   
     8    3    4 1   
     9    3   14 1   
    10    3   15 1   
    11    4    5 1   
    12    4   16 1   
    13    4   17 1   
    14    5    6 1   
    15    5   18 1   
    16    5   19 1   
    17    6    7 1   
    18    6   20 1   
    19    6   21 1   
    20    7    8 1   
    21    7   22 1   
    22    7   23 1   
    23    8   24 1   
    24    8   25 1   
    25    8   26 1   
@<TRIPOS>SUBSTRUCTURE
     1 OCT         1 TEMP              0 ****  ****    0 ROOT
