@<TRIPOS>MOLECULE
OCV
   46    45     1     0     0
SMALL
bcc


@<TRIPOS>ATOM
      1 C1          0.1190    0.8280   -6.8330 c         1 OCV      0.886600
      2 C2          0.6630    0.5510   -5.3920 c3        1 OCV      0.021500
      3 C3         -0.5270    0.3020   -4.4650 c3        1 OCV     -0.065400
      4 C4         -0.1130   -0.2750   -3.1270 c3        1 OCV     -0.074400
      5 C7         -1.3330   -0.5840   -2.2820 c3        1 OCV     -0.151400
      6 C10        -0.9850   -1.2730   -0.9770 c         1 OCV      0.661100
      7 N11        -0.2270   -0.5700   -0.0580 n         1 OCV     -0.565900
      8 C12        -0.0370   -1.0170    1.3010 c3        1 OCV      0.050700
      9 C13        -0.3160    0.1150    2.3020 c         1 OCV      0.608100
     10 N14         1.5820    1.5660   -4.8930 n3        1 OCV     -0.890800
     11 O15        -1.3480   -2.4460   -0.7410 o         1 OCV     -0.636100
     12 C16         1.3780   -1.5330    1.5850 c3        1 OCV      0.007700
     13 S17         1.7780   -3.0950    0.8490 sh        1 OCV     -0.435900
     14 O18        -0.5130    1.3030    2.0220 o         1 OCV     -0.577000
     15 O19        -0.7050    0.0040   -7.3190 o         1 OCV     -0.848300
     16 O20         0.5490    1.8470   -7.4470 o         1 OCV     -0.848300
     17 C30        -0.5650    0.6160    4.6430 c3        1 OCV      0.015100
     18 C31        -1.3470   -0.1540    5.7610 c         1 OCV      0.924600
     19 C32         0.7560    1.1560    5.1960 c3        1 OCV     -0.074700
     20 C33         1.7990    0.0650    5.3070 c3        1 OCV     -0.090100
     21 C37         1.2730    2.3220    4.3820 c3        1 OCV     -0.090100
     22 O42        -0.8780   -1.2280    6.2140 o         1 OCV     -0.821300
     23 O43        -2.4010    0.4100    6.1620 o         1 OCV     -0.821300
     24 O29        -0.3280   -0.3290    3.5760 os        1 OCV     -0.383900
     25 HC2         1.2590   -0.4070   -5.4620 h1        1 OCV      0.042700
     26 HC31       -1.2130   -0.4120   -4.9970 hc        1 OCV      0.047200
     27 HC32       -1.0950    1.2550   -4.3040 hc        1 OCV      0.047200
     28 HC41        0.5530    0.4490   -2.5900 hc        1 OCV      0.046200
     29 HC42        0.4780   -1.2140   -3.2910 hc        1 OCV      0.046200
     30 HC71       -2.0200   -1.2690   -2.8480 hc        1 OCV      0.067200
     31 HC72       -1.8950    0.3610   -2.0620 hc        1 OCV      0.067200
     32 HN11       -0.0250    0.3880   -0.2390 hn        1 OCV      0.328500
     33 HC21       -0.7730   -1.8520    1.5220 h1        1 OCV      0.120700
     34 H141        2.1630    1.8490   -5.6670 hn        1 OCV      0.329800
     35 H142        1.0510    2.3780   -4.6300 hn        1 OCV      0.329800
     36 H161        2.1410   -0.7850    1.2600 h1        1 OCV      0.088700
     37 H162        1.4770   -1.6840    2.6930 h1        1 OCV      0.088700
     38 HS17        0.8420   -3.1710   -0.0940 hs        1 OCV      0.249800
     39 HC03       -1.1990    1.4600    4.2610 h1        1 OCV      0.066700
     40 HC23        0.5190    1.5240    6.2360 hc        1 OCV      0.056700
     41 H331        2.6800    0.4230    5.8920 hc        1 OCV      0.029200
     42 H332        1.3430   -0.8250    5.8140 hc        1 OCV      0.029200
     43 H333        2.1490   -0.2460    4.2930 hc        1 OCV      0.029200
     44 H371        1.4130    2.0200    3.3160 hc        1 OCV      0.029200
     45 H372        0.5450    3.1680    4.4090 hc        1 OCV      0.029200
     46 H373        2.2520    2.6780    4.7860 hc        1 OCV      0.029200
@<TRIPOS>BOND
     1    1    2 1   
     2    1   15 1   
     3    1   16 1   
     4    2    3 1   
     5    2   10 1   
     6    2   25 1   
     7    3    4 1   
     8    3   26 1   
     9    3   27 1   
    10    4    5 1   
    11    4   28 1   
    12    4   29 1   
    13    5    6 1   
    14    5   30 1   
    15    5   31 1   
    16    6    7 1   
    17    6   11 2   
    18    7    8 1   
    19    7   32 1   
    20    8    9 1   
    21    8   12 1   
    22    8   33 1   
    23    9   14 2   
    24    9   24 1   
    25   10   34 1   
    26   10   35 1   
    27   12   13 1   
    28   12   36 1   
    29   12   37 1   
    30   13   38 1   
    31   17   18 1   
    32   17   19 1   
    33   17   24 1   
    34   17   39 1   
    35   18   22 1   
    36   18   23 1   
    37   19   20 1   
    38   19   21 1   
    39   19   40 1   
    40   20   41 1   
    41   20   42 1   
    42   20   43 1   
    43   21   44 1   
    44   21   45 1   
    45   21   46 1   
@<TRIPOS>SUBSTRUCTURE
     1 OCV         1 TEMP              0 ****  ****    0 ROOT
