@<TRIPOS>MOLECULE
OCV
   48    48     1     0     0
SMALL
bcc


@<TRIPOS>ATOM
      1 C1          2.9380   -1.6620    0.1920 c         1 OCV      0.935600
      2 C2          3.5690   -1.4500    1.6570 c3        1 OCV     -0.069500
      3 C3          3.4650    0.0110    2.0480 c3        1 OCV     -0.096400
      4 C4          3.5310    0.2150    3.5470 c3        1 OCV     -0.111400
      5 C7          3.5060    1.6940    3.8930 c3        1 OCV     -0.145400
      6 C10         4.8740    2.2990    3.7330 c         1 OCV      0.556100
      7 N11         5.7990    2.1250    4.9020 n4        1 OCV     -0.687800
      8 C12         7.1330    1.5310    4.5460 c3        1 OCV      0.090500
      9 C13         7.0540   -0.0300    4.8380 c3        1 OCV      0.686100
     10 N14         4.9610   -1.9750    1.6860 n4        1 OCV     -0.814600
     11 O15         5.2980    2.9120    2.7630 o         1 OCV     -0.437100
     12 C16         8.2620    2.1270    5.3730 c3        1 OCV     -0.011300
     13 S17         8.1110    3.8950    5.4820 sh        1 OCV     -0.393900
     14 O18         6.1210   -0.4120    5.6260 o         1 OCV     -0.760500
     15 O19         1.8450   -1.0970    0.0050 o         1 OCV     -0.764300
     16 O20         3.6130   -2.3920   -0.5750 o         1 OCV     -0.764300
     17 C30         8.6890   -1.7060    4.5550 c3        1 OCV      0.085100
     18 C31         7.7160   -1.7330    3.3920 c         1 OCV      0.719600
     19 C32        10.1530   -1.7390    4.1270 c3        1 OCV     -0.061700
     20 C33        10.5140   -0.5730    3.2340 c3        1 OCV     -0.090100
     21 C37        11.0450   -1.7780    5.3500 c3        1 OCV     -0.090100
     22 O42         7.5550   -2.4860    2.4320 o         1 OCV     -0.645500
     23 O43         6.8510   -0.6890    3.5110 os        1 OCV     -0.555900
     24 O29         8.3670   -0.4780    5.2170 os        1 OCV     -0.476600
     25 HC2         2.9500   -2.0830    2.3520 hx        1 OCV      0.086700
     26 HC31        2.4700    0.3700    1.6540 hc        1 OCV      0.083200
     27 HC32        4.2570    0.6240    1.5400 hc        1 OCV      0.083200
     28 HC41        4.4500   -0.2710    3.9830 hc        1 OCV      0.083200
     29 HC42        2.6400   -0.2710    4.0280 hc        1 OCV      0.083200
     30 HC71        2.8110    2.2430    3.1980 hc        1 OCV      0.095200
     31 HC72        3.1320    1.8370    4.9420 hc        1 OCV      0.095200
     32 HN11        5.3620    1.4610    5.5840 hn        1 OCV      0.476800
     33 HC21        7.3160    1.7010    3.4470 hx        1 OCV      0.120700
     34 H141        5.6500   -1.2220    1.6180 hn        1 OCV      0.451800
     35 H142        5.1630   -2.4950    2.5380 hn        1 OCV      0.451800
     36 H161        8.2820    1.6630    6.3900 h1        1 OCV      0.113200
     37 H162        9.2250    1.8570    4.8680 h1        1 OCV      0.113200
     38 HS17        8.4880    4.0670    6.7410 hs        1 OCV      0.232800
     39 HC03        8.4630   -2.5530    5.2610 h1        1 OCV      0.093700
     40 HC23       10.2880   -2.6940    3.5420 hc        1 OCV      0.068700
     41 H331       10.3920    0.3910    3.7830 hc        1 OCV      0.040367
     42 H332        9.8550   -0.5570    2.3320 hc        1 OCV      0.040367
     43 H333       11.5760   -0.6610    2.8990 hc        1 OCV      0.040367
     44 H371       10.8340   -2.6900    5.9580 hc        1 OCV      0.040367
     45 H372       12.1180   -1.7950    5.0410 hc        1 OCV      0.040367
     46 H373       10.8670   -0.8780    5.9860 hc        1 OCV      0.040367
     47 H112        5.9640    3.0460    5.3470 hn        1 OCV      0.476800
     48 H143        5.0710   -2.5960    0.8580 hn        1 OCV      0.451800
@<TRIPOS>BOND
     1    1    2 1   
     2    1   15 1   
     3    1   16 1   
     4    2    3 1   
     5    2   10 1   
     6    2   25 1   
     7    3    4 1   
     8    3   26 1   
     9    3   27 1   
    10    4    5 1   
    11    4   28 1   
    12    4   29 1   
    13    5    6 1   
    14    5   30 1   
    15    5   31 1   
    16    6    7 1   
    17    6   11 2   
    18    7    8 1   
    19    7   32 1   
    20    7   47 1   
    21    8    9 1   
    22    8   12 1   
    23    8   33 1   
    24    9   14 1   
    25    9   23 1   
    26    9   24 1   
    27   10   34 1   
    28   10   35 1   
    29   10   48 1   
    30   12   13 1   
    31   12   36 1   
    32   12   37 1   
    33   13   38 1   
    34   17   18 1   
    35   17   19 1   
    36   17   24 1   
    37   17   39 1   
    38   18   22 2   
    39   18   23 1   
    40   19   20 1   
    41   19   21 1   
    42   19   40 1   
    43   20   41 1   
    44   20   42 1   
    45   20   43 1   
    46   21   44 1   
    47   21   45 1   
    48   21   46 1   
@<TRIPOS>SUBSTRUCTURE
     1 OCV         1 TEMP              0 ****  ****    0 ROOT
