@<TRIPOS>MOLECULE
OCV
   46    44     1     0     0
SMALL
bcc


@<TRIPOS>ATOM
      1 C1         -6.0470    0.7630   -3.0350 c1        1 OCV      0.773000
      2 C2         -4.8610    1.5520   -3.5430 c2        1 OCV      0.133200
      3 C3         -4.0570    2.0640   -2.3700 c3        1 OCV     -0.140700
      4 C4         -2.7070    1.3810   -2.3470 c3        1 OCV     -0.074400
      5 C7         -1.8830    1.9310   -1.2040 c3        1 OCV     -0.151400
      6 C10        -0.5660    1.1890   -1.1290 c         1 OCV      0.662100
      7 N11         0.2400    1.2900    0.0340 n         1 OCV     -0.566900
      8 C12         1.5150    0.6670    0.0710 c3        1 OCV      0.051700
      9 C13         1.6670   -0.0920    1.3710 c         1 OCV      0.611100
     10 N14        -5.3210    2.6520   -4.3190 nh        1 OCV     -0.477100
     11 O15        -0.1910    0.5210   -2.0720 o         1 OCV     -0.637100
     12 C16         2.5950    1.7210   -0.0280 c3        1 OCV      0.006700
     13 S17         3.3990    1.5970   -1.6030 sh        1 OCV     -0.435900
     14 O18         1.1880    0.3540    2.3940 o         1 OCV     -0.574000
     15 O19        -6.2130   -0.4300   -3.4020 o         1 OCV     -0.816500
     16 O20        -6.8760    1.3040   -2.2580 o         1 OCV     -0.816500
     17 C30         2.5200   -1.8530    2.6840 c3        1 OCV      0.017100
     18 C31         1.1900   -2.3930    3.1610 c         1 OCV      0.924600
     19 C32         3.5340   -2.9740    2.6420 c3        1 OCV     -0.083700
     20 C33         4.8920   -2.4400    3.0420 c3        1 OCV     -0.085100
     21 C37         3.1180   -4.0660    3.6020 c3        1 OCV     -0.085100
     22 O42         0.4290   -2.9930    2.3570 o         1 OCV     -0.821300
     23 O43         0.8440   -2.2420    4.3620 o         1 OCV     -0.821300
     24 O29         2.3690   -1.3090    1.3960 os        1 OCV     -0.388900
     25 HC2        -4.2990    0.9750   -4.0960 h4        1 OCV     -0.047200
     26 HC31       -3.9330    3.0300   -2.4570 hc        1 OCV      0.047700
     27 HC32       -4.5340    1.8700   -1.5380 hc        1 OCV      0.047700
     28 HC41       -2.2440    1.5470   -3.1930 hc        1 OCV      0.046200
     29 HC42       -2.8310    0.4180   -2.2270 hc        1 OCV      0.046200
     30 HC71       -2.3710    1.8150   -0.3650 hc        1 OCV      0.067200
     31 HC72       -1.7130    2.8830   -1.3540 hc        1 OCV      0.067200
     32 HN11       -0.0560    1.7660    0.7540 hn        1 OCV      0.329500
     33 HC21        1.5960    0.0460   -0.6800 h1        1 OCV      0.120700
     34 H141       -4.9060    2.6440   -5.1360 hn        1 OCV      0.174700
     35 H142       -6.2270    2.5850   -4.4360 hn        1 OCV      0.174700
     36 H161        2.1930    2.6080    0.0650 h1        1 OCV      0.086700
     37 H162        3.2500    1.5840    0.6850 h1        1 OCV      0.086700
     38 HS17        4.2450    2.4130   -1.6770 hs        1 OCV      0.251800
     39 HC03        2.8280   -1.1570    3.2970 h1        1 OCV      0.065700
     40 HC23        3.5810   -3.3370    1.7370 hc        1 OCV      0.076700
     41 H331        4.8510   -2.0970    3.9590 hc        1 OCV      0.025533
     42 H332        5.5540   -3.1620    2.9930 hc        1 OCV      0.025533
     43 H333        5.1510   -1.7170    2.4330 hc        1 OCV      0.025533
     44 H371        2.9640   -3.6800    4.4900 hc        1 OCV      0.025533
     45 H372        3.8280   -4.7400    3.6580 hc        1 OCV      0.025533
     46 H373        2.2930   -4.4870    3.2810 hc        1 OCV      0.025533
@<TRIPOS>BOND
     1    1   15 2   
     2    1   16 2   
     3    2    3 1   
     4    2   10 2   
     5    2   25 1   
     6    3    4 1   
     7    3   26 1   
     8    3   27 1   
     9    4    5 1   
    10    4   28 1   
    11    4   29 1   
    12    5    6 1   
    13    5   30 1   
    14    5   31 1   
    15    6    7 1   
    16    6   11 2   
    17    7    8 1   
    18    7   32 1   
    19    8    9 1   
    20    8   12 1   
    21    8   33 1   
    22    9   14 2   
    23    9   24 1   
    24   10   34 1   
    25   10   35 1   
    26   12   13 1   
    27   12   36 1   
    28   12   37 1   
    29   13   38 1   
    30   17   18 1   
    31   17   19 1   
    32   17   24 1   
    33   17   39 1   
    34   18   22 1   
    35   18   23 1   
    36   19   20 1   
    37   19   21 1   
    38   19   40 1   
    39   20   41 1   
    40   20   42 1   
    41   20   43 1   
    42   21   44 1   
    43   21   45 1   
    44   21   46 1   
@<TRIPOS>SUBSTRUCTURE
     1 OCV         1 TEMP              0 ****  ****    0 ROOT
