@<TRIPOS>MOLECULE
OCV
   48    48     1     0     0
SMALL
bcc


@<TRIPOS>ATOM
      1 C1          3.0170   -1.5400    0.0580 c         1 OCV      0.935600
      2 C2          3.6250   -1.3990    1.5420 c3        1 OCV     -0.069500
      3 C3          3.4830    0.0340    2.0140 c3        1 OCV     -0.096400
      4 C4          3.5270    0.1540    3.5230 c3        1 OCV     -0.111400
      5 C7          3.4630    1.6090    3.9530 c3        1 OCV     -0.145400
      6 C10         4.8200    2.2520    3.8450 c         1 OCV      0.556100
      7 N11         5.7350    2.0330    5.0140 n4        1 OCV     -0.687800
      8 C12         7.0850    1.4880    4.6420 c3        1 OCV      0.090500
      9 C13         7.0370   -0.0870    4.8460 c3        1 OCV      0.686100
     10 N14         5.0280   -1.8950    1.5590 n4        1 OCV     -0.814600
     11 O15         5.2410    2.9280    2.9160 o         1 OCV     -0.437100
     12 C16         8.1910    2.0620    5.5150 c3        1 OCV     -0.011300
     13 S17         8.0000    3.8170    5.7200 sh        1 OCV     -0.393900
     14 O18         6.1030   -0.5320    5.6000 o         1 OCV     -0.760500
     15 O19         1.9140   -0.9900   -0.1110 o         1 OCV     -0.764300
     16 O20         3.7190   -2.2080   -0.7410 o         1 OCV     -0.764300
     17 C30         8.7120   -1.7100    4.4930 c3        1 OCV      0.085100
     18 C31         7.7550   -1.6930    3.3170 c         1 OCV      0.719600
     19 C32        10.1820   -1.6890    4.0840 c3        1 OCV     -0.061700
     20 C33        10.5290   -0.4680    3.2610 c3        1 OCV     -0.090100
     21 C37        11.0590   -1.7780    5.3140 c3        1 OCV     -0.090100
     22 O42         7.6210   -2.3950    2.3140 o         1 OCV     -0.645500
     23 O43         6.8650   -0.6760    3.4820 os        1 OCV     -0.555900
     24 O29         8.3550   -0.5280    5.2180 os        1 OCV     -0.476600
     25 HC2         3.0120   -2.0850    2.1910 hx        1 OCV      0.086700
     26 HC31        4.2670    0.6920    1.5530 hc        1 OCV      0.083200
     27 HC32        2.4850    0.3940    1.6280 hc        1 OCV      0.083200
     28 HC41        4.4510   -0.3370    3.9420 hc        1 OCV      0.083200
     29 HC42        2.6420   -0.3790    3.9630 hc        1 OCV      0.083200
     30 HC71        3.0750    1.6840    5.0030 hc        1 OCV      0.095200
     31 HC72        2.7650    2.1820    3.2810 hc        1 OCV      0.095200
     32 HN11        5.8740    2.9310    5.5110 hn        1 OCV      0.476800
     33 HC21        7.2770    1.7240    3.5570 hx        1 OCV      0.120700
     34 H141        5.7000   -1.1240    1.5460 hn        1 OCV      0.451800
     35 H142        5.2310   -2.4610    2.3820 hn        1 OCV      0.451800
     36 H161        8.2100    1.5420    6.5060 h1        1 OCV      0.113200
     37 H162        9.1660    1.8410    5.0080 h1        1 OCV      0.113200
     38 HS17        8.3590    3.9260    6.9920 hs        1 OCV      0.232800
     39 HC03        8.4950   -2.5990    5.1480 h1        1 OCV      0.093700
     40 HC23       10.3440   -2.6070    3.4480 hc        1 OCV      0.068700
     41 H331        9.8800   -0.4160    2.3530 hc        1 OCV      0.040367
     42 H332       10.3790    0.4620    3.8610 hc        1 OCV      0.040367
     43 H333       11.5960   -0.5140    2.9360 hc        1 OCV      0.040367
     44 H371       10.8540   -0.9180    5.9970 hc        1 OCV      0.040367
     45 H372       10.8600   -2.7260    5.8680 hc        1 OCV      0.040367
     46 H373       12.1360   -1.7550    5.0200 hc        1 OCV      0.040367
     47 H112        5.3040    1.3230    5.6520 hn        1 OCV      0.476800
     48 H143        5.1630   -2.4640    0.6980 hn        1 OCV      0.451800
@<TRIPOS>BOND
     1    1    2 1   
     2    1   15 1   
     3    1   16 1   
     4    2    3 1   
     5    2   10 1   
     6    2   25 1   
     7    3    4 1   
     8    3   26 1   
     9    3   27 1   
    10    4    5 1   
    11    4   28 1   
    12    4   29 1   
    13    5    6 1   
    14    5   30 1   
    15    5   31 1   
    16    6    7 1   
    17    6   11 2   
    18    7    8 1   
    19    7   32 1   
    20    7   47 1   
    21    8    9 1   
    22    8   12 1   
    23    8   33 1   
    24    9   14 1   
    25    9   23 1   
    26    9   24 1   
    27   10   34 1   
    28   10   35 1   
    29   10   48 1   
    30   12   13 1   
    31   12   36 1   
    32   12   37 1   
    33   13   38 1   
    34   17   18 1   
    35   17   19 1   
    36   17   24 1   
    37   17   39 1   
    38   18   22 2   
    39   18   23 1   
    40   19   20 1   
    41   19   21 1   
    42   19   40 1   
    43   20   41 1   
    44   20   42 1   
    45   20   43 1   
    46   21   44 1   
    47   21   45 1   
    48   21   46 1   
@<TRIPOS>SUBSTRUCTURE
     1 OCV         1 TEMP              0 ****  ****    0 ROOT
