@<TRIPOS>MOLECULE
OCV
   48    48     1     0     0
SMALL
bcc


@<TRIPOS>ATOM
      1 C1          3.1050   -1.4330    0.0210 c         1 OCV      0.935600
      2 C2          3.6390   -1.3150    1.5350 c3        1 OCV     -0.069500
      3 C3          3.5680    0.1320    1.9830 c3        1 OCV     -0.095400
      4 C4          3.5600    0.2750    3.4900 c3        1 OCV     -0.111400
      5 C7          3.5210    1.7370    3.8970 c3        1 OCV     -0.144400
      6 C10         4.8870    2.3580    3.7850 c         1 OCV      0.559100
      7 N11         5.8030    2.1410    4.9520 ny        1 OCV     -0.688800
      8 C12         7.1140    1.5030    4.5860 c3        1 OCV      0.079500
      9 C13         7.0000   -0.0480    4.9040 c3        1 OCV      0.687100
     10 N14         5.0020   -1.9030    1.6340 nz        1 OCV     -0.814600
     11 O15         5.3200    3.0240    2.8530 o         1 OCV     -0.449100
     12 C16         8.2660    2.0990    5.3820 c3        1 OCV     -0.021300
     13 S17         8.1850    3.8530    5.5700 sh        1 OCV     -0.374900
     14 O18         6.0360   -0.4050    5.6650 o         1 OCV     -0.757500
     15 O19         2.0520   -0.8140   -0.2140 o         1 OCV     -0.764300
     16 O20         3.8060   -2.1540   -0.7330 o         1 OCV     -0.764300
     17 C30         8.5850   -1.7800    4.7140 c3        1 OCV      0.085100
     18 C31         7.6570   -1.8010    3.5150 c         1 OCV      0.719600
     19 C32        10.0620   -1.8880    4.3480 c3        1 OCV     -0.060700
     20 C33        10.5110   -0.7630    3.4430 c3        1 OCV     -0.090100
     21 C37        10.9020   -1.9360    5.6060 c3        1 OCV     -0.090100
     22 O42         7.5040   -2.5680    2.5640 o         1 OCV     -0.646500
     23 O43         6.8270   -0.7230    3.5770 os        1 OCV     -0.559900
     24 O29         8.2920   -0.5170    5.3240 os        1 OCV     -0.474600
     25 HC2         2.9460   -1.9480    2.1550 hx        1 OCV      0.086700
     26 HC31        2.6090    0.5450    1.5510 hc        1 OCV      0.082200
     27 HC32        4.4080    0.7330    1.5440 hc        1 OCV      0.082200
     28 HC41        4.4530   -0.2340    3.9520 hc        1 OCV      0.083700
     29 HC42        2.6430   -0.2240    3.9060 hc        1 OCV      0.083700
     30 HC71        3.1310    1.8330    4.9450 hc        1 OCV      0.096200
     31 HC72        2.8340    2.3110    3.2140 hc        1 OCV      0.096200
     32 HN11        6.0050    3.0540    5.4020 hn        1 OCV      0.479300
     33 HC21        7.2800    1.6450    3.4810 hx        1 OCV      0.110700
     34 H141        5.7240   -1.1780    1.6390 hn        1 OCV      0.451467
     35 H142        5.1260   -2.4610    2.4780 hn        1 OCV      0.451467
     36 H161        8.2640    1.6920    6.4290 h1        1 OCV      0.123700
     37 H162        9.2190    1.7590    4.9060 h1        1 OCV      0.123700
     38 HS17        8.5520    4.2440    4.3580 hs        1 OCV      0.223800
     39 HC03        8.2930   -2.5930    5.4350 h1        1 OCV      0.094700
     40 HC23       10.1770   -2.8630    3.7910 hc        1 OCV      0.069700
     41 H331       11.5780   -0.9090    3.1490 hc        1 OCV      0.040200
     42 H332        9.8860   -0.7360    2.5180 hc        1 OCV      0.040200
     43 H333       10.4180    0.2190    3.9670 hc        1 OCV      0.040200
     44 H371       11.9850   -2.0050    5.3430 hc        1 OCV      0.040200
     45 H372       10.6270   -2.8230    6.2260 hc        1 OCV      0.040200
     46 H373       10.7360   -1.0140    6.2150 hc        1 OCV      0.040200
     47 H112        5.3450    1.4890    5.6330 hn        1 OCV      0.479300
     48 H143        5.1410   -2.4990    0.7930 hn        1 OCV      0.451467
@<TRIPOS>BOND
     1    1    2 1   
     2    1   15 1   
     3    1   16 1   
     4    2    3 1   
     5    2   10 1   
     6    2   25 1   
     7    3    4 1   
     8    3   26 1   
     9    3   27 1   
    10    4    5 1   
    11    4   28 1   
    12    4   29 1   
    13    5    6 1   
    14    5   30 1   
    15    5   31 1   
    16    6    7 1   
    17    6   11 2   
    18    7    8 1   
    19    7   32 1   
    20    7   47 1   
    21    8    9 1   
    22    8   12 1   
    23    8   33 1   
    24    9   14 1   
    25    9   23 1   
    26    9   24 1   
    27   10   34 1   
    28   10   35 1   
    29   10   48 1   
    30   12   13 1   
    31   12   36 1   
    32   12   37 1   
    33   13   38 1   
    34   17   18 1   
    35   17   19 1   
    36   17   24 1   
    37   17   39 1   
    38   18   22 2   
    39   18   23 1   
    40   19   20 1   
    41   19   21 1   
    42   19   40 1   
    43   20   41 1   
    44   20   42 1   
    45   20   43 1   
    46   21   44 1   
    47   21   45 1   
    48   21   46 1   
@<TRIPOS>SUBSTRUCTURE
     1 OCV         1 TEMP              0 ****  ****    0 ROOT
