@<TRIPOS>MOLECULE
OCX
   52    51     1     0     0
SMALL
bcc


@<TRIPOS>ATOM
      1 C1          0.6110   -1.2970    0.8750 c3        1 OCX     -0.092100
      2 C2          1.9810   -1.6240    1.4100 c3        1 OCX     -0.080400
      3 C3          2.7750   -0.3700    1.7080 c3        1 OCX     -0.080400
      4 C4          4.1470   -0.7020    2.2520 c3        1 OCX     -0.075400
      5 C5          4.9680    0.5410    2.5300 c3        1 OCX     -0.047200
      6 C6          5.4490    1.2110    1.3000 c2        1 OCX     -0.186200
      7 C7          6.2550    2.2790    1.2990 c2        1 OCX     -0.159200
      8 C8          6.7720    2.9200    2.5330 c3        1 OCX     -0.023000
      9 C9          7.4260    4.2250    2.2660 c2        1 OCX     -0.142200
     10 C10         7.2130    5.3130    3.0170 ce        1 OCX     -0.163000
     11 C11         7.8120    6.6150    2.8040 ce        1 OCX     -0.078000
     12 C13         9.0790    6.9150    2.4970 cf        1 OCX     -0.240200
     13 C14        10.2080    5.9920    2.3060 c         1 OCX      0.579300
     14 O15        10.2090    5.0560    1.4950 o         1 OCX     -0.556100
     15 C16        11.4140    6.2770    3.1680 c3        1 OCX     -0.136200
     16 C17        11.8840    7.6740    3.0240 c2        1 OCX     -0.225200
     17 C18        12.0430    8.5100    4.0550 c2        1 OCX     -0.115200
     18 C19        12.5290    9.9040    3.9240 c3        1 OCX     -0.062200
     19 C20        11.6620   10.8720    4.7100 c3        1 OCX     -0.061400
     20 C21        12.1670   12.2890    4.6000 c3        1 OCX     -0.197400
     21 C22        11.1760   13.2810    5.2380 c         1 OCX      0.908600
     22 O23        11.6530   14.2060    5.9550 o         1 OCX     -0.850300
     23 O24         9.9420   13.1350    5.0010 o         1 OCX     -0.850300
     24 H1          0.6870   -0.7080   -0.0700 hc        1 OCX      0.031700
     25 H1A         0.0310   -0.6950    1.6160 hc        1 OCX      0.031700
     26 H1B         0.0430   -2.2350    0.6610 hc        1 OCX      0.031700
     27 H2          2.5370   -2.2500    0.6640 hc        1 OCX      0.036200
     28 H2A         1.8840   -2.2360    2.3460 hc        1 OCX      0.036200
     29 H3          2.8790    0.2410    0.7720 hc        1 OCX      0.042700
     30 H3A         2.2170    0.2600    2.4510 hc        1 OCX      0.042700
     31 H4          4.6920   -1.3590    1.5240 hc        1 OCX      0.038200
     32 H4A         4.0350   -1.2850    3.2050 hc        1 OCX      0.038200
     33 H5          5.8540    0.2590    3.1650 hc        1 OCX      0.047200
     34 H5A         4.3560    1.2660    3.1350 hc        1 OCX      0.047200
     35 H6          5.1050    0.7760    0.3470 ha        1 OCX      0.120000
     36 H7          6.5800    2.7320    0.3480 ha        1 OCX      0.129000
     37 H8          7.5320    2.2340    3.0060 hc        1 OCX      0.054200
     38 H8A         5.9360    3.0360    3.2780 hc        1 OCX      0.054200
     39 H9          8.1260    4.2450    1.4110 ha        1 OCX      0.156000
     40 H10         6.5000    5.2800    3.8610 ha        1 OCX      0.121000
     41 H11         7.1040    7.4540    2.9660 ha        1 OCX      0.131000
     42 H13         9.3830    7.9770    2.4120 ha        1 OCX      0.162000
     43 H16        12.2420    5.5720    2.8820 hc        1 OCX      0.064700
     44 H16A       11.1300    6.0550    4.2330 hc        1 OCX      0.064700
     45 H17        12.1140    7.9870    1.9930 ha        1 OCX      0.123000
     46 H18        11.8020    8.1950    5.0850 ha        1 OCX      0.117000
     47 H19        13.5840    9.9520    4.3110 hc        1 OCX      0.040200
     48 H19A       12.5590   10.2170    2.8470 hc        1 OCX      0.040200
     49 H20        11.6400   10.5650    5.7880 hc        1 OCX      0.046700
     50 H20A       10.6050   10.8370    4.3330 hc        1 OCX      0.046700
     51 H21        13.1640   12.3890    5.0970 hc        1 OCX      0.020700
     52 H21A       12.2880   12.5720    3.5240 hc        1 OCX      0.020700
@<TRIPOS>BOND
     1    1    2 1   
     2    1   24 1   
     3    1   25 1   
     4    1   26 1   
     5    2    3 1   
     6    2   27 1   
     7    2   28 1   
     8    3    4 1   
     9    3   29 1   
    10    3   30 1   
    11    4    5 1   
    12    4   31 1   
    13    4   32 1   
    14    5    6 1   
    15    5   33 1   
    16    5   34 1   
    17    6    7 2   
    18    6   35 1   
    19    7    8 1   
    20    7   36 1   
    21    8    9 1   
    22    8   37 1   
    23    8   38 1   
    24    9   10 2   
    25    9   39 1   
    26   10   11 1   
    27   10   40 1   
    28   11   12 2   
    29   11   41 1   
    30   12   13 1   
    31   12   42 1   
    32   13   14 2   
    33   13   15 1   
    34   15   16 1   
    35   15   43 1   
    36   15   44 1   
    37   16   17 2   
    38   16   45 1   
    39   17   18 1   
    40   17   46 1   
    41   18   19 1   
    42   18   47 1   
    43   18   48 1   
    44   19   20 1   
    45   19   49 1   
    46   19   50 1   
    47   20   21 1   
    48   20   51 1   
    49   20   52 1   
    50   21   22 1   
    51   21   23 1   
@<TRIPOS>SUBSTRUCTURE
     1 OCX         1 TEMP              0 ****  ****    0 ROOT
