@<TRIPOS>MOLECULE
OCX
   52    47     1     0     0
SMALL
bcc


@<TRIPOS>ATOM
      1 C1         -4.9580   -3.8760   -6.0400 c3        1 OCX     -0.210000
      2 C2         -5.6700   -3.1680   -4.9080 c3        1 OCX     -0.158000
      3 C3         -4.6660   -2.7810   -3.8450 c3        1 OCX     -0.159000
      4 C4         -5.3940   -2.2070   -2.6490 c3        1 OCX     -0.155000
      5 C5         -4.3860   -1.7350   -1.6240 c3        1 OCX     -0.131000
      6 C6         -5.0970   -1.4230   -0.3250 c2        1 OCX     -0.178000
      7 C7         -4.4220   -0.8530    0.6920 c1        1 OCX     -0.158000
      8 C8         -2.9530   -0.5260    0.5360 c2        1 OCX     -0.110000
      9 C9         -2.3480   -0.2600    1.8960 c2        1 OCX     -0.146000
     10 C10        -1.2930    0.5700    2.0140 c1        1 OCX     -0.152000
     11 C11        -0.6880    0.8360    3.3750 c1        1 OCX     -0.143000
     12 C13         0.4930    1.4770    3.4740 c1        1 OCX     -0.143000
     13 C14         1.2140    1.9310    2.2240 c1        1 OCX      0.267000
     14 O15         0.5860    2.4100    1.3010 o         1 OCX     -0.325000
     15 C16         2.7180    1.7970    2.1270 c3        1 OCX     -0.171000
     16 C17         3.3700    3.0770    2.6000 c2        1 OCX     -0.219000
     17 C18         4.6990    3.2470    2.4610 c1        1 OCX     -0.115000
     18 C19         5.5400    2.1580    1.8320 c2        1 OCX     -0.148000
     19 C20         6.9990    2.5530    1.8850 c3        1 OCX     -0.143000
     20 C21         7.8130    1.5920    1.0470 c3        1 OCX     -0.226000
     21 C22         9.2740    1.7090    1.4200 c2        1 OCX      0.329000
     22 O23         9.8010    0.8540    2.1800 o         1 OCX     -0.584500
     23 O24         9.9650    2.6590    0.9670 o         1 OCX     -0.584500
     24 H1         -5.5750   -3.9930   -6.7920 hc        1 OCX      0.071000
     25 H1A        -4.6480   -4.7540   -5.7330 hc        1 OCX      0.071000
     26 H1B        -4.1890   -3.3410   -6.3280 hc        1 OCX      0.071000
     27 H2         -6.3410   -3.7650   -4.5210 hc        1 OCX      0.077000
     28 H2A        -6.1080   -2.3640   -5.2520 hc        1 OCX      0.077000
     29 H3         -4.1600   -3.5720   -3.5700 hc        1 OCX      0.079500
     30 H3A        -4.0520   -2.1100   -4.2050 hc        1 OCX      0.079500
     31 H4         -5.9460   -1.4510   -2.9350 hc        1 OCX      0.079000
     32 H4A        -5.9640   -2.8960   -2.2530 hc        1 OCX      0.079000
     33 H5         -3.7230   -2.4380   -1.4720 hc        1 OCX      0.088000
     34 H5A        -3.9390   -0.9300   -1.9530 hc        1 OCX      0.088000
     35 H6         -6.0440   -1.6350   -0.2240 ha        1 OCX      0.119000
     36 H7         -4.8800   -0.6520    1.5300 ha        1 OCX      0.125000
     37 H8         -2.4930   -1.2800    0.1160 ha        1 OCX      0.098000
     38 H8A        -2.8540    0.2690   -0.0260 ha        1 OCX      0.098000
     39 H9         -2.7240   -0.6860    2.6900 ha        1 OCX      0.120000
     40 H10        -0.9230    1.0050    1.2220 ha        1 OCX      0.158000
     41 H11        -1.1530    0.5430    4.1820 ha        1 OCX      0.140000
     42 H13         0.8840    1.6480    4.3520 ha        1 OCX      0.140000
     43 H16         3.0160    1.0530    2.6870 hc        1 OCX      0.107000
     44 H16A        2.9710    1.6270    1.1970 hc        1 OCX      0.107000
     45 H17         2.8280    3.7800    3.0060 ha        1 OCX      0.115000
     46 H18         5.1200    4.0740    2.7670 ha        1 OCX      0.127000
     47 H19         5.2690    2.0350    0.9000 ha        1 OCX      0.080000
     48 H19A        5.4110    1.3220    2.3220 ha        1 OCX      0.080000
     49 H20         7.3120    2.5240    2.8110 hc        1 OCX      0.087000
     50 H20A        7.1040    3.4610    1.5340 hc        1 OCX      0.087000
     51 H21         7.5070    0.6770    1.2110 hc        1 OCX      0.059000
     52 H21A        7.7000    1.8080    0.1000 hc        1 OCX      0.059000
@<TRIPOS>BOND
     1    1    2 1   
     2    1   24 1   
     3    1   25 1   
     4    1   26 1   
     5    2    3 1   
     6    2   27 1   
     7    2   28 1   
     8    3    4 1   
     9    3   29 1   
    10    3   30 1   
    11    4    5 1   
    12    4   31 1   
    13    4   32 1   
    14    5    6 1   
    15    5   33 1   
    16    5   34 1   
    17    6    7 1   
    18    6   35 1   
    19    7   36 1   
    20    8    9 1   
    21    8   37 1   
    22    8   38 1   
    23    9   10 1   
    24    9   39 1   
    25   10   40 1   
    26   11   12 1   
    27   11   41 1   
    28   12   42 1   
    29   13   14 1   
    30   13   15 1   
    31   15   16 1   
    32   15   43 1   
    33   15   44 1   
    34   16   17 1   
    35   16   45 1   
    36   17   46 1   
    37   18   19 1   
    38   18   47 1   
    39   18   48 1   
    40   19   20 1   
    41   19   49 1   
    42   19   50 1   
    43   20   21 1   
    44   20   51 1   
    45   20   52 1   
    46   21   22 1   
    47   21   23 1   
@<TRIPOS>SUBSTRUCTURE
     1 OCX         1 TEMP              0 ****  ****    0 ROOT
