@<TRIPOS>MOLECULE
OCX
   52    51     1     0     0
SMALL
bcc


@<TRIPOS>ATOM
      1 C1          0.5790   -1.2870    0.9450 c3        1 OCX     -0.092100
      2 C2          1.9660   -1.6180    1.4320 c3        1 OCX     -0.080400
      3 C3          2.7620   -0.3660    1.7340 c3        1 OCX     -0.080400
      4 C4          4.1520   -0.7030    2.2300 c3        1 OCX     -0.075400
      5 C5          4.9740    0.5380    2.5120 c3        1 OCX     -0.047200
      6 C6          5.4160    1.2390    1.2830 c2        1 OCX     -0.186200
      7 C7          6.2160    2.3100    1.2830 c2        1 OCX     -0.158200
      8 C8          6.7680    2.9260    2.5150 c3        1 OCX     -0.023000
      9 C9          7.4100    4.2390    2.2590 c2        1 OCX     -0.142200
     10 C10         7.2160    5.3090    3.0400 ce        1 OCX     -0.163000
     11 C11         7.8050    6.6170    2.8390 ce        1 OCX     -0.078000
     12 C13         9.0610    6.9280    2.5020 cf        1 OCX     -0.240200
     13 C14        10.1870    6.0130    2.2560 c         1 OCX      0.579300
     14 O15        10.1660    5.0960    1.4250 o         1 OCX     -0.556100
     15 C16        11.4170    6.2830    3.0890 c3        1 OCX     -0.136200
     16 C17        11.8800    7.6850    2.9610 c2        1 OCX     -0.225200
     17 C18        12.0660    8.4990    4.0050 c2        1 OCX     -0.115200
     18 C19        12.5450    9.8960    3.8910 c3        1 OCX     -0.062200
     19 C20        11.6990   10.8440    4.7220 c3        1 OCX     -0.061400
     20 C21        12.1970   12.2650    4.6300 c3        1 OCX     -0.197400
     21 C22        11.2230   13.2400    5.3170 c         1 OCX      0.908600
     22 O23        11.7180   14.1500    6.0420 o         1 OCX     -0.850300
     23 O24         9.9830   13.0960    5.1120 o         1 OCX     -0.850300
     24 H1          0.6250   -0.6760    0.0110 hc        1 OCX      0.031700
     25 H1A         0.0190   -0.7050    1.7160 hc        1 OCX      0.031700
     26 H1B         0.0100   -2.2230    0.7270 hc        1 OCX      0.031700
     27 H2          2.5030   -2.2240    0.6550 hc        1 OCX      0.036200
     28 H2A         1.9000   -2.2510    2.3560 hc        1 OCX      0.036200
     29 H3          2.8360    0.2660    0.8090 hc        1 OCX      0.042700
     30 H3A         2.2240    0.2430    2.5070 hc        1 OCX      0.042700
     31 H4          4.6780   -1.3390    1.4710 hc        1 OCX      0.038200
     32 H4A         4.0710   -1.3070    3.1720 hc        1 OCX      0.038200
     33 H5          5.8800    0.2470    3.1140 hc        1 OCX      0.047200
     34 H5A         4.3770    1.2460    3.1500 hc        1 OCX      0.047200
     35 H6          5.0450    0.8240    0.3310 ha        1 OCX      0.120000
     36 H7          6.5110    2.7860    0.3340 ha        1 OCX      0.129000
     37 H8          7.5430    2.2310    2.9510 hc        1 OCX      0.054200
     38 H8A         5.9530    3.0220    3.2870 hc        1 OCX      0.054200
     39 H9          8.0840    4.2800    1.3840 ha        1 OCX      0.156000
     40 H10         6.5290    5.2540    3.9040 ha        1 OCX      0.121000
     41 H11         7.1000    7.4490    3.0400 ha        1 OCX      0.131000
     42 H13         9.3600    7.9930    2.4320 ha        1 OCX      0.162000
     43 H16        12.2380    5.5880    2.7640 hc        1 OCX      0.064700
     44 H16A       11.1650    6.0370    4.1570 hc        1 OCX      0.064700
     45 H17        12.0790    8.0210    1.9310 ha        1 OCX      0.123000
     46 H18        11.8570    8.1610    5.0350 ha        1 OCX      0.117000
     47 H19        13.6110    9.9400    4.2480 hc        1 OCX      0.040200
     48 H19A       12.5420   10.2330    2.8200 hc        1 OCX      0.040200
     49 H20        11.7090   10.5140    5.7940 hc        1 OCX      0.046700
     50 H20A       10.6320   10.8150    4.3760 hc        1 OCX      0.046700
     51 H21        13.2080   12.3570    5.0990 hc        1 OCX      0.020700
     52 H21A       12.2870   12.5720    3.5570 hc        1 OCX      0.020700
@<TRIPOS>BOND
     1    1    2 1   
     2    1   24 1   
     3    1   25 1   
     4    1   26 1   
     5    2    3 1   
     6    2   27 1   
     7    2   28 1   
     8    3    4 1   
     9    3   29 1   
    10    3   30 1   
    11    4    5 1   
    12    4   31 1   
    13    4   32 1   
    14    5    6 1   
    15    5   33 1   
    16    5   34 1   
    17    6    7 2   
    18    6   35 1   
    19    7    8 1   
    20    7   36 1   
    21    8    9 1   
    22    8   37 1   
    23    8   38 1   
    24    9   10 2   
    25    9   39 1   
    26   10   11 1   
    27   10   40 1   
    28   11   12 2   
    29   11   41 1   
    30   12   13 1   
    31   12   42 1   
    32   13   14 2   
    33   13   15 1   
    34   15   16 1   
    35   15   43 1   
    36   15   44 1   
    37   16   17 2   
    38   16   45 1   
    39   17   18 1   
    40   17   46 1   
    41   18   19 1   
    42   18   47 1   
    43   18   48 1   
    44   19   20 1   
    45   19   49 1   
    46   19   50 1   
    47   20   21 1   
    48   20   51 1   
    49   20   52 1   
    50   21   22 1   
    51   21   23 1   
@<TRIPOS>SUBSTRUCTURE
     1 OCX         1 TEMP              0 ****  ****    0 ROOT
