@<TRIPOS>MOLECULE
OCX
   52    51     1     0     0
SMALL
bcc


@<TRIPOS>ATOM
      1 C1         10.7520    2.3120    0.4350 c3        1 OCX     -0.092100
      2 C2          9.6700    1.3550    0.0040 c3        1 OCX     -0.080400
      3 C3          8.3170    2.0320   -0.0450 c3        1 OCX     -0.079400
      4 C4          7.2340    1.0680   -0.4780 c3        1 OCX     -0.076400
      5 C5          5.8810    1.7500   -0.5270 c3        1 OCX     -0.046200
      6 C6          4.8160    0.8180   -0.9670 c2        1 OCX     -0.178200
      7 C7          3.6200    0.7330   -0.3790 c2        1 OCX     -0.160200
      8 C8          2.5350   -0.1620   -0.8550 c3        1 OCX     -0.026000
      9 C9          1.8770   -0.8800    0.2650 c2        1 OCX     -0.141200
     10 C10         0.5590   -1.1260    0.3010 ce        1 OCX     -0.153000
     11 C11        -0.0730   -1.8490    1.3850 ce        1 OCX     -0.060000
     12 C13        -1.3880   -2.1240    1.4070 cf        1 OCX     -0.250200
     13 C14        -2.0270   -2.8520    2.5120 c         1 OCX      0.569300
     14 O15        -1.4130   -3.2230    3.5240 o         1 OCX     -0.565100
     15 C16        -3.4940   -3.1590    2.3360 c3        1 OCX     -0.135200
     16 C17        -4.2650   -1.9830    1.8690 c2        1 OCX     -0.221200
     17 C18        -4.8970   -1.9360    0.6920 c2        1 OCX     -0.121200
     18 C19        -5.6660   -0.7660    0.2070 c3        1 OCX     -0.062200
     19 C20        -5.2050   -0.3420   -1.1770 c3        1 OCX     -0.061400
     20 C21        -5.9920    0.8360   -1.6940 c3        1 OCX     -0.197400
     21 C22        -5.6420    1.1320   -3.1650 c         1 OCX      0.908600
     22 O23        -5.5110    2.3430   -3.5030 o         1 OCX     -0.850800
     23 O24        -5.5180    0.1580   -3.9630 o         1 OCX     -0.850800
     24 H1         10.8250    3.1710   -0.2740 hc        1 OCX      0.030700
     25 H1A        10.5360    2.7170    1.4540 hc        1 OCX      0.030700
     26 H1B        11.7400    1.7930    0.4640 hc        1 OCX      0.030700
     27 H2          9.9160    0.9400   -1.0100 hc        1 OCX      0.038200
     28 H2A         9.6280    0.4880    0.7140 hc        1 OCX      0.038200
     29 H3          8.0680    2.4470    0.9680 hc        1 OCX      0.039200
     30 H3A         8.3550    2.8990   -0.7560 hc        1 OCX      0.039200
     31 H4          7.4830    0.6520   -1.4900 hc        1 OCX      0.040700
     32 H4A         7.1920    0.2030    0.2350 hc        1 OCX      0.040700
     33 H5          5.6420    2.1790    0.4820 hc        1 OCX      0.045700
     34 H5A         5.9260    2.6120   -1.2490 hc        1 OCX      0.045700
     35 H6          5.0690    0.1940   -1.8410 ha        1 OCX      0.119000
     36 H7          3.3660    1.3510    0.4980 ha        1 OCX      0.125000
     37 H8          1.7830    0.4570   -1.4210 hc        1 OCX      0.062200
     38 H8A         2.9400   -0.9250   -1.5780 hc        1 OCX      0.062200
     39 H9          2.5460   -1.2190    1.0720 ha        1 OCX      0.122000
     40 H10        -0.1070   -0.7780   -0.5090 ha        1 OCX      0.143000
     41 H11         0.5760   -2.1760    2.2180 ha        1 OCX      0.133000
     42 H13        -2.0640   -1.8050    0.5950 ha        1 OCX      0.158000
     43 H16        -3.5700   -4.0070    1.6010 hc        1 OCX      0.064700
     44 H16A       -3.9130   -3.5200    3.3140 hc        1 OCX      0.064700
     45 H17        -4.2870   -1.1300    2.5660 ha        1 OCX      0.124000
     46 H18        -4.8640   -2.7890   -0.0080 ha        1 OCX      0.118000
     47 H19        -6.7550   -1.0430    0.1660 hc        1 OCX      0.040200
     48 H19A       -5.5720    0.0990    0.9160 hc        1 OCX      0.040200
     49 H20        -4.1170   -0.0780   -1.1420 hc        1 OCX      0.046200
     50 H20A       -5.3170   -1.1940   -1.9000 hc        1 OCX      0.046200
     51 H21        -7.0890    0.6190   -1.6420 hc        1 OCX      0.021200
     52 H21A       -5.7900    1.7450   -1.0750 hc        1 OCX      0.021200
@<TRIPOS>BOND
     1    1    2 1   
     2    1   24 1   
     3    1   25 1   
     4    1   26 1   
     5    2    3 1   
     6    2   27 1   
     7    2   28 1   
     8    3    4 1   
     9    3   29 1   
    10    3   30 1   
    11    4    5 1   
    12    4   31 1   
    13    4   32 1   
    14    5    6 1   
    15    5   33 1   
    16    5   34 1   
    17    6    7 2   
    18    6   35 1   
    19    7    8 1   
    20    7   36 1   
    21    8    9 1   
    22    8   37 1   
    23    8   38 1   
    24    9   10 2   
    25    9   39 1   
    26   10   11 1   
    27   10   40 1   
    28   11   12 2   
    29   11   41 1   
    30   12   13 1   
    31   12   42 1   
    32   13   14 2   
    33   13   15 1   
    34   15   16 1   
    35   15   43 1   
    36   15   44 1   
    37   16   17 2   
    38   16   45 1   
    39   17   18 1   
    40   17   46 1   
    41   18   19 1   
    42   18   47 1   
    43   18   48 1   
    44   19   20 1   
    45   19   49 1   
    46   19   50 1   
    47   20   21 1   
    48   20   51 1   
    49   20   52 1   
    50   21   22 1   
    51   21   23 1   
@<TRIPOS>SUBSTRUCTURE
     1 OCX         1 TEMP              0 ****  ****    0 ROOT
