@<TRIPOS>MOLECULE
OCY
   20    19     1     0     0
SMALL
bcc


@<TRIPOS>ATOM
      1 N           1.1750   -0.1890    2.0320 n3        1 OCY     -0.886800
      2 CA          0.4750   -0.1520    0.7520 c3        1 OCY      0.018500
      3 CB          0.3310   -1.5460    0.1420 c3        1 OCY      0.039700
      4 SG          0.8090   -1.6770   -1.5670 ss        1 OCY     -0.389200
      5 CD         -0.2860   -0.5810   -2.4200 c3        1 OCY     -0.050300
      6 CE          0.4010    0.7050   -2.8370 c3        1 OCY      0.159400
      7 OZ         -0.5130    1.7780   -2.9380 oh        1 OCY     -0.643800
      8 C          -0.9450    0.5000    0.8540 c         1 OCY      0.886600
      9 O          -1.5790    0.3700    1.9370 o         1 OCY     -0.844300
     10 OXT        -1.3790    1.1330   -0.1520 o         1 OCY     -0.844300
     11 H           0.5940   -0.6810    2.6900 hn        1 OCY      0.333300
     12 H2          1.2440    0.7570    2.3660 hn        1 OCY      0.333300
     13 HA          1.0930    0.4840    0.0540 h1        1 OCY      0.057700
     14 HB2         1.0010   -2.2910    0.6410 h1        1 OCY      0.064700
     15 HB3        -0.7260   -1.8890    0.2530 h1        1 OCY      0.064700
     16 HD2        -0.6640   -1.1300   -3.3140 h1        1 OCY      0.090700
     17 HD3        -1.1570   -0.3290   -1.7560 h1        1 OCY      0.090700
     18 HE2         1.2110    0.9650   -2.1020 h1        1 OCY      0.031200
     19 HE3         0.8500    0.6120   -3.8620 h1        1 OCY      0.031200
     20 HZ         -0.9390    1.8710   -2.0680 ho        1 OCY      0.454000
@<TRIPOS>BOND
     1    1    2 1   
     2    1   11 1   
     3    1   12 1   
     4    2    3 1   
     5    2    8 1   
     6    2   13 1   
     7    3    4 1   
     8    3   14 1   
     9    3   15 1   
    10    4    5 1   
    11    5    6 1   
    12    5   16 1   
    13    5   17 1   
    14    6    7 1   
    15    6   18 1   
    16    6   19 1   
    17    7   20 1   
    18    8    9 1   
    19    8   10 1   
@<TRIPOS>SUBSTRUCTURE
     1 OCY         1 TEMP              0 ****  ****    0 ROOT
