@<TRIPOS>MOLECULE
OCZ
   30    32     1     0     0
SMALL
bcc


@<TRIPOS>ATOM
      1 NAQ         4.6740   -0.8010   -0.7700 n         1 OCZ     -0.663000
      2 OAP         3.3720   -2.1780    0.4580 o         1 OCZ     -0.640100
      3 CAO         3.6190   -1.0120    0.0760 c         1 OCZ      0.663100
      4 NAG         0.6820   -1.2990    0.5370 na        1 OCZ     -0.160400
      5 CAJ         0.7790    2.3530   -0.0560 c3        1 OCZ     -0.006200
      6 CAD        -1.7560   -1.9920    0.3220 ca        1 OCZ     -0.133000
      7 CAC        -3.0250   -1.4930    0.0840 ca        1 OCZ     -0.109000
      8 CAE        -0.6780   -1.0900    0.3160 ca        1 OCZ     -0.041200
      9 CAF        -0.8920    0.3220    0.0630 ca        1 OCZ     -0.082800
     10 CAA        -2.1840    0.7940   -0.1710 ca        1 OCZ     -0.077000
     11 CAH         0.4070    0.9440    0.1250 cc        1 OCZ     -0.131400
     12 CAI         1.3350   -0.0710    0.4020 cd        1 OCZ     -0.063300
     13 CAB        -3.2320   -0.1170   -0.1590 ca        1 OCZ     -0.010600
     14 CAM         2.1930    2.6030    0.4450 c3        1 OCZ     -0.076400
     15 CAK         2.7920    0.1640    0.5920 c3        1 OCZ     -0.065500
     16 CAL         3.1540    1.5190   -0.0100 c3        1 OCZ     -0.075400
     17 HAL1        3.1210    1.4630   -1.1300 hc        1 OCZ      0.047700
     18 HAL2        4.1950    1.7950    0.3010 hc        1 OCZ      0.047700
     19 HAM1        2.5510    3.5950    0.0650 hc        1 OCZ      0.047700
     20 HAM2        2.1900    2.6510    1.5660 hc        1 OCZ      0.047700
     21 HAK         2.9970    0.2000    1.7060 hc        1 OCZ      0.094700
     22 HAJ1        0.7100    2.6210   -1.1460 hc        1 OCZ      0.051700
     23 HAJ2        0.0610    3.0180    0.4950 hc        1 OCZ      0.051700
     24 HAA        -2.3570    1.8640   -0.3590 ha        1 OCZ      0.147000
     25 HAC1       -3.8880   -2.1760    0.0820 ha        1 OCZ      0.145000
     26 HAD        -1.5970   -3.0620    0.5120 ha        1 OCZ      0.140000
     27 HAG         1.1390   -2.1690    0.6670 hn        1 OCZ      0.327700
     28 HAQ1        5.1970   -1.5790   -1.0910 hn        1 OCZ      0.316000
     29 HAQ2        4.8810    0.0930   -1.1330 hn        1 OCZ      0.316000
     30 CL         -4.8210    0.4290   -0.4430 cl        1 OCZ     -0.108400
@<TRIPOS>BOND
     1    1    3 1   
     2    1   28 1   
     3    1   29 1   
     4    2    3 2   
     5    3   15 1   
     6    4    8 1   
     7    4   12 1   
     8    4   27 1   
     9    5   11 1   
    10    5   14 1   
    11    5   22 1   
    12    5   23 1   
    13    6    7 ar  
    14    6    8 ar  
    15    6   26 1   
    16    7   13 ar  
    17    7   25 1   
    18    8    9 ar  
    19    9   10 ar  
    20    9   11 1   
    21   10   13 ar  
    22   10   24 1   
    23   11   12 2   
    24   12   15 1   
    25   13   30 1   
    26   14   16 1   
    27   14   19 1   
    28   14   20 1   
    29   15   16 1   
    30   15   21 1   
    31   16   17 1   
    32   16   18 1   
@<TRIPOS>SUBSTRUCTURE
     1 OCZ         1 TEMP              0 ****  ****    0 ROOT
