@<TRIPOS>MOLECULE
OCZ
   30    25     1     0     0
SMALL
bcc


@<TRIPOS>ATOM
      1 NAQ         0.6130   -2.1590   -3.7530 n3        1 OCZ     -0.419000
      2 OAP        -1.1280   -1.8160   -2.2530 o         1 OCZ     -0.398000
      3 CAO         0.0020   -1.4850   -2.6340 c1        1 OCZ      0.304000
      4 NAG         0.8700   -1.3350    0.6650 n2        1 OCZ     -0.185000
      5 CAJ        -0.7900    1.8120   -0.5020 c3        1 OCZ     -0.089000
      6 CAD         0.5240   -1.3540    3.2460 c1        1 OCZ     -0.133000
      7 CAC         0.0040   -0.6390    4.3350 c1        1 OCZ     -0.108000
      8 CAE         0.4180   -0.8340    1.9550 c1        1 OCZ      0.004000
      9 CL         -1.3760    1.2590    5.5990 cl        1 OCZ     -0.028000
     10 CAF        -0.2050    0.3940    1.7490 c1        1 OCZ     -0.070000
     11 CAA        -0.7250    1.1080    2.8410 c1        1 OCZ     -0.078000
     12 CAH        -0.1590    0.6770    0.3860 c1        1 OCZ     -0.132000
     13 CAI         0.5260   -0.4300   -0.2800 c1        1 OCZ     -0.038000
     14 CAB        -0.6180    0.5870    4.1290 c1        1 OCZ     -0.088000
     15 CAM        -0.7410    1.6370   -1.8970 c3        1 OCZ     -0.157000
     16 CAK         0.7740   -0.3380   -1.8900 c1        1 OCZ     -0.061000
     17 CAL         0.4180    0.9700   -2.4460 c3        1 OCZ     -0.155000
     18 HAL1        0.2700    0.8560   -3.3900 hc        1 OCZ      0.093000
     19 HAL2        1.1940    1.5680   -2.3300 hc        1 OCZ      0.093000
     20 HAM1       -1.5330    1.1280   -2.1620 hc        1 OCZ      0.082000
     21 HAM2       -0.8000    2.5380   -2.3180 hc        1 OCZ      0.082000
     22 HAK         1.7210   -0.5680   -2.1150 ha        1 OCZ      0.134000
     23 HAJ1       -0.3350    2.6500   -0.2850 hc        1 OCZ      0.092500
     24 HAJ2       -1.7330    1.9040   -0.2450 hc        1 OCZ      0.092500
     25 HAA        -1.1470    1.9390    2.7010 ha        1 OCZ      0.147000
     26 HAC1        0.1210   -0.9820    5.2450 ha        1 OCZ      0.145000
     27 HAD         0.9570   -2.2080    3.3900 ha        1 OCZ      0.141000
     28 HAG         1.3250   -2.1450    0.5150 DU        1 OCZ      0.270000
     29 HAQ1        1.2780   -1.7590   -4.2120 hn        1 OCZ      0.229000
     30 HAQ2        0.2760   -2.9730   -4.0420 hn        1 OCZ      0.229000
@<TRIPOS>BOND
     1    1    3 1   
     2    1   29 1   
     3    1   30 1   
     4    2    3 1   
     5    4    8 1   
     6    4   13 1   
     7    5   12 1   
     8    5   15 1   
     9    5   23 1   
    10    5   24 1   
    11    6    8 1   
    12    6   27 1   
    13    7   14 1   
    14    7   26 1   
    15    9   14 1   
    16   10   11 1   
    17   11   25 1   
    18   12   13 1   
    19   15   17 1   
    20   15   20 1   
    21   15   21 1   
    22   16   17 1   
    23   16   22 1   
    24   17   18 1   
    25   17   19 1   
@<TRIPOS>SUBSTRUCTURE
     1 OCZ         1 TEMP              0 ****  ****    0 ROOT
