@<TRIPOS>MOLECULE
OCZ
   31    31     1     0     0
SMALL
bcc


@<TRIPOS>ATOM
      1 NAQ         1.7770   -1.2120    1.3570 n4        1 OCZ     -0.762400
      2 OAP        -0.0560   -0.5750    0.1060 o         1 OCZ     -0.401100
      3 CAO         1.1450   -0.7730    0.0540 c         1 OCZ      0.540100
      4 NAG         4.3680    0.3140   -0.7750 na        1 OCZ     -0.143100
      5 CAJ         3.7710   -3.2860   -0.2250 ce        1 OCZ     -0.090200
      6 CAD         6.7380    0.7440   -0.3500 cg        1 OCZ     -0.178000
      7 CAC         7.6850    1.4760   -0.2900 c1        1 OCZ     -0.030500
      8 CAE         5.6440   -0.1240   -0.4170 cc        1 OCZ      0.061700
      9 CAF         5.5780   -1.5120   -0.1320 cc        1 OCZ     -0.056800
     10 CAA         6.6440   -2.3640    0.3170 ce        1 OCZ     -0.133200
     11 CAH         4.2130   -1.9260   -0.3640 cc        1 OCZ     -0.118800
     12 CAI         3.4930   -0.7700   -0.7680 cd        1 OCZ     -0.202600
     13 CAB         7.9440   -2.1100    0.1060 c2        1 OCZ     -0.024600
     14 CAM         2.5490   -3.7900   -0.4260 c2        1 OCZ     -0.256000
     15 CAK         2.0670   -0.6580   -1.1480 c3        1 OCZ     -0.035400
     16 CAL         1.7110    0.6110   -1.9030 c3        1 OCZ     -0.114100
     17 HAL1        1.8710    1.5240   -1.2810 hc        1 OCZ      0.076700
     18 HAL2        0.6350    0.5810   -2.2100 hc        1 OCZ      0.076700
     19 HAM1        2.3400    0.6810   -2.8260 hc        1 OCZ      0.076700
     20 HAM2        2.3550   -4.8670   -0.3060 ha        1 OCZ      0.121000
     21 HAK         1.8110   -1.5420   -1.8170 hc        1 OCZ      0.141700
     22 HAJ1        1.6780   -3.2190   -0.7690 ha        1 OCZ      0.121000
     23 HAJ2        4.5810   -3.9870    0.0690 ha        1 OCZ      0.161000
     24 HAA         6.3330   -3.2760    0.8580 ha        1 OCZ      0.145000
     25 HAC1        8.3180   -1.2280   -0.4350 h4        1 OCZ      0.162000
     26 HAD         8.5300    2.1220   -0.2360 ha        1 OCZ      0.191500
     27 HAG         4.1610    1.2100   -1.1430 hn        1 OCZ      0.318700
     28 HAQ1        1.0850   -1.2190    2.1140 hn        1 OCZ      0.473800
     29 HAQ2        2.1720   -2.1600    1.2380 hn        1 OCZ      0.473800
     30 HAQ3        2.5460   -0.5760    1.5950 hn        1 OCZ      0.473800
     31 CL          9.1700   -3.1270    0.6500 cl        1 OCZ     -0.067400
@<TRIPOS>BOND
     1    1    3 1   
     2    1   28 1   
     3    1   29 1   
     4    1   30 1   
     5    2    3 2   
     6    3   15 1   
     7    4    8 1   
     8    4   12 1   
     9    4   27 1   
    10    5   11 1   
    11    5   14 2   
    12    5   23 1   
    13    6    7 3   
    14    6    8 1   
    15    7   26 1   
    16    8    9 2   
    17    9   10 1   
    18    9   11 1   
    19   10   13 2   
    20   10   24 1   
    21   11   12 2   
    22   12   15 1   
    23   13   25 1   
    24   13   31 1   
    25   14   20 1   
    26   14   22 1   
    27   15   16 1   
    28   15   21 1   
    29   16   17 1   
    30   16   18 1   
    31   16   19 1   
@<TRIPOS>SUBSTRUCTURE
     1 OCZ         1 TEMP              0 ****  ****    0 ROOT
