@<TRIPOS>MOLECULE
OCZ
   31    32     1     0     0
SMALL
bcc


@<TRIPOS>ATOM
      1 NAQ        -0.1180    0.0570    0.5310 nz        1 OCZ     -0.748400
      2 OAP         1.7460    0.9540    1.5220 o         1 OCZ     -0.533100
      3 CAO         1.4020    0.1490    0.6490 c         1 OCZ      0.559300
      4 NAG         4.2780    0.3260    0.4390 na        1 OCZ     -0.546800
      5 CAJ         4.3180   -3.0580   -0.8910 c2        1 OCZ     -0.019200
      6 CAD         6.7400    0.9370    0.1620 c1        1 OCZ     -0.037800
      7 CAC         7.9910    0.6260   -0.1660 c2        1 OCZ     -0.101300
      8 CAE         5.6350    0.2020    0.1030 cc        1 OCZ      0.064900
      9 CAF         5.8450   -1.1510   -0.5260 cc        1 OCZ     -0.083000
     10 CAA         7.0930   -1.6520   -0.5520 c2        1 OCZ     -0.103200
     11 CAH         4.5020   -1.7540   -0.6190 cc        1 OCZ     -0.115000
     12 CAI         3.5560   -0.7120   -0.1060 cc        1 OCZ      0.367000
     13 CAB         8.2910   -0.8490   -0.0790 c3        1 OCZ      0.075100
     14 CAM         3.1210   -3.8870   -0.7030 c3        1 OCZ     -0.098900
     15 CAK         2.1510   -0.7040   -0.2050 cf        1 OCZ     -0.394400
     16 CAL         1.4650   -1.4580   -1.2760 c3        1 OCZ     -0.036900
     17 HAL1        2.2090   -1.9250   -1.9700 hc        1 OCZ      0.049367
     18 HAL2        0.8400   -0.7680   -1.9020 hc        1 OCZ      0.049367
     19 HAM1        2.6010   -4.0590   -1.6820 hc        1 OCZ      0.070033
     20 HAM2        3.4240   -4.8910   -0.3030 hc        1 OCZ      0.070033
     21 HAK         0.8060   -2.2680   -0.8730 hc        1 OCZ      0.049367
     22 HAJ1        2.3990   -3.4300    0.0170 hc        1 OCZ      0.070033
     23 HAJ2        5.2030   -3.6210   -1.2580 ha        1 OCZ      0.152000
     24 HAA         7.3120   -2.6880   -0.8540 ha        1 OCZ      0.168000
     25 HAC1        8.5440   -1.1880    0.9640 h1        1 OCZ      0.117700
     26 HAD         8.7330    1.3190   -0.5860 ha        1 OCZ      0.193000
     27 HAG         3.8960    1.1090    0.9220 hn        1 OCZ      0.500800
     28 HAQ1       -0.5480    0.6400    1.2580 hn        1 OCZ      0.458800
     29 HAQ2       -0.4110    0.3870   -0.3910 hn        1 OCZ      0.458800
     30 HAQ3       -0.4160   -0.9140    0.6440 hn        1 OCZ      0.458800
     31 Cl          9.6970   -1.2140   -1.0630 cl        1 OCZ     -0.111400
@<TRIPOS>BOND
     1    1    3 1   
     2    1   28 1   
     3    1   29 1   
     4    1   30 1   
     5    2    3 2   
     6    3   15 1   
     7    4    8 1   
     8    4   12 1   
     9    4   27 1   
    10    5   11 2   
    11    5   14 1   
    12    5   23 1   
    13    6    7 2   
    14    6    8 2   
    15    7   13 1   
    16    7   26 1   
    17    8    9 1   
    18    9   10 2   
    19    9   11 1   
    20   10   13 1   
    21   10   24 1   
    22   11   12 1   
    23   12   15 2   
    24   13   25 1   
    25   13   31 1   
    26   14   19 1   
    27   14   20 1   
    28   14   22 1   
    29   15   16 1   
    30   16   17 1   
    31   16   18 1   
    32   16   21 1   
@<TRIPOS>SUBSTRUCTURE
     1 OCZ         1 TEMP              0 ****  ****    0 ROOT
