@<TRIPOS>MOLECULE
OCZ
   31    31     1     0     0
SMALL
bcc


@<TRIPOS>ATOM
      1 NAQ         1.4210    0.0430   -0.8710 n4        1 OCZ     -0.755400
      2 OAP        -0.2210   -0.4620    0.6800 o         1 OCZ     -0.420100
      3 CAO         0.9820   -0.5150    0.4680 c         1 OCZ      0.558300
      4 NAG         4.3510   -0.0280    1.2220 na        1 OCZ     -0.156100
      5 CAJ         3.3860   -2.8960   -0.9280 c3        1 OCZ     -0.039100
      6 CAD         6.7010    0.5110    0.8090 cg        1 OCZ     -0.175000
      7 CAC         7.6950    1.1440    1.0280 c1        1 OCZ     -0.036500
      8 CAE         5.5550   -0.2470    0.5490 cc        1 OCZ      0.066700
      9 CAF         5.3710   -1.3100   -0.3750 cd        1 OCZ     -0.075800
     10 CAA         6.3310   -1.8890   -1.2720 cf        1 OCZ     -0.122200
     11 CAH         4.0120   -1.7610   -0.2280 cd        1 OCZ     -0.105300
     12 CAI         3.4120   -0.9620    0.7710 cc        1 OCZ     -0.200100
     13 CAB         7.4780   -1.3000   -1.6390 c2        1 OCZ     -0.039600
     14 CAM         3.2750   -2.7120   -2.4230 c3        1 OCZ     -0.096100
     15 CAK         2.0640   -1.0440    1.3080 ce        1 OCZ     -0.147400
     16 CAL         1.7660   -1.5920    2.5010 c2        1 OCZ     -0.011000
     17 HAL1        2.5000   -1.9530   -2.6930 hc        1 OCZ      0.041700
     18 HAL2        0.7330   -1.6550    2.8820 ha        1 OCZ      0.168000
     19 HAM1        4.2510   -2.3830   -2.8580 hc        1 OCZ      0.041700
     20 HAM2        2.9820   -3.6790   -2.9020 hc        1 OCZ      0.041700
     21 HAK         2.5530   -2.0100    3.1510 ha        1 OCZ      0.168000
     22 HAJ1        2.3690   -3.0970   -0.4950 hc        1 OCZ      0.064700
     23 HAJ2        4.0110   -3.8140   -0.7260 hc        1 OCZ      0.064700
     24 HAA         6.0620   -2.8930   -1.6530 ha        1 OCZ      0.150000
     25 HAC1        7.8010   -0.3080   -1.2900 h4        1 OCZ      0.158000
     26 HAD         8.5820    1.7000    1.2200 ha        1 OCZ      0.190500
     27 HAG         4.2460    0.5520    2.0160 hn        1 OCZ      0.313700
     28 HAQ1        0.6080    0.2420   -1.4620 hn        1 OCZ      0.474467
     29 HAQ2        2.0390   -0.6430   -1.3320 hn        1 OCZ      0.474467
     30 HAQ3        1.9550    0.9030   -0.7200 hn        1 OCZ      0.474467
     31 CL          8.5760   -2.0240   -2.6920 cl        1 OCZ     -0.072400
@<TRIPOS>BOND
     1    1    3 1   
     2    1   28 1   
     3    1   29 1   
     4    1   30 1   
     5    2    3 2   
     6    3   15 1   
     7    4    8 1   
     8    4   12 1   
     9    4   27 1   
    10    5   11 1   
    11    5   14 1   
    12    5   22 1   
    13    5   23 1   
    14    6    7 3   
    15    6    8 1   
    16    7   26 1   
    17    8    9 2   
    18    9   10 1   
    19    9   11 1   
    20   10   13 2   
    21   10   24 1   
    22   11   12 2   
    23   12   15 1   
    24   13   25 1   
    25   13   31 1   
    26   14   17 1   
    27   14   19 1   
    28   14   20 1   
    29   15   16 2   
    30   16   18 1   
    31   16   21 1   
@<TRIPOS>SUBSTRUCTURE
     1 OCZ         1 TEMP              0 ****  ****    0 ROOT
