@<TRIPOS>MOLECULE
ODA
   31    32     1     0     0
SMALL
bcc


@<TRIPOS>ATOM
      1 N          -2.9890    0.9880    1.2180 n3        1 ODA     -0.895800
      2 CA         -1.6040    0.7830    1.1770 c3        1 ODA      0.118500
      3 CB         -1.1030    0.4640    2.5570 c3        1 ODA     -0.072400
      4 CG          0.4060    0.5470    2.5810 c3        1 ODA     -0.137400
      5 CD          0.7940    1.1130    1.2260 c         1 ODA      0.692500
      6 OE1         0.8370    2.2990    0.9620 o         1 ODA     -0.671500
      7 NE2         1.0250    0.0570    0.2740 n         1 ODA     -0.329400
      8 C          -1.2950   -0.4270    0.3260 c         1 ODA      0.667500
      9 O          -1.8940   -1.4870    0.3910 o         1 ODA     -0.623500
     10 N2         -0.1470   -0.1880   -0.5150 n         1 ODA     -0.258400
     11 CA2         0.1050   -0.1470   -1.9970 c3        1 ODA     -0.078300
     12 CB2         1.2760   -1.0610   -2.3270 c3        1 ODA     -0.095400
     13 CG2         2.4590   -0.7920   -1.5090 c3        1 ODA     -0.080400
     14 CD2         2.1430   -0.7990   -0.0720 c3        1 ODA      0.060000
     15 C2         -1.1440   -0.4850   -2.8100 c         1 ODA      0.929600
     16 O2         -1.6170   -1.6480   -2.7790 o         1 ODA     -0.814300
     17 OXT        -1.6500    0.3790   -3.5730 o         1 ODA     -0.814300
     18 H          -3.2180    1.6390    0.6160 hn        1 ODA      0.360800
     19 H2         -3.2350    1.2520    2.0630 hn        1 ODA      0.360800
     20 HA1        -1.3040    1.6340    0.8130 h1        1 ODA      0.096700
     21 HB2        -1.4260    1.1890    3.1380 hc        1 ODA      0.048200
     22 HB3        -1.3260   -0.4780    2.7160 hc        1 ODA      0.048200
     23 HG2         0.8560   -0.2920    2.8030 hc        1 ODA      0.067700
     24 HG3         0.6030    1.2670    3.2220 hc        1 ODA      0.067700
     25 HA2         0.2810    0.7630   -2.2940 h1        1 ODA      0.063700
     26 HB23        1.5130   -0.9420   -3.2720 hc        1 ODA      0.062700
     27 HB22        1.0010   -1.9880   -2.1850 hc        1 ODA      0.062700
     28 HG23        3.0630   -1.5560   -1.6540 hc        1 ODA      0.033200
     29 HG22        2.7240    0.1320   -1.7190 hc        1 ODA      0.033200
     30 HD22        2.9340   -0.4990    0.4240 h1        1 ODA      0.048700
     31 HD23        1.9310   -1.7170    0.1980 h1        1 ODA      0.048700
@<TRIPOS>BOND
     1    1    2 1   
     2    1   18 1   
     3    1   19 1   
     4    2    3 1   
     5    2    8 1   
     6    2   20 1   
     7    3    4 1   
     8    3   21 1   
     9    3   22 1   
    10    4    5 1   
    11    4   23 1   
    12    4   24 1   
    13    5    6 2   
    14    5    7 1   
    15    7   10 1   
    16    7   14 1   
    17    8    9 2   
    18    8   10 1   
    19   10   11 1   
    20   11   12 1   
    21   11   15 1   
    22   11   25 1   
    23   12   13 1   
    24   12   26 1   
    25   12   27 1   
    26   13   14 1   
    27   13   28 1   
    28   13   29 1   
    29   14   30 1   
    30   14   31 1   
    31   15   16 1   
    32   15   17 1   
@<TRIPOS>SUBSTRUCTURE
     1 ODA         1 TEMP              0 ****  ****    0 ROOT
