@<TRIPOS>MOLECULE
ODA
   31    32     1     0     0
SMALL
bcc


@<TRIPOS>ATOM
      1 N           1.5030    1.4330    1.7720 n3        1 ODA     -0.907800
      2 CA          1.3200    1.8870    0.4120 c3        1 ODA      0.111500
      3 CB          2.5260    1.6260   -0.5050 c3        1 ODA     -0.069400
      4 CG          2.3850    0.4610   -1.4590 c3        1 ODA     -0.150400
      5 CD          1.9980   -0.8270   -0.7620 c         1 ODA      0.690500
      6 OE1         2.7950   -1.7880   -0.7140 o         1 ODA     -0.676500
      7 NE2         0.7780   -0.8680   -0.0700 n         1 ODA     -0.328400
      8 C           0.0170    1.3990   -0.2550 c         1 ODA      0.652500
      9 O          -0.7900    2.2310   -0.7040 o         1 ODA     -0.624500
     10 N2         -0.2290    0.0040   -0.4710 n         1 ODA     -0.265400
     11 CA2        -1.6030   -0.4210   -0.0950 c3        1 ODA     -0.069300
     12 CB2        -1.8920   -1.8540   -0.5450 c3        1 ODA     -0.068400
     13 CG2        -0.7900   -2.8250   -0.1670 c3        1 ODA     -0.088400
     14 CD2         0.3570   -2.1240    0.5570 c3        1 ODA      0.069000
     15 C2         -1.9680   -0.2710    1.4230 c         1 ODA      0.909600
     16 O2         -1.0930    0.1690    2.2220 o         1 ODA     -0.829800
     17 OXT        -3.1380   -0.6020    1.7460 o         1 ODA     -0.829800
     18 H           0.6260    1.4840    2.2680 hn        1 ODA      0.379300
     19 H2          1.8170    0.4820    1.8020 hn        1 ODA      0.379300
     20 HA1         1.1990    3.0140    0.4870 h1        1 ODA      0.069700
     21 HB2         2.6920    2.5510   -1.1190 hc        1 ODA      0.048200
     22 HB3         3.4470    1.4780    0.1200 hc        1 ODA      0.048200
     23 HG2         1.6290    0.6970   -2.2560 hc        1 ODA      0.065700
     24 HG3         3.3700    0.2840   -1.9690 hc        1 ODA      0.065700
     25 HA2        -2.2770    0.2870   -0.6590 h1        1 ODA      0.086700
     26 HB23       -2.8610   -2.1520   -0.0590 hc        1 ODA      0.049200
     27 HB22       -2.0450   -1.8770   -1.6550 hc        1 ODA      0.049200
     28 HG23       -1.1890   -3.6190    0.5150 hc        1 ODA      0.033700
     29 HG22       -0.4010   -3.3370   -1.0850 hc        1 ODA      0.033700
     30 HD22        1.2500   -2.8040    0.6130 h1        1 ODA      0.083700
     31 HD23        0.0240   -1.8550    1.6050 h1        1 ODA      0.083700
@<TRIPOS>BOND
     1    1    2 1   
     2    1   18 1   
     3    1   19 1   
     4    2    3 1   
     5    2    8 1   
     6    2   20 1   
     7    3    4 1   
     8    3   21 1   
     9    3   22 1   
    10    4    5 1   
    11    4   23 1   
    12    4   24 1   
    13    5    6 2   
    14    5    7 1   
    15    7   10 1   
    16    7   14 1   
    17    8    9 2   
    18    8   10 1   
    19   10   11 1   
    20   11   12 1   
    21   11   15 1   
    22   11   25 1   
    23   12   13 1   
    24   12   26 1   
    25   12   27 1   
    26   13   14 1   
    27   13   28 1   
    28   13   29 1   
    29   14   30 1   
    30   14   31 1   
    31   15   16 1   
    32   15   17 1   
@<TRIPOS>SUBSTRUCTURE
     1 ODA         1 TEMP              0 ****  ****    0 ROOT
