@<TRIPOS>MOLECULE
ODD
   51    47     1     0     0
SMALL
bcc


@<TRIPOS>ATOM
      1 O2         -9.0550    5.3260    1.0900 o         1 ODD     -0.590000
      2 C1         -7.9850    5.9810    0.9840 c1        1 ODD      0.327000
      3 O1         -7.9570    7.0340    0.2940 os        1 ODD     -0.586000
      4 C2         -6.7350    5.5080    1.6930 c3        1 ODD     -0.223000
      5 C3         -5.9760    4.5550    0.7950 c3        1 ODD     -0.144000
      6 C4         -4.9120    3.8420    1.6010 c3        1 ODD     -0.157000
      7 C5         -3.9690    3.1210    0.6640 c3        1 ODD     -0.157000
      8 C6         -3.0840    2.1870    1.4600 c3        1 ODD     -0.157000
      9 C7         -1.9320    1.7240    0.5940 c3        1 ODD     -0.158000
     10 C8         -1.2700    0.5240    1.2350 c3        1 ODD     -0.157000
     11 C9         -0.0070    0.1800    0.4770 c3        1 ODD     -0.140000
     12 C10         0.4500   -1.2090    0.8640 c2        1 ODD     -0.133000
     13 C11         1.6220   -1.6870    0.3990 c1        1 ODD     -0.162000
     14 C12         2.4790   -0.8330   -0.5090 c1        1 ODD     -0.148000
     15 C13         3.5670   -1.3630   -1.1020 c1        1 ODD     -0.148000
     16 C14         3.9310   -2.8120   -0.8600 c2        1 ODD     -0.132000
     17 C15         5.0960   -3.1940   -1.7450 c3        1 ODD     -0.156000
     18 C16         5.5110   -4.6180   -1.4460 c3        1 ODD     -0.158000
     19 C17         6.6050   -5.0360   -2.4030 c3        1 ODD     -0.159000
     20 C18         7.0440   -6.4480   -2.0810 c3        1 ODD     -0.210000
     21 H21        -6.9830    5.0490    2.5200 hc        1 ODD      0.058000
     22 H22        -6.1680    6.2770    1.9040 hc        1 ODD      0.058000
     23 H31        -6.5960    3.8980    0.4200 hc        1 ODD      0.083500
     24 H32        -5.5540    5.0570    0.0690 hc        1 ODD      0.083500
     25 H41        -5.3350    3.1950    2.2000 hc        1 ODD      0.065000
     26 H42        -4.4110    4.4960    2.1290 hc        1 ODD      0.065000
     27 H51        -3.4130    3.7750    0.1930 hc        1 ODD      0.076000
     28 H52        -4.4860    2.6050    0.0140 hc        1 ODD      0.076000
     29 H61        -2.7340    2.6580    2.2430 hc        1 ODD      0.074000
     30 H62        -3.6050    1.4120    1.7500 hc        1 ODD      0.074000
     31 H71        -2.2680    1.4770   -0.2910 hc        1 ODD      0.077500
     32 H72        -1.2800    2.4480    0.5050 hc        1 ODD      0.077500
     33 H81        -1.8830   -0.2380    1.2110 hc        1 ODD      0.078500
     34 H82        -1.0460    0.7330    2.1640 hc        1 ODD      0.078500
     35 H91         0.6920    0.8270    0.6980 hc        1 ODD      0.091000
     36 H92        -0.1860    0.2080   -0.4840 hc        1 ODD      0.091000
     37 H10        -0.1030   -1.7600    1.4490 ha        1 ODD      0.121000
     38 H11         1.9170   -2.5830    0.6490 ha        1 ODD      0.117000
     39 H12         2.2450    0.1010   -0.6650 ha        1 ODD      0.121500
     40 H13         4.1210   -0.8130   -1.6880 ha        1 ODD      0.121500
     41 H141        4.1800   -2.9330    0.0780 ha        1 ODD      0.088000
     42 H142        3.1620   -3.3800   -1.0680 ha        1 ODD      0.088000
     43 H151        4.8300   -3.1230   -2.6840 hc        1 ODD      0.080000
     44 H152        5.8480   -2.5930   -1.5730 hc        1 ODD      0.080000
     45 H161        5.8420   -4.6750   -0.5270 hc        1 ODD      0.079000
     46 H162        4.7410   -5.2110   -1.5520 hc        1 ODD      0.079000
     47 H171        6.2670   -5.0020   -3.3200 hc        1 ODD      0.077500
     48 H172        7.3670   -4.4290   -2.3130 hc        1 ODD      0.077500
     49 H181        6.2640   -7.0410   -2.0800 hc        1 ODD      0.070333
     50 H182        7.4690   -6.4640   -1.1980 hc        1 ODD      0.070333
     51 H183        7.6850   -6.7530   -2.7570 hc        1 ODD      0.070333
@<TRIPOS>BOND
     1    1    2 1   
     2    2    4 1   
     3    4    5 1   
     4    4   21 1   
     5    4   22 1   
     6    5    6 1   
     7    5   23 1   
     8    5   24 1   
     9    6    7 1   
    10    6   25 1   
    11    6   26 1   
    12    7    8 1   
    13    7   27 1   
    14    7   28 1   
    15    8    9 1   
    16    8   29 1   
    17    8   30 1   
    18    9   10 1   
    19    9   31 1   
    20    9   32 1   
    21   10   11 1   
    22   10   33 1   
    23   10   34 1   
    24   11   12 1   
    25   11   35 1   
    26   11   36 1   
    27   12   13 1   
    28   12   37 1   
    29   13   38 1   
    30   14   15 1   
    31   14   39 1   
    32   15   40 1   
    33   16   17 1   
    34   16   41 1   
    35   16   42 1   
    36   17   18 1   
    37   17   43 1   
    38   17   44 1   
    39   18   19 1   
    40   18   45 1   
    41   18   46 1   
    42   19   20 1   
    43   19   47 1   
    44   19   48 1   
    45   20   49 1   
    46   20   50 1   
    47   20   51 1   
@<TRIPOS>SUBSTRUCTURE
     1 ODD         1 TEMP              0 ****  ****    0 ROOT
