@<TRIPOS>MOLECULE
ODD
   51    50     1     0     0
SMALL
bcc


@<TRIPOS>ATOM
      1 O2          2.3680   -0.7350    0.5400 o         1 ODD     -0.853300
      2 C1          3.0600    0.2620    0.1820 c         1 ODD      0.907600
      3 O1          4.0360    0.7140    0.8480 o         1 ODD     -0.853300
      4 C2          2.6870    0.9860   -1.1230 c3        1 ODD     -0.194400
      5 C3          2.4410    0.0050   -2.2440 c3        1 ODD     -0.065400
      6 C4          1.8940    0.6860   -3.4810 c3        1 ODD     -0.078400
      7 C5          1.6670   -0.3030   -4.6040 c3        1 ODD     -0.078400
      8 C6          1.1120    0.3750   -5.8380 c3        1 ODD     -0.078400
      9 C7          0.8870   -0.6170   -6.9590 c3        1 ODD     -0.079400
     10 C8          0.3320    0.0620   -8.1930 c3        1 ODD     -0.078400
     11 C9          0.1080   -0.9340   -9.3130 c3        1 ODD     -0.057200
     12 C10        -0.4340   -0.2930  -10.5340 c2        1 ODD     -0.137200
     13 C11        -0.7230   -0.9340  -11.6760 ce        1 ODD     -0.162000
     14 C12        -0.5490   -2.3540  -11.8890 ce        1 ODD     -0.132000
     15 C13        -0.8360   -2.9970  -13.0300 c2        1 ODD     -0.168200
     16 C14        -1.3760   -2.3540  -14.2500 c3        1 ODD     -0.049200
     17 C15        -1.5930   -3.3500  -15.3720 c3        1 ODD     -0.077400
     18 C16        -2.1450   -2.6700  -16.6070 c3        1 ODD     -0.079400
     19 C17        -2.3640   -3.6620  -17.7300 c3        1 ODD     -0.080400
     20 C18        -2.9130   -2.9900  -18.9620 c3        1 ODD     -0.092100
     21 H21         1.7620    1.5850   -0.9290 hc        1 ODD      0.018700
     22 H22         3.5060    1.6960   -1.4000 hc        1 ODD      0.018700
     23 H31         3.3980   -0.5200   -2.4980 hc        1 ODD      0.044200
     24 H32         1.7210   -0.7780   -1.8830 hc        1 ODD      0.044200
     25 H41         0.9270    1.1980   -3.2310 hc        1 ODD      0.025700
     26 H42         2.6090    1.4810   -3.8210 hc        1 ODD      0.025700
     27 H51         2.6350   -0.8110   -4.8570 hc        1 ODD      0.036700
     28 H52         0.9560   -1.1010   -4.2600 hc        1 ODD      0.036700
     29 H61         0.1440    0.8820   -5.5850 hc        1 ODD      0.034700
     30 H62         1.8230    1.1730   -6.1790 hc        1 ODD      0.034700
     31 H71         1.8550   -1.1240   -7.2120 hc        1 ODD      0.038200
     32 H72         0.1760   -1.4150   -6.6170 hc        1 ODD      0.038200
     33 H81         1.0440    0.8600   -8.5350 hc        1 ODD      0.039200
     34 H82        -0.6360    0.5690   -7.9400 hc        1 ODD      0.039200
     35 H91         1.0800   -1.4450   -9.5560 hc        1 ODD      0.051700
     36 H92        -0.6000   -1.7340   -8.9620 hc        1 ODD      0.051700
     37 H10        -0.6010    0.7960  -10.4640 ha        1 ODD      0.121000
     38 H11        -1.1240   -0.3640  -12.5320 ha        1 ODD      0.117000
     39 H12        -0.1480   -2.9230  -11.0310 ha        1 ODD      0.124000
     40 H13        -0.6690   -4.0860  -13.0980 ha        1 ODD      0.119000
     41 H141       -2.3500   -1.8470  -14.0090 hc        1 ODD      0.048700
     42 H142       -0.6690   -1.5510  -14.5980 hc        1 ODD      0.048700
     43 H151       -2.3040   -4.1490  -15.0330 hc        1 ODD      0.040700
     44 H152       -0.6220   -3.8540  -15.6210 hc        1 ODD      0.040700
     45 H161       -3.1150   -2.1660  -16.3570 hc        1 ODD      0.039700
     46 H162       -1.4350   -1.8710  -16.9450 hc        1 ODD      0.039700
     47 H171       -1.3920   -4.1660  -17.9770 hc        1 ODD      0.038200
     48 H172       -3.0730   -4.4620  -17.3890 hc        1 ODD      0.038200
     49 H181       -3.0670   -3.7380  -19.7760 hc        1 ODD      0.031033
     50 H182       -2.2080   -2.2060  -19.3310 hc        1 ODD      0.031033
     51 H183       -3.8930   -2.5020  -18.7410 hc        1 ODD      0.031033
@<TRIPOS>BOND
     1    1    2 1   
     2    2    3 1   
     3    2    4 1   
     4    4    5 1   
     5    4   21 1   
     6    4   22 1   
     7    5    6 1   
     8    5   23 1   
     9    5   24 1   
    10    6    7 1   
    11    6   25 1   
    12    6   26 1   
    13    7    8 1   
    14    7   27 1   
    15    7   28 1   
    16    8    9 1   
    17    8   29 1   
    18    8   30 1   
    19    9   10 1   
    20    9   31 1   
    21    9   32 1   
    22   10   11 1   
    23   10   33 1   
    24   10   34 1   
    25   11   12 1   
    26   11   35 1   
    27   11   36 1   
    28   12   13 2   
    29   12   37 1   
    30   13   14 1   
    31   13   38 1   
    32   14   15 2   
    33   14   39 1   
    34   15   16 1   
    35   15   40 1   
    36   16   17 1   
    37   16   41 1   
    38   16   42 1   
    39   17   18 1   
    40   17   43 1   
    41   17   44 1   
    42   18   19 1   
    43   18   45 1   
    44   18   46 1   
    45   19   20 1   
    46   19   47 1   
    47   19   48 1   
    48   20   49 1   
    49   20   50 1   
    50   20   51 1   
@<TRIPOS>SUBSTRUCTURE
     1 ODD         1 TEMP              0 ****  ****    0 ROOT
