@<TRIPOS>MOLECULE
ODD
   51    50     1     0     0
SMALL
bcc


@<TRIPOS>ATOM
      1 O2         -8.6630    2.0210   -0.5160 o         1 ODD     -0.853300
      2 C1         -8.8700    0.7760   -0.4140 c         1 ODD      0.907600
      3 O1         -9.9920    0.2720   -0.1210 o         1 ODD     -0.853300
      4 C2         -7.6990   -0.1870   -0.6820 c3        1 ODD     -0.194400
      5 C3         -6.4450    0.2640    0.0250 c3        1 ODD     -0.065400
      6 C4         -5.2420   -0.5670   -0.3720 c3        1 ODD     -0.078400
      7 C5         -3.9940   -0.1180    0.3560 c3        1 ODD     -0.078400
      8 C6         -2.7900   -0.9440   -0.0430 c3        1 ODD     -0.078400
      9 C7         -1.5440   -0.4940    0.6890 c3        1 ODD     -0.079400
     10 C8         -0.3420   -1.3250    0.2940 c3        1 ODD     -0.076400
     11 C9          0.9020   -0.8740    1.0360 c3        1 ODD     -0.055200
     12 C10         2.0820   -1.6950    0.6790 c2        1 ODD     -0.139200
     13 C11         3.3050   -1.1850    0.4790 ce        1 ODD     -0.158000
     14 C12         4.4560   -2.0000    0.1520 ce        1 ODD     -0.133000
     15 C13         5.6940   -1.5280   -0.0530 c2        1 ODD     -0.168200
     16 C14         6.0770   -0.0990    0.0230 c3        1 ODD     -0.049200
     17 C15         7.5520    0.1130   -0.2530 c3        1 ODD     -0.077400
     18 C16         7.9170    1.5790   -0.1700 c3        1 ODD     -0.080400
     19 C17         9.3900    1.7960   -0.4450 c3        1 ODD     -0.079400
     20 C18         9.7590    3.2550   -0.3630 c3        1 ODD     -0.092100
     21 H21        -7.5260   -0.2150   -1.7880 hc        1 ODD      0.018700
     22 H22        -7.9840   -1.2170   -0.3520 hc        1 ODD      0.018700
     23 H31        -6.5970    0.1950    1.1340 hc        1 ODD      0.044200
     24 H32        -6.2650    1.3450   -0.2170 hc        1 ODD      0.044200
     25 H41        -5.0800   -0.4860   -1.4790 hc        1 ODD      0.026200
     26 H42        -5.4400   -1.6480   -0.1470 hc        1 ODD      0.026200
     27 H51        -4.1560   -0.2000    1.4630 hc        1 ODD      0.036700
     28 H52        -3.7990    0.9640    0.1320 hc        1 ODD      0.036700
     29 H61        -2.6270   -0.8590   -1.1500 hc        1 ODD      0.034700
     30 H62        -2.9870   -2.0260    0.1790 hc        1 ODD      0.034700
     31 H71        -1.7100   -0.5740    1.7960 hc        1 ODD      0.038200
     32 H72        -1.3460    0.5870    0.4630 hc        1 ODD      0.038200
     33 H81        -0.1720   -1.2390   -0.8110 hc        1 ODD      0.040200
     34 H82        -0.5420   -2.4060    0.5160 hc        1 ODD      0.040200
     35 H91         0.7250   -0.9630    2.1440 hc        1 ODD      0.048700
     36 H92         1.0920    0.2120    0.8210 hc        1 ODD      0.048700
     37 H10         1.8950   -2.7790    0.5960 ha        1 ODD      0.120000
     38 H11         3.4820   -0.0980    0.5570 ha        1 ODD      0.122000
     39 H12         4.2680   -3.0850    0.0710 ha        1 ODD      0.118000
     40 H13         6.5100   -2.2280   -0.3000 ha        1 ODD      0.117000
     41 H141        5.8270    0.3040    1.0420 hc        1 ODD      0.050700
     42 H142        5.4710    0.4930   -0.7170 hc        1 ODD      0.050700
     43 H151        7.8040   -0.2810   -1.2730 hc        1 ODD      0.039200
     44 H152        8.1610   -0.4700    0.4870 hc        1 ODD      0.039200
     45 H161        7.6640    1.9730    0.8500 hc        1 ODD      0.041200
     46 H162        7.3080    2.1620   -0.9100 hc        1 ODD      0.041200
     47 H171        9.6420    1.4010   -1.4640 hc        1 ODD      0.037200
     48 H172        9.9980    1.2120    0.2950 hc        1 ODD      0.037200
     49 H181       10.8480    3.3930   -0.5690 hc        1 ODD      0.032033
     50 H182        9.1800    3.8500   -1.1100 hc        1 ODD      0.032033
     51 H183        9.5380    3.6610    0.6540 hc        1 ODD      0.032033
@<TRIPOS>BOND
     1    1    2 1   
     2    2    3 1   
     3    2    4 1   
     4    4    5 1   
     5    4   21 1   
     6    4   22 1   
     7    5    6 1   
     8    5   23 1   
     9    5   24 1   
    10    6    7 1   
    11    6   25 1   
    12    6   26 1   
    13    7    8 1   
    14    7   27 1   
    15    7   28 1   
    16    8    9 1   
    17    8   29 1   
    18    8   30 1   
    19    9   10 1   
    20    9   31 1   
    21    9   32 1   
    22   10   11 1   
    23   10   33 1   
    24   10   34 1   
    25   11   12 1   
    26   11   35 1   
    27   11   36 1   
    28   12   13 2   
    29   12   37 1   
    30   13   14 1   
    31   13   38 1   
    32   14   15 2   
    33   14   39 1   
    34   15   16 1   
    35   15   40 1   
    36   16   17 1   
    37   16   41 1   
    38   16   42 1   
    39   17   18 1   
    40   17   43 1   
    41   17   44 1   
    42   18   19 1   
    43   18   45 1   
    44   18   46 1   
    45   19   20 1   
    46   19   47 1   
    47   19   48 1   
    48   20   49 1   
    49   20   50 1   
    50   20   51 1   
@<TRIPOS>SUBSTRUCTURE
     1 ODD         1 TEMP              0 ****  ****    0 ROOT
