@<TRIPOS>MOLECULE
ODE
   55    58     1     0     0
SMALL
bcc


@<TRIPOS>ATOM
      1 CAI         0.3870   -0.1940    0.1790 ca        1 ODE     -0.071500
      2 CAN         1.7430   -0.2460    0.4910 ca        1 ODE     -0.191500
      3 CAV         2.1410   -0.2440    1.8350 ca        1 ODE      0.131600
      4 OAZ         3.4610   -0.2980    2.2200 oh        1 ODE     -0.496600
      5 CAO         1.1890   -0.1860    2.8680 ca        1 ODE     -0.191500
      6 CAL        -0.1600   -0.1310    2.5400 ca        1 ODE     -0.071500
      7 CAF        -0.5740   -0.1430    1.1980 ca        1 ODE     -0.081800
      8 CAA        -1.9870   -0.0840    0.8940 ce        1 ODE     -0.059900
      9 CAC        -2.8350    1.1490    1.2310 c3        1 ODE      0.170800
     10 OBC        -4.0940    0.5030    1.6210 os        1 ODE     -0.407600
     11 CAD        -3.3110    1.8400   -0.0890 c3        1 ODE     -0.131200
     12 CAR        -2.2430    2.2990   -1.0300 c         1 ODE      0.652100
     13 OBD        -1.0910    1.9010   -1.1940 o         1 ODE     -0.524500
     14 OBA        -2.6660    3.3740   -1.7660 os        1 ODE     -0.446900
     15 CAJ        -1.7800    3.8160   -2.8120 c3        1 ODE      0.138400
     16 CAU        -2.4640    4.9840   -3.4790 c3        1 ODE     -0.100600
     17 CAK        -4.2960    0.7820   -0.6640 c3        1 ODE     -0.131200
     18 CAQ        -4.0350    0.3170   -2.0580 c         1 ODE      0.652100
     19 OAY        -3.1710    0.6790   -2.8590 o         1 ODE     -0.524500
     20 OBB        -4.9600   -0.6000   -2.4790 os        1 ODE     -0.446900
     21 CAS        -4.8170   -1.0870   -3.8270 c3        1 ODE      0.138400
     22 CAG        -5.7850   -2.2370   -3.9620 c3        1 ODE     -0.100600
     23 CAE        -4.2380   -0.3360    0.4290 c3        1 ODE      0.170800
     24 CAB        -2.8570   -1.0090    0.3880 cf        1 ODE     -0.059900
     25 CAH        -2.6700   -2.3740   -0.0320 ca        1 ODE     -0.081800
     26 CAM        -3.6400   -3.0170   -0.8180 ca        1 ODE     -0.071500
     27 CAW        -3.4840   -4.3440   -1.2020 ca        1 ODE     -0.191500
     28 CAT        -2.3420   -5.0490   -0.7960 ca        1 ODE      0.131600
     29 OBE        -2.1190   -6.3630   -1.1330 oh        1 ODE     -0.496600
     30 CAX        -1.3580   -4.4240   -0.0120 ca        1 ODE     -0.191500
     31 CAP        -1.5300   -3.0980    0.3600 ca        1 ODE     -0.071500
     32 HAI         0.0650   -0.1610   -0.8750 ha        1 ODE      0.150000
     33 HAN         2.4930   -0.2790   -0.3100 ha        1 ODE      0.143250
     34 HOAZ        4.0030   -0.3150    1.4180 ho        1 ODE      0.419500
     35 HAO         1.5230   -0.1820    3.9150 ha        1 ODE      0.143250
     36 HAL        -0.9130   -0.0830    3.3410 ha        1 ODE      0.150000
     37 HAC        -2.4810    1.8140    2.0380 h1        1 ODE      0.115700
     38 HAD        -3.9100    2.7480    0.2060 hc        1 ODE      0.102200
     39 HAJ1       -1.6190    2.9600   -3.5190 h1        1 ODE      0.056700
     40 HAJ2       -0.8000    4.1100   -2.3530 h1        1 ODE      0.056700
     41 HAU1       -2.6420    5.8070   -2.7460 hc        1 ODE      0.047033
     42 HAU2       -1.8140    5.3630   -4.3030 hc        1 ODE      0.047033
     43 HAU3       -3.4480    4.6730   -3.9030 hc        1 ODE      0.047033
     44 HAK        -5.3350    1.2160   -0.6580 hc        1 ODE      0.102200
     45 HAS1       -5.0590   -0.2470   -4.5280 h1        1 ODE      0.056700
     46 HAS2       -3.7560   -1.4110   -3.9910 h1        1 ODE      0.056700
     47 HAG1       -5.5190   -3.0570   -3.2520 hc        1 ODE      0.047033
     48 HAG2       -5.7400   -2.6290   -5.0070 hc        1 ODE      0.047033
     49 HAG3       -6.8270   -1.9040   -3.7410 hc        1 ODE      0.047033
     50 HAE        -5.1290   -0.9820    0.5220 h1        1 ODE      0.115700
     51 HAM        -4.5330   -2.4610   -1.1520 ha        1 ODE      0.150000
     52 HAW        -4.2500   -4.8340   -1.8200 ha        1 ODE      0.143250
     53 HOBE       -2.8710   -6.6670   -1.6630 ho        1 ODE      0.419500
     54 HAX        -0.4680   -4.9910    0.2960 ha        1 ODE      0.143250
     55 HAP        -0.7600   -2.6010    0.9740 ha        1 ODE      0.150000
@<TRIPOS>BOND
     1    1    2 ar  
     2    1    7 ar  
     3    1   32 1   
     4    2    3 ar  
     5    2   33 1   
     6    3    4 1   
     7    3    5 ar  
     8    4   34 1   
     9    5    6 ar  
    10    5   35 1   
    11    6    7 ar  
    12    6   36 1   
    13    7    8 1   
    14    8    9 1   
    15    8   24 2   
    16    9   10 1   
    17    9   11 1   
    18    9   37 1   
    19   10   23 1   
    20   11   12 1   
    21   11   17 1   
    22   11   38 1   
    23   12   13 2   
    24   12   14 1   
    25   14   15 1   
    26   15   16 1   
    27   15   39 1   
    28   15   40 1   
    29   16   41 1   
    30   16   42 1   
    31   16   43 1   
    32   17   18 1   
    33   17   23 1   
    34   17   44 1   
    35   18   19 2   
    36   18   20 1   
    37   20   21 1   
    38   21   22 1   
    39   21   45 1   
    40   21   46 1   
    41   22   47 1   
    42   22   48 1   
    43   22   49 1   
    44   23   24 1   
    45   23   50 1   
    46   24   25 1   
    47   25   26 ar  
    48   25   31 ar  
    49   26   27 ar  
    50   26   51 1   
    51   27   28 ar  
    52   27   52 1   
    53   28   29 1   
    54   28   30 ar  
    55   29   53 1   
    56   30   31 ar  
    57   30   54 1   
    58   31   55 1   
@<TRIPOS>SUBSTRUCTURE
     1 ODE         1 TEMP              0 ****  ****    0 ROOT
