@<TRIPOS>MOLECULE
ODE
   55    58     1     0     0
SMALL
bcc


@<TRIPOS>ATOM
      1 CAI         0.3760   -0.1110    0.2010 ca        1 ODE     -0.071500
      2 CAN         1.7300   -0.1370    0.5240 ca        1 ODE     -0.191500
      3 CAV         2.1170   -0.1320    1.8710 ca        1 ODE      0.131600
      4 OAZ         3.4350   -0.1610    2.2660 oh        1 ODE     -0.496600
      5 CAO         1.1570   -0.0950    2.8960 ca        1 ODE     -0.191500
      6 CAL        -0.1900   -0.0660    2.5570 ca        1 ODE     -0.071500
      7 CAF        -0.5940   -0.0820    1.2120 ca        1 ODE     -0.081800
      8 CAA        -2.0050   -0.0500    0.8970 ce        1 ODE     -0.059900
      9 CAC        -2.8800    1.1660    1.2300 c3        1 ODE      0.170800
     10 OBC        -4.1290    0.4940    1.6090 os        1 ODE     -0.407600
     11 CAD        -3.3590    1.8500   -0.0920 c3        1 ODE     -0.131200
     12 CAR        -2.2930    2.3330   -1.0240 c         1 ODE      0.652100
     13 OBD        -1.1310    1.9580   -1.1780 o         1 ODE     -0.524500
     14 OBA        -2.7320    3.4000   -1.7630 os        1 ODE     -0.446900
     15 CAJ        -1.8470    3.8610   -2.8000 c3        1 ODE      0.138400
     16 CAU        -2.5490    5.0160   -3.4720 c3        1 ODE     -0.100600
     17 CAK        -4.3190    0.7750   -0.6770 c3        1 ODE     -0.131200
     18 CAQ        -4.0360    0.3180   -2.0710 c         1 ODE      0.652100
     19 OAY        -3.1730    0.6970   -2.8630 o         1 ODE     -0.524500
     20 OBB        -4.9410   -0.6160   -2.5010 os        1 ODE     -0.446900
     21 CAS        -4.7770   -1.0970   -3.8490 c3        1 ODE      0.138400
     22 CAG        -5.7230   -2.2650   -3.9950 c3        1 ODE     -0.100600
     23 CAE        -4.2470   -0.3450    0.4140 c3        1 ODE      0.170800
     24 CAB        -2.8530   -0.9900    0.3820 cf        1 ODE     -0.059900
     25 CAH        -2.6360   -2.3500   -0.0390 ca        1 ODE     -0.081800
     26 CAM        -3.5870   -3.0100   -0.8340 ca        1 ODE     -0.071500
     27 CAW        -3.4020   -4.3330   -1.2200 ca        1 ODE     -0.191500
     28 CAT        -2.2500   -5.0160   -0.8060 ca        1 ODE      0.131600
     29 OBE        -1.9990   -6.3250   -1.1440 oh        1 ODE     -0.496600
     30 CAX        -1.2850   -4.3750   -0.0120 ca        1 ODE     -0.191500
     31 CAP        -1.4850   -3.0530    0.3610 ca        1 ODE     -0.071500
     32 HAI         0.0620   -0.0810   -0.8560 ha        1 ODE      0.150000
     33 HAN         2.4870   -0.1530   -0.2720 ha        1 ODE      0.143250
     34 HOAZ        3.9840   -0.1640    1.4680 ho        1 ODE      0.419500
     35 HAO         1.4820   -0.0880    3.9450 ha        1 ODE      0.143250
     36 HAL        -0.9510   -0.0350    3.3530 ha        1 ODE      0.150000
     37 HAC        -2.5450    1.8360    2.0420 h1        1 ODE      0.115700
     38 HAD        -3.9780    2.7460    0.1990 hc        1 ODE      0.102200
     39 HAJ1       -0.8770    4.1740   -2.3330 h1        1 ODE      0.056700
     40 HAJ2       -1.6610    3.0090   -3.5070 h1        1 ODE      0.056700
     41 HAU1       -1.8990    5.4080   -4.2910 hc        1 ODE      0.047033
     42 HAU2       -3.5220    4.6840   -3.9050 hc        1 ODE      0.047033
     43 HAU3       -2.7490    5.8340   -2.7400 hc        1 ODE      0.047033
     44 HAK        -5.3660    1.1880   -0.6800 hc        1 ODE      0.102200
     45 HAS1       -3.7090   -1.4010   -4.0040 h1        1 ODE      0.056700
     46 HAS2       -5.0290   -0.2600   -4.5500 h1        1 ODE      0.056700
     47 HAG1       -5.4470   -3.0810   -3.2830 hc        1 ODE      0.047033
     48 HAG2       -5.6610   -2.6530   -5.0390 hc        1 ODE      0.047033
     49 HAG3       -6.7720   -1.9510   -3.7820 hc        1 ODE      0.047033
     50 HAE        -5.1260   -1.0080    0.4980 h1        1 ODE      0.115700
     51 HAM        -4.4870   -2.4710   -1.1740 ha        1 ODE      0.150000
     52 HAW        -4.1530   -4.8370   -1.8450 ha        1 ODE      0.143250
     53 HOBE       -2.7400   -6.6430   -1.6810 ho        1 ODE      0.419500
     54 HAX        -0.3870   -4.9250    0.3020 ha        1 ODE      0.143250
     55 HAP        -0.7300   -2.5420    0.9820 ha        1 ODE      0.150000
@<TRIPOS>BOND
     1    1    2 ar  
     2    1    7 ar  
     3    1   32 1   
     4    2    3 ar  
     5    2   33 1   
     6    3    4 1   
     7    3    5 ar  
     8    4   34 1   
     9    5    6 ar  
    10    5   35 1   
    11    6    7 ar  
    12    6   36 1   
    13    7    8 1   
    14    8    9 1   
    15    8   24 2   
    16    9   10 1   
    17    9   11 1   
    18    9   37 1   
    19   10   23 1   
    20   11   12 1   
    21   11   17 1   
    22   11   38 1   
    23   12   13 2   
    24   12   14 1   
    25   14   15 1   
    26   15   16 1   
    27   15   39 1   
    28   15   40 1   
    29   16   41 1   
    30   16   42 1   
    31   16   43 1   
    32   17   18 1   
    33   17   23 1   
    34   17   44 1   
    35   18   19 2   
    36   18   20 1   
    37   20   21 1   
    38   21   22 1   
    39   21   45 1   
    40   21   46 1   
    41   22   47 1   
    42   22   48 1   
    43   22   49 1   
    44   23   24 1   
    45   23   50 1   
    46   24   25 1   
    47   25   26 ar  
    48   25   31 ar  
    49   26   27 ar  
    50   26   51 1   
    51   27   28 ar  
    52   27   52 1   
    53   28   29 1   
    54   28   30 ar  
    55   29   53 1   
    56   30   31 ar  
    57   30   54 1   
    58   31   55 1   
@<TRIPOS>SUBSTRUCTURE
     1 ODE         1 TEMP              0 ****  ****    0 ROOT
