@<TRIPOS>MOLECULE
ODE
   55    58     1     0     0
SMALL
bcc


@<TRIPOS>ATOM
      1 CAI         2.2950    0.8070   -1.0200 ca        1 ODE     -0.071500
      2 CAN         3.5490    1.0510   -1.5710 ca        1 ODE     -0.192000
      3 CAV         4.6490    1.2430   -0.7240 ca        1 ODE      0.131600
      4 OAZ         5.9190    1.4820   -1.1960 oh        1 ODE     -0.497100
      5 CAO         4.4980    1.1980    0.6720 ca        1 ODE     -0.192000
      6 CAL         3.2390    0.9570    1.2070 ca        1 ODE     -0.071500
      7 CAF         2.1290    0.7520    0.3710 ca        1 ODE     -0.081800
      8 CAA         0.8330    0.5040    0.9630 ce        1 ODE     -0.060400
      9 CAC         0.0960    1.5780    1.7740 c3        1 ODE      0.170800
     10 OBC        -0.5200    0.7440    2.8140 os        1 ODE     -0.407600
     11 CAD        -1.1990    2.0190    1.0160 c3        1 ODE     -0.131200
     12 CAR        -1.0160    2.5830   -0.3570 c         1 ODE      0.652600
     13 OBD        -0.1120    2.4270   -1.1760 o         1 ODE     -0.526000
     14 OBA        -2.0320    3.4470   -0.6730 os        1 ODE     -0.446400
     15 CAJ        -2.0500    3.9390   -2.0260 c3        1 ODE      0.138400
     16 CAU        -3.2490    4.8490   -2.1280 c3        1 ODE     -0.101100
     17 CAK        -2.0710    0.7340    1.0990 c3        1 ODE     -0.131200
     18 CAQ        -2.5680    0.1820   -0.1970 c         1 ODE      0.652600
     19 OAY        -2.4250    0.6160   -1.3410 o         1 ODE     -0.526000
     20 OBB        -3.3400   -0.9340   -0.0200 os        1 ODE     -0.446400
     21 CAS        -3.8960   -1.5280   -1.2090 c3        1 ODE      0.138400
     22 CAG        -4.4640   -2.8610   -0.7860 c3        1 ODE     -0.101100
     23 CAE        -1.1430   -0.2290    1.9140 c3        1 ODE      0.170800
     24 CAB         0.0610   -0.6200    1.0420 cf        1 ODE     -0.060400
     25 CAH         0.2610   -1.9590    0.5510 ca        1 ODE     -0.081800
     26 CAM        -0.8170   -2.8600    0.4760 ca        1 ODE     -0.071500
     27 CAW        -0.6350   -4.1620    0.0310 ca        1 ODE     -0.192000
     28 CAT         0.6510   -4.5840   -0.3460 ca        1 ODE      0.131600
     29 OBE         0.7710   -5.8850   -0.7750 oh        1 ODE     -0.497100
     30 CAX         1.7390   -3.7030   -0.2800 ca        1 ODE     -0.192000
     31 CAP         1.5370   -2.4000    0.1650 ca        1 ODE     -0.071500
     32 HAI         1.4170    0.6870   -1.6770 ha        1 ODE      0.150000
     33 HAN         3.6730    1.1010   -2.6620 ha        1 ODE      0.143500
     34 HOAZ        5.8740    1.5200   -2.1630 ho        1 ODE      0.420500
     35 HAO         5.3720    1.3550    1.3190 ha        1 ODE      0.143500
     36 HAL         3.1090    0.9220    2.3000 ha        1 ODE      0.150000
     37 HAC         0.6980    2.3810    2.2350 h1        1 ODE      0.116200
     38 HAD        -1.6960    2.8160    1.6390 hc        1 ODE      0.102200
     39 HAJ1       -1.0910    4.4850   -2.2230 h1        1 ODE      0.056700
     40 HAJ2       -2.1260    3.0580   -2.7170 h1        1 ODE      0.056700
     41 HAU1       -3.3080    5.2550   -3.1660 hc        1 ODE      0.047700
     42 HAU2       -4.1870    4.2880   -1.9010 hc        1 ODE      0.047700
     43 HAU3       -3.1630    5.6970   -1.4080 hc        1 ODE      0.047700
     44 HAK        -2.9790    0.9530    1.7270 hc        1 ODE      0.102200
     45 HAS1       -4.6860   -0.8380   -1.6040 h1        1 ODE      0.056700
     46 HAS2       -3.0870   -1.6430   -1.9770 h1        1 ODE      0.056700
     47 HAG1       -3.6530   -3.5270   -0.4030 hc        1 ODE      0.047700
     48 HAG2       -5.2230   -2.7280    0.0220 hc        1 ODE      0.047700
     49 HAG3       -4.9490   -3.3450   -1.6670 hc        1 ODE      0.047700
     50 HAE        -1.6450   -1.0220    2.4960 h1        1 ODE      0.116200
     51 HAM        -1.8300   -2.5240    0.7570 ha        1 ODE      0.150000
     52 HAW        -1.4780   -4.8650   -0.0310 ha        1 ODE      0.143500
     53 HOBE        1.7000   -6.0410   -0.9980 ho        1 ODE      0.420500
     54 HAX         2.7430   -4.0370   -0.5780 ha        1 ODE      0.143500
     55 HAP         2.3900   -1.7030    0.2150 ha        1 ODE      0.150000
@<TRIPOS>BOND
     1    1    2 ar  
     2    1    7 ar  
     3    1   32 1   
     4    2    3 ar  
     5    2   33 1   
     6    3    4 1   
     7    3    5 ar  
     8    4   34 1   
     9    5    6 ar  
    10    5   35 1   
    11    6    7 ar  
    12    6   36 1   
    13    7    8 1   
    14    8    9 1   
    15    8   24 2   
    16    9   10 1   
    17    9   11 1   
    18    9   37 1   
    19   10   23 1   
    20   11   12 1   
    21   11   17 1   
    22   11   38 1   
    23   12   13 2   
    24   12   14 1   
    25   14   15 1   
    26   15   16 1   
    27   15   39 1   
    28   15   40 1   
    29   16   41 1   
    30   16   42 1   
    31   16   43 1   
    32   17   18 1   
    33   17   23 1   
    34   17   44 1   
    35   18   19 2   
    36   18   20 1   
    37   20   21 1   
    38   21   22 1   
    39   21   45 1   
    40   21   46 1   
    41   22   47 1   
    42   22   48 1   
    43   22   49 1   
    44   23   24 1   
    45   23   50 1   
    46   24   25 1   
    47   25   26 ar  
    48   25   31 ar  
    49   26   27 ar  
    50   26   51 1   
    51   27   28 ar  
    52   27   52 1   
    53   28   29 1   
    54   28   30 ar  
    55   29   53 1   
    56   30   31 ar  
    57   30   54 1   
    58   31   55 1   
@<TRIPOS>SUBSTRUCTURE
     1 ODE         1 TEMP              0 ****  ****    0 ROOT
