@<TRIPOS>MOLECULE
ODE
   55    53     1     0     0
SMALL
bcc


@<TRIPOS>ATOM
      1 CAI         1.6810    1.7120   -1.6180 c1        1 ODE     -0.063000
      2 CAN         3.0350    1.8760   -1.6650 c1        1 ODE     -0.219000
      3 CAV         3.7760    2.2270   -0.4500 c1        1 ODE      0.087000
      4 OAZ         5.2440    2.3180   -0.4840 oh        1 ODE     -0.251000
      5 CAO         3.1100    2.3910    0.7290 c1        1 ODE     -0.119500
      6 CAL         1.7240    2.2240    0.7760 c1        1 ODE     -0.119500
      7 CAF         0.9990    1.8780   -0.4210 c1        1 ODE     -0.072000
      8 CAA        -0.5310    1.9420   -0.4190 c2        1 ODE     -0.043000
      9 CAC        -1.2530    1.6790   -1.5650 c3        1 ODE      0.055000
     10 OBC        -2.6850    1.9740   -0.9120 os        1 ODE     -0.263000
     11 CAD        -1.5200    0.3480   -1.8300 c3        1 ODE     -0.121000
     12 CAR        -0.0840   -0.4910   -1.9640 c2        1 ODE      0.329000
     13 OBD         0.3130   -1.1900   -1.0240 o         1 ODE     -0.354000
     14 OBA         0.6840   -0.4020   -3.1540 os        1 ODE     -0.275000
     15 CAJ         0.2160   -1.2120   -4.1950 c3        1 ODE     -0.007000
     16 CAU         0.6890   -0.6050   -5.5930 c3        1 ODE     -0.245000
     17 CAK        -2.2760   -0.1870   -0.7660 c3        1 ODE     -0.116000
     18 CAQ        -1.4410   -1.4970   -0.0720 c2        1 ODE      0.327000
     19 OAY        -0.2480   -1.5120   -0.0760 o         1 ODE     -0.344000
     20 OBB        -2.1650   -2.6410    0.3820 os        1 ODE     -0.280000
     21 CAS        -1.8010   -3.0760    1.7400 c3        1 ODE     -0.010000
     22 CAG        -3.0930   -3.0900    2.6540 c3        1 ODE     -0.219000
     23 CAE        -2.4680    0.7930    0.1740 c3        1 ODE      0.055000
     24 CAB        -1.3270    1.3420    0.7350 c2        1 ODE     -0.096000
     25 CAH        -0.6010    0.6190    1.8840 c2        1 ODE     -0.076000
     26 CAM        -1.1120    0.7010    3.2020 c2        1 ODE     -0.083000
     27 CAW        -0.3720    0.1640    4.2800 c1        1 ODE     -0.164000
     28 CAT         0.8570   -0.4430    4.0470 c1        1 ODE      0.087000
     29 OBE         1.5540   -0.9990    5.0850 oh        1 ODE     -0.251000
     30 CAX         1.3590   -0.5230    2.7500 c1        1 ODE     -0.219000
     31 CAP         0.6120    0.0200    1.6560 c1        1 ODE     -0.064000
     32 HAI         1.2100    1.4870   -2.3990 ha        1 ODE      0.157000
     33 HAN         3.4910    1.7640   -2.4740 ha        1 ODE      0.136500
     34 HOAZ        5.4950    3.1620   -0.7690 ho        1 ODE      0.219000
     35 HAO         3.6420    2.6450    1.6080 ha        1 ODE      0.149000
     36 HAL         1.2570    2.3390    1.5960 ha        1 ODE      0.149000
     37 HAC        -1.0500    2.2440   -2.3490 h1        1 ODE      0.156000
     38 HAD        -2.0090    0.2760   -2.6390 hc        1 ODE      0.139000
     39 HAJ1       -0.8170   -1.2500   -4.1630 h1        1 ODE      0.106500
     40 HAJ2        0.5670   -2.0850   -4.0960 h1        1 ODE      0.106500
     41 HAU1        1.6770   -0.5850   -5.6250 hc        1 ODE      0.088000
     42 HAU2        0.3440    0.2990   -5.6880 hc        1 ODE      0.088000
     43 HAU3        0.3360   -1.1840   -6.3540 hc        1 ODE      0.088000
     44 HAK        -3.1860   -0.5060   -1.1180 hc        1 ODE      0.142000
     45 HAS1       -1.4310   -3.9480    1.7050 h1        1 ODE      0.090500
     46 HAS2       -1.1610   -2.4740    2.1040 h1        1 ODE      0.090500
     47 HAG1       -3.6230   -3.9490    2.4820 hc        1 ODE      0.087333
     48 HAG2       -3.7030   -2.2410    2.4250 hc        1 ODE      0.087333
     49 HAG3       -2.8540   -3.0600    3.4960 hc        1 ODE      0.087333
     50 HAE        -3.2870    0.6580    0.8280 h1        1 ODE      0.155000
     51 HAM        -2.0950    1.1860    3.3880 ha        1 ODE      0.140000
     52 HAW        -0.7560    0.2260    5.2750 ha        1 ODE      0.152000
     53 HOBE        1.9030   -0.3670    5.5710 ho        1 ODE      0.219000
     54 HAX         2.1980   -0.9370    2.5910 ha        1 ODE      0.136500
     55 HAP         0.9760   -0.0370    0.7180 ha        1 ODE      0.163000
@<TRIPOS>BOND
     1    1    7 1   
     2    1   32 1   
     3    2    3 1   
     4    2   33 1   
     5    3    4 1   
     6    4   34 1   
     7    5    6 1   
     8    5   35 1   
     9    6   36 1   
    10    7    8 1   
    11    8    9 1   
    12    8   24 1   
    13    9   10 1   
    14    9   11 1   
    15    9   37 1   
    16   10   23 1   
    17   11   12 1   
    18   11   17 1   
    19   11   38 1   
    20   12   13 1   
    21   12   14 1   
    22   14   15 1   
    23   15   16 1   
    24   15   39 1   
    25   15   40 1   
    26   16   41 1   
    27   16   42 1   
    28   16   43 1   
    29   17   18 1   
    30   17   23 1   
    31   17   44 1   
    32   18   19 1   
    33   18   20 1   
    34   20   21 1   
    35   21   22 1   
    36   21   45 1   
    37   21   46 1   
    38   22   47 1   
    39   22   48 1   
    40   22   49 1   
    41   23   24 1   
    42   23   50 1   
    43   24   25 1   
    44   25   26 1   
    45   25   31 1   
    46   26   27 1   
    47   26   51 1   
    48   27   52 1   
    49   28   29 1   
    50   28   30 1   
    51   29   53 1   
    52   30   54 1   
    53   31   55 1   
@<TRIPOS>SUBSTRUCTURE
     1 ODE         1 TEMP              0 ****  ****    0 ROOT
