@<TRIPOS>MOLECULE
ODH
   30    32     1     0     0
SMALL
bcc


@<TRIPOS>ATOM
      1 C           0.6100    1.0530   -0.3960 c         1 ODH      0.666700
      2 N          -4.2960    1.0690   -0.2550 nb        1 ODH     -0.611000
      3 O           4.0990   -0.8040    0.8080 os        1 ODH     -0.373800
      4 C1         -0.6790    0.3240   -0.1980 ca        1 ODH     -0.136600
      5 N1         -4.3090   -1.7350    0.3190 nb        1 ODH     -0.623000
      6 O1          0.7490    1.8940   -1.3060 o         1 ODH     -0.591100
      7 C2         -1.8590    1.0270   -0.3210 ca        1 ODH     -0.097300
      8 N2          1.6150    0.8120    0.5260 n         1 ODH     -0.552900
      9 C3         -3.1070    0.3590   -0.1450 ca        1 ODH      0.272300
     10 C4         -5.4120    0.3890   -0.0840 ca        1 ODH      0.293900
     11 C5         -5.4180   -1.0320    0.2070 ca        1 ODH      0.302900
     12 C6         -3.1130   -1.0510    0.1430 ca        1 ODH      0.296300
     13 C7         -1.8690   -1.7410    0.2420 ca        1 ODH     -0.160300
     14 C8         -0.6860   -1.0650    0.0770 ca        1 ODH     -0.107000
     15 C9          2.9490    1.3140    0.3390 c3        1 ODH      0.056700
     16 C10         3.9460    0.2870   -0.0600 cc        1 ODH      0.201000
     17 C11         5.0990   -1.6060    0.2600 cc        1 ODH      0.242600
     18 C12         5.5690   -1.0500   -0.9120 cd        1 ODH     -0.263300
     19 C13         4.8220    0.1710   -1.1210 cd        1 ODH     -0.232300
     20 H2         -1.8430    2.1040   -0.5620 ha        1 ODH      0.174000
     21 HN2         1.5170    0.0420    1.1460 hn        1 ODH      0.314500
     22 H4         -6.3640    0.9410   -0.1680 h4        1 ODH      0.037100
     23 H5         -6.3760   -1.5640    0.3430 h4        1 ODH      0.036100
     24 H7         -1.8730   -2.8240    0.4500 ha        1 ODH      0.157000
     25 H8          0.2680   -1.6120    0.1410 ha        1 ODH      0.143000
     26 H9          2.9380    2.1220   -0.4510 h1        1 ODH      0.084700
     27 H9A         3.2850    1.7680    1.3190 h1        1 ODH      0.084700
     28 H11         5.3240   -2.4990    0.8360 h4        1 ODH      0.053100
     29 H12         6.3450   -1.4370   -1.5670 ha        1 ODH      0.164000
     30 H13         4.9380    0.8520   -1.9600 ha        1 ODH      0.168000
@<TRIPOS>BOND
     1    1    4 1   
     2    1    6 2   
     3    1    8 1   
     4    2    9 ar  
     5    2   10 ar  
     6    3   16 1   
     7    3   17 1   
     8    4    7 ar  
     9    4   14 ar  
    10    5   11 ar  
    11    5   12 ar  
    12    7    9 ar  
    13    7   20 1   
    14    8   15 1   
    15    8   21 1   
    16    9   12 ar  
    17   10   11 ar  
    18   10   22 1   
    19   11   23 1   
    20   12   13 ar  
    21   13   14 ar  
    22   13   24 1   
    23   14   25 1   
    24   15   16 1   
    25   15   26 1   
    26   15   27 1   
    27   16   19 2   
    28   17   18 2   
    29   17   28 1   
    30   18   19 1   
    31   18   29 1   
    32   19   30 1   
@<TRIPOS>SUBSTRUCTURE
     1 ODH         1 TEMP              0 ****  ****    0 ROOT
