@<TRIPOS>MOLECULE
ODH
   30    24     1     0     0
SMALL
bcc


@<TRIPOS>ATOM
      1 C          -0.2520   -0.1620   -0.5300 c1        1 ODH      0.340000
      2 N           4.5060   -0.1230   -0.4940 n1        1 ODH     -0.091000
      3 O          -3.6180    1.2070   -1.4970 os        1 ODH     -0.097000
      4 C1          0.9470   -0.1070    0.3910 c1        1 ODH     -0.118000
      5 N1          4.6670    0.0530    2.2320 n1        1 ODH     -0.091000
      6 O1         -0.0910   -0.2420   -1.7320 o         1 ODH     -0.347000
      7 C2          2.1070   -0.1430   -0.3730 c1        1 ODH     -0.034000
      8 N2         -1.5630   -0.1390    0.0100 n3        1 ODH     -0.361000
      9 C3          3.3670   -0.0890    0.2550 c1        1 ODH     -0.056000
     10 C4          5.7070   -0.0700    0.1060 c1        1 ODH     -0.102000
     11 C5          5.7890    0.0190    1.4930 c1        1 ODH     -0.102000
     12 C6          3.4480   -0.0010    1.6240 c1        1 ODH     -0.032000
     13 C7          2.2710    0.0360    2.3980 c2        1 ODH     -0.097000
     14 C8          1.0290   -0.0180    1.7770 c2        1 ODH     -0.104000
     15 C9         -2.5820   -0.9510   -0.5610 c3        1 ODH      0.033000
     16 C10        -3.7260   -0.0740   -1.0220 c2        1 ODH     -0.088000
     17 C11        -4.8680    1.6300   -1.8670 c1        1 ODH     -0.087000
     18 C12        -5.7560    0.6040   -1.6180 c1        1 ODH     -0.201000
     19 C13        -5.0530   -0.4460   -1.0980 c1        1 ODH     -0.179000
     20 H2          2.0490   -0.2240   -1.3450 ha        1 ODH      0.175000
     21 HN2        -1.7450    0.3720    0.7440 hn        1 ODH      0.224000
     22 H4          6.5220   -0.0940   -0.4300 ha        1 ODH      0.173500
     23 H5          6.6620    0.0570    1.9280 ha        1 ODH      0.173500
     24 H7          2.3280    0.0980    3.3700 ha        1 ODH      0.157000
     25 H8          0.2140    0.0180    2.3130 ha        1 ODH      0.146000
     26 H9         -2.2180   -1.4420   -1.3270 h1        1 ODH      0.123500
     27 H9A        -2.9080   -1.5870    0.1090 h1        1 ODH      0.123500
     28 H11        -5.0910    2.5040   -2.2400 DU        1 ODH      0.172667
     29 H12        -6.7180    0.6240   -1.7850 DU        1 ODH      0.172667
     30 H13        -5.4240   -1.3080   -0.8280 DU        1 ODH      0.172667
@<TRIPOS>BOND
     1    1    6 1   
     2    1    8 1   
     3    2   10 1   
     4    3   16 1   
     5    3   17 1   
     6    4    7 1   
     7    4   14 1   
     8    5   11 1   
     9    7   20 1   
    10    8   15 1   
    11    8   21 1   
    12    9   12 1   
    13   10   22 1   
    14   11   23 1   
    15   12   13 1   
    16   13   14 1   
    17   13   24 1   
    18   14   25 1   
    19   15   16 1   
    20   15   26 1   
    21   15   27 1   
    22   16   19 1   
    23   17   18 1   
    24   18   19 1   
@<TRIPOS>SUBSTRUCTURE
     1 ODH         1 TEMP              0 ****  ****    0 ROOT
