@<TRIPOS>MOLECULE
ODH
   31    32     1     0     0
SMALL
bcc


@<TRIPOS>ATOM
      1 C           0.5830   -0.6170   -1.0040 c1        1 ODH      0.796600
      2 N           5.0010    0.5120    0.6150 nb        1 ODH     -0.596000
      3 O          -2.9320    1.3670    2.4930 os        1 ODH     -0.385800
      4 C1          1.4940   -0.5190    0.0480 cc        1 ODH     -0.236100
      5 N1          4.2090   -0.3070    3.2460 nb        1 ODH     -0.095000
      6 O1         -0.1040   -0.7630   -1.9280 o         1 ODH     -0.166500
      7 C2          2.7840   -0.0400   -0.2030 cc        1 ODH      0.056000
      8 N2         -1.2440    0.8030    0.1470 n3        1 ODH     -0.958800
      9 C3          3.7120    0.0380    0.8630 ca        1 ODH      0.176000
     10 C4          5.8210    0.5610    1.6410 ca        1 ODH      0.322900
     11 C5          5.4180    0.1440    2.9800 ca        1 ODH      0.105900
     12 C6          3.3140   -0.3730    2.1850 ca        1 ODH      0.152800
     13 C7          1.9850   -0.8520    2.3980 cd        1 ODH     -0.187800
     14 C8          1.0940   -0.9200    1.3590 cc        1 ODH     -0.059000
     15 C9         -2.4950    0.1250    0.4310 c3        1 ODH      0.121500
     16 C10        -3.4490    0.8660    1.2860 cc        1 ODH      0.157000
     17 C11        -3.9970    1.9890    3.1460 cc        1 ODH      0.265600
     18 C12        -5.1470    1.8870    2.3910 cd        1 ODH     -0.256300
     19 C13        -4.7930    1.1630    1.1890 cd        1 ODH     -0.204300
     20 H2          3.0930    0.2770   -1.2170 ha        1 ODH      0.186000
     21 HN2        -1.4130    1.6110   -0.4250 hn        1 ODH      0.370300
     22 H4          6.8480    0.9340    1.4620 h4        1 ODH      0.071100
     23 H5          6.1400    0.2000    3.8200 h4        1 ODH      0.071100
     24 H7          1.6830   -1.1650    3.4160 ha        1 ODH      0.197000
     25 H8          0.0660   -1.2850    1.5260 ha        1 ODH      0.175000
     26 H9         -3.0100   -0.1140   -0.5440 h1        1 ODH      0.069700
     27 H9A        -2.2440   -0.8510    0.9450 h1        1 ODH      0.069700
     28 H11        -3.7370    2.4310    4.1050 h4        1 ODH      0.064100
     29 H12        -6.1370    2.2680    2.6320 ha        1 ODH      0.179000
     30 H13        -5.4740    0.9120    0.3790 ha        1 ODH      0.172000
     31 H22        -0.8240    1.1160    1.0060 hn        1 ODH      0.370300
@<TRIPOS>BOND
     1    1    4 2   
     2    1    6 2   
     3    2    9 ar  
     4    2   10 ar  
     5    3   16 1   
     6    3   17 1   
     7    4    7 1   
     8    4   14 1   
     9    5   11 ar  
    10    5   12 ar  
    11    7    9 2   
    12    7   20 1   
    13    8   15 1   
    14    8   21 1   
    15    8   31 1   
    16    9   12 ar  
    17   10   11 ar  
    18   10   22 1   
    19   11   23 1   
    20   12   13 1   
    21   13   14 2   
    22   13   24 1   
    23   14   25 1   
    24   15   16 1   
    25   15   26 1   
    26   15   27 1   
    27   16   19 2   
    28   17   18 2   
    29   17   28 1   
    30   18   19 1   
    31   18   29 1   
    32   19   30 1   
@<TRIPOS>SUBSTRUCTURE
     1 ODH         1 TEMP              0 ****  ****    0 ROOT
