@<TRIPOS>MOLECULE
ODH
   31    32     1     0     0
SMALL
bcc


@<TRIPOS>ATOM
      1 C           0.6060   -0.5250   -1.0370 c1        1 ODH      0.796600
      2 N           5.0100    0.5070    0.6810 nb        1 ODH     -0.596000
      3 O          -2.9410    1.3390    2.4940 os        1 ODH     -0.385800
      4 C1          1.5040   -0.4770    0.0290 cc        1 ODH     -0.236100
      5 N1          4.1800   -0.4120    3.2670 nb        1 ODH     -0.095000
      6 O1         -0.0700   -0.6300   -1.9740 o         1 ODH     -0.166500
      7 C2          2.8000    0.0040   -0.1860 cc        1 ODH      0.056000
      8 N2         -1.2270    0.8590    0.1480 n8        1 ODH     -0.958800
      9 C3          3.7150    0.0320    0.8930 ca        1 ODH      0.176000
     10 C4          5.8170    0.5090    1.7180 ca        1 ODH      0.322900
     11 C5          5.3960    0.0400    3.0340 ca        1 ODH      0.105900
     12 C6          3.2980   -0.4300    2.1930 ca        1 ODH      0.152800
     13 C7          1.9630   -0.9070    2.3700 cd        1 ODH     -0.187800
     14 C8          1.0850   -0.9270    1.3180 cc        1 ODH     -0.059000
     15 C9         -2.4850    0.1790    0.3890 c3        1 ODH      0.121500
     16 C10        -3.4460    0.8910    1.2610 cc        1 ODH      0.157000
     17 C11        -4.0100    1.9410    3.1580 cc        1 ODH      0.265600
     18 C12        -5.1510    1.8790    2.3850 cd        1 ODH     -0.256300
     19 C13        -4.7860    1.2020    1.1590 cd        1 ODH     -0.204300
     20 H2          3.1240    0.3590   -1.1830 ha        1 ODH      0.186000
     21 HN2        -1.3830    1.6910   -0.3930 hn        1 ODH      0.370300
     22 H4          6.8490    0.8820    1.5670 h4        1 ODH      0.071100
     23 H5          6.1070    0.0570    3.8840 h4        1 ODH      0.071100
     24 H7          1.6470   -1.2600    3.3700 ha        1 ODH      0.197000
     25 H8          0.0530   -1.2920    1.4580 ha        1 ODH      0.175000
     26 H9         -2.9890   -0.0160   -0.6020 h1        1 ODH      0.069700
     27 H9A        -2.2470   -0.8190    0.8650 h1        1 ODH      0.069700
     28 H11        -3.7600    2.3410    4.1380 h4        1 ODH      0.064100
     29 H12        -6.1410    2.2570    2.6290 ha        1 ODH      0.179000
     30 H13        -5.4580    0.9900    0.3300 ha        1 ODH      0.172000
     31 H22        -0.8160    1.1340    1.0240 hn        1 ODH      0.370300
@<TRIPOS>BOND
     1    1    4 2   
     2    1    6 2   
     3    2    9 ar  
     4    2   10 ar  
     5    3   16 1   
     6    3   17 1   
     7    4    7 1   
     8    4   14 1   
     9    5   11 ar  
    10    5   12 ar  
    11    7    9 2   
    12    7   20 1   
    13    8   15 1   
    14    8   21 1   
    15    8   31 1   
    16    9   12 ar  
    17   10   11 ar  
    18   10   22 1   
    19   11   23 1   
    20   12   13 1   
    21   13   14 2   
    22   13   24 1   
    23   14   25 1   
    24   15   16 1   
    25   15   26 1   
    26   15   27 1   
    27   16   19 2   
    28   17   18 2   
    29   17   28 1   
    30   18   19 1   
    31   18   29 1   
    32   19   30 1   
@<TRIPOS>SUBSTRUCTURE
     1 ODH         1 TEMP              0 ****  ****    0 ROOT
