@<TRIPOS>MOLECULE
ODI
   28    27     1     0     0
SMALL
bcc


@<TRIPOS>ATOM
      1 OAA         5.4910   -0.3330   -0.0000 oh        1 ODI     -0.601800
      2 CAC         4.3570    0.5210    0.0000 c3        1 ODI      0.131400
      3 CAE         3.1270   -0.3710   -0.0000 c3        1 ODI     -0.084400
      4 CAG         1.8650    0.4630   -0.0000 c3        1 ODI     -0.078400
      5 CAI         0.6320   -0.4160    0.0000 c3        1 ODI     -0.078400
      6 CAJ        -0.6320    0.4160    0.0000 c3        1 ODI     -0.078400
      7 CAH        -1.8650   -0.4630    0.0000 c3        1 ODI     -0.078400
      8 CAF        -3.1270    0.3710    0.0000 c3        1 ODI     -0.084400
      9 CAD        -4.3570   -0.5210   -0.0000 c3        1 ODI      0.131400
     10 OAB        -5.4910    0.3330    0.0000 oh        1 ODI     -0.601800
     11 HAA         6.2660    0.2400    0.0000 ho        1 ODI      0.399000
     12 HAC1        4.3710    1.1750    0.9130 h1        1 ODI      0.019700
     13 HAC2        4.3710    1.1750   -0.9130 h1        1 ODI      0.019700
     14 HAE1        3.1540   -1.0360   -0.9020 hc        1 ODI      0.055700
     15 HAE2        3.1540   -1.0360    0.9020 hc        1 ODI      0.055700
     16 HAG1        1.8520    1.1290    0.9030 hc        1 ODI      0.039700
     17 HAG2        1.8520    1.1290   -0.9030 hc        1 ODI      0.039700
     18 HAI1        0.6460   -1.0820   -0.9030 hc        1 ODI      0.041700
     19 HAI2        0.6460   -1.0820    0.9030 hc        1 ODI      0.041700
     20 HAJ1       -0.6460    1.0820    0.9030 hc        1 ODI      0.041700
     21 HAJ2       -0.6460    1.0820   -0.9030 hc        1 ODI      0.041700
     22 HAH1       -1.8520   -1.1290   -0.9030 hc        1 ODI      0.039700
     23 HAH2       -1.8520   -1.1290    0.9030 hc        1 ODI      0.039700
     24 HAF1       -3.1540    1.0360    0.9020 hc        1 ODI      0.055700
     25 HAF2       -3.1540    1.0360   -0.9020 hc        1 ODI      0.055700
     26 HAD1       -4.3710   -1.1750   -0.9130 h1        1 ODI      0.019700
     27 HAD2       -4.3710   -1.1750    0.9130 h1        1 ODI      0.019700
     28 HAB        -6.2660   -0.2400   -0.0000 ho        1 ODI      0.399000
@<TRIPOS>BOND
     1    1    2 1   
     2    1   11 1   
     3    2    3 1   
     4    2   12 1   
     5    2   13 1   
     6    3    4 1   
     7    3   14 1   
     8    3   15 1   
     9    4    5 1   
    10    4   16 1   
    11    4   17 1   
    12    5    6 1   
    13    5   18 1   
    14    5   19 1   
    15    6    7 1   
    16    6   20 1   
    17    6   21 1   
    18    7    8 1   
    19    7   22 1   
    20    7   23 1   
    21    8    9 1   
    22    8   24 1   
    23    8   25 1   
    24    9   10 1   
    25    9   26 1   
    26    9   27 1   
    27   10   28 1   
@<TRIPOS>SUBSTRUCTURE
     1 ODI         1 TEMP              0 ****  ****    0 ROOT
