@<TRIPOS>MOLECULE
ODI
   28    27     1     0     0
SMALL
bcc


@<TRIPOS>ATOM
      1 OAA        -4.6880   -0.0180   -2.8530 oh        1 ODI     -0.601800
      2 CAC        -3.2780   -0.0180   -2.8530 c3        1 ODI      0.131400
      3 CAE        -2.7730   -0.0180   -1.4260 c3        1 ODI     -0.084400
      4 CAG        -1.2610   -0.0110   -1.4260 c3        1 ODI     -0.078400
      5 CAI        -0.7560   -0.0120   -0.0000 c3        1 ODI     -0.078400
      6 CAJ         0.7560    0.0040    0.0000 c3        1 ODI     -0.078400
      7 CAH         1.2610   -0.0010    1.4260 c3        1 ODI     -0.078400
      8 CAF         2.7730    0.0240    1.4260 c3        1 ODI     -0.084400
      9 CAD         3.2780    0.0190    2.8530 c3        1 ODI      0.131400
     10 OAB         4.6880    0.0530    2.8530 oh        1 ODI     -0.601800
     11 HAA        -4.9840   -0.0190   -3.6900 ho        1 ODI      0.399000
     12 HAC1       -2.9520    0.7790   -3.3130 h1        1 ODI      0.019700
     13 HAC2       -2.9520   -0.8150   -3.3130 h1        1 ODI      0.019700
     14 HAE1       -3.1030    0.7760   -0.9650 hc        1 ODI      0.055700
     15 HAE2       -3.0950   -0.8180   -0.9680 hc        1 ODI      0.055700
     16 HAG1       -0.9390    0.7890   -1.8840 hc        1 ODI      0.039700
     17 HAG2       -0.9310   -0.8050   -1.8890 hc        1 ODI      0.039700
     18 HAI1       -1.0900    0.7790    0.4640 hc        1 ODI      0.041700
     19 HAI2       -1.0730   -0.8150    0.4560 hc        1 ODI      0.041700
     20 HAJ1        1.0900   -0.7870   -0.4650 hc        1 ODI      0.041700
     21 HAJ2        1.0740    0.8070   -0.4550 hc        1 ODI      0.041700
     22 HAH1        0.9480   -0.8070    1.8800 hc        1 ODI      0.039700
     23 HAH2        0.9230    0.7870    1.8930 hc        1 ODI      0.039700
     24 HAF1        3.0860    0.8300    0.9730 hc        1 ODI      0.055700
     25 HAF2        3.1120   -0.7640    0.9590 hc        1 ODI      0.055700
     26 HAD1        2.9710   -0.7900    3.3040 h1        1 ODI      0.019700
     27 HAD2        2.9340    0.8030    3.3220 h1        1 ODI      0.019700
     28 HAB         4.9840    0.0490    3.6900 ho        1 ODI      0.399000
@<TRIPOS>BOND
     1    1    2 1   
     2    1   11 1   
     3    2    3 1   
     4    2   12 1   
     5    2   13 1   
     6    3    4 1   
     7    3   14 1   
     8    3   15 1   
     9    4    5 1   
    10    4   16 1   
    11    4   17 1   
    12    5    6 1   
    13    5   18 1   
    14    5   19 1   
    15    6    7 1   
    16    6   20 1   
    17    6   21 1   
    18    7    8 1   
    19    7   22 1   
    20    7   23 1   
    21    8    9 1   
    22    8   24 1   
    23    8   25 1   
    24    9   10 1   
    25    9   26 1   
    26    9   27 1   
    27   10   28 1   
@<TRIPOS>SUBSTRUCTURE
     1 ODI         1 TEMP              0 ****  ****    0 ROOT
