@<TRIPOS>MOLECULE
ODK
   20    21     1     0     0
SMALL
bcc


@<TRIPOS>ATOM
      1 C12         0.0030    0.0410   -0.0120 ca        1 ODK     -0.244300
      2 C14         1.3950    0.0450   -0.0300 ca        1 ODK     -0.103000
      3 C13         2.0940    0.0130    1.1770 ca        1 ODK     -0.283300
      4 C11         1.3440   -0.0220    2.3660 ca        1 ODK      0.394200
      5 N8          0.0030   -0.0270    2.4170 nb        1 ODK     -0.666000
      6 C7         -0.6760    0.0040    1.2350 ca        1 ODK      0.433300
      7 C4         -2.1340   -0.0010    1.2710 cc        1 ODK      0.181300
      8 C2         -2.9650   -0.0360    2.4550 cc        1 ODK     -0.245300
      9 C1         -4.2870   -0.0260    1.9760 cd        1 ODK     -0.140900
     10 C6         -5.6380   -0.0490    2.6720 c         1 ODK      0.936200
     11 O10        -5.6470   -0.0840    3.9280 o         1 ODK     -0.816300
     12 O9         -6.6590   -0.0310    1.9280 o         1 ODK     -0.816300
     13 N5         -4.1780    0.0130    0.5790 na        1 ODK      0.019400
     14 N3         -2.9310    0.0290    0.1430 nd        1 ODK     -0.557800
     15 H12        -0.5660    0.0650   -0.9500 ha        1 ODK      0.155000
     16 H14         1.9370    0.0730   -0.9860 ha        1 ODK      0.120000
     17 H13         3.1890    0.0150    1.2060 ha        1 ODK      0.125000
     18 H11         1.8500   -0.0480    3.3480 h4        1 ODK      0.006100
     19 H2         -2.6390   -0.0630    3.4880 ha        1 ODK      0.175000
     20 HN5        -4.9540    0.0290   -0.0450 hn        1 ODK      0.326700
@<TRIPOS>BOND
     1    1    2 ar  
     2    1    6 ar  
     3    1   15 1   
     4    2    3 ar  
     5    2   16 1   
     6    3    4 ar  
     7    3   17 1   
     8    4    5 ar  
     9    4   18 1   
    10    5    6 ar  
    11    6    7 1   
    12    7    8 1   
    13    7   14 2   
    14    8    9 2   
    15    8   19 1   
    16    9   10 1   
    17    9   13 1   
    18   10   11 1   
    19   10   12 1   
    20   13   14 1   
    21   13   20 1   
@<TRIPOS>SUBSTRUCTURE
     1 ODK         1 TEMP              0 ****  ****    0 ROOT
