@<TRIPOS>MOLECULE
ODK
   20    14     1     0     0
SMALL
bcc


@<TRIPOS>ATOM
      1 C12         1.4920    1.2240   -0.1090 c1        1 ODK     -0.124500
      2 C14         2.8550    1.2800   -0.1340 c1        1 ODK     -0.101000
      3 C13         3.5800    0.1370   -0.3120 c1        1 ODK     -0.101000
      4 C11         2.9320   -1.0770   -0.4690 c1        1 ODK      0.308300
      5 N8          1.5700   -1.1310   -0.4450 n1        1 ODK     -0.455800
      6 C7          0.8450    0.0090   -0.2660 c1        1 ODK      0.104000
      7 C4         -0.5390   -0.0400   -0.2950 c1        1 ODK      0.104400
      8 C2         -1.3510   -0.4020    0.7400 c1        1 ODK     -0.220000
      9 C1         -2.6450   -0.2950    0.3180 c1        1 ODK      0.104400
     10 C6         -3.8760   -0.6400    1.1270 c1        1 ODK      0.852000
     11 O10        -4.4050   -1.7760    1.0140 o         1 ODK     -0.784000
     12 O9         -4.3740    0.2120    1.9090 o         1 ODK     -0.784000
     13 N5         -2.6310    0.1290   -0.9630 ne        1 ODK     -0.326900
     14 N3         -1.3230    0.2870   -1.3440 ne        1 ODK     -0.326900
     15 H12         0.9720    2.0430    0.0020 ha        1 ODK      0.094500
     16 H14         3.3120    2.1300    0.0120 ha        1 ODK      0.066500
     17 H13         4.5560    0.1760   -0.3300 ha        1 ODK      0.066500
     18 H11         3.4500   -1.8930   -0.6050 ha        1 ODK      0.084500
     19 H2         -1.0590   -0.6550    1.6370 DU        1 ODK      0.219000
     20 HN5        -3.3630    0.2830   -1.4850 DU        1 ODK      0.219000
@<TRIPOS>BOND
     1    1    6 3   
     2    1   15 1   
     3    2    3 3   
     4    2   16 1   
     5    3   17 1   
     6    4    5 3   
     7    4   18 1   
     8    7    8 2   
     9    7   14 2   
    10    8    9 2   
    11    9   13 2   
    12   10   11 2   
    13   10   12 2   
    14   13   14 1   
@<TRIPOS>SUBSTRUCTURE
     1 ODK         1 TEMP              0 ****  ****    0 ROOT
