@<TRIPOS>MOLECULE
ODK
   20    21     1     0     0
SMALL
bcc


@<TRIPOS>ATOM
      1 C12         2.5710    1.1400   -0.0000 ca        1 ODK     -0.244300
      2 C14         3.9400    0.8860    0.0000 ca        1 ODK     -0.103000
      3 C13         4.3890   -0.4350    0.0000 ca        1 ODK     -0.283300
      4 C11         3.4210   -1.4550    0.0000 ca        1 ODK      0.394200
      5 N8          2.0960   -1.2420   -0.0000 nb        1 ODK     -0.666000
      6 C7          1.6610    0.0500   -0.0000 ca        1 ODK      0.433300
      7 C4          0.2250    0.2990   -0.0000 cc        1 ODK      0.181300
      8 C2         -0.8230   -0.7000   -0.0000 cc        1 ODK     -0.245300
      9 C1         -2.0260    0.0280   -0.0000 cd        1 ODK     -0.140900
     10 C6         -3.4860   -0.3910   -0.0000 c         1 ODK      0.936200
     11 O10        -3.7400   -1.6220   -0.0000 o         1 ODK     -0.816300
     12 O9         -4.3430    0.5390   -0.0010 o         1 ODK     -0.816300
     13 N5         -1.6450    1.3780   -0.0000 na        1 ODK      0.019400
     14 N3         -0.3380    1.5610   -0.0000 nd        1 ODK     -0.557800
     15 H12         2.1960    2.1720   -0.0000 ha        1 ODK      0.155000
     16 H14         4.6580    1.7190    0.0000 ha        1 ODK      0.120000
     17 H13         5.4570   -0.6760    0.0000 ha        1 ODK      0.125000
     18 H11         3.7250   -2.5170    0.0000 h4        1 ODK      0.006100
     19 H2         -0.7050   -1.7770   -0.0000 ha        1 ODK      0.175000
     20 HN5        -2.2840    2.1410   -0.0010 hn        1 ODK      0.326700
@<TRIPOS>BOND
     1    1    2 ar  
     2    1    6 ar  
     3    1   15 1   
     4    2    3 ar  
     5    2   16 1   
     6    3    4 ar  
     7    3   17 1   
     8    4    5 ar  
     9    4   18 1   
    10    5    6 ar  
    11    6    7 1   
    12    7    8 1   
    13    7   14 2   
    14    8    9 2   
    15    8   19 1   
    16    9   10 1   
    17    9   13 1   
    18   10   11 1   
    19   10   12 1   
    20   13   14 1   
    21   13   20 1   
@<TRIPOS>SUBSTRUCTURE
     1 ODK         1 TEMP              0 ****  ****    0 ROOT
