@<TRIPOS>MOLECULE
ODN
   56    60     1     0     0
SMALL
bcc


@<TRIPOS>ATOM
      1 O3         -0.0220    0.3900    0.0520 o         1 ODN     -0.504100
      2 C17         1.1830    0.1670    0.0230 c         1 ODN      0.600100
      3 C10         2.1490    0.1500    1.2080 c3        1 ODN     -0.189000
      4 C18         1.8030    1.0700    2.3930 c3        1 ODN      0.344600
      5 O4          1.5890    2.4110    2.0700 oh        1 ODN     -0.584800
      6 O1          2.9410    1.1200    3.2660 os        1 ODN     -0.448600
      7 C8          3.3190   -0.1830    3.7230 c3        1 ODN      0.144400
      8 C19         0.5850    0.5800    3.2240 c3        1 ODN      0.147100
      9 O5         -0.6180    0.5060    2.4890 oh        1 ODN     -0.594800
     10 C6          0.8790   -0.8350    3.7570 c3        1 ODN     -0.057700
     11 C3          0.5650   -0.9700    5.2560 c3        1 ODN     -0.039000
     12 C5         -0.9470   -0.8020    5.4250 c3        1 ODN     -0.093600
     13 C4          1.2660    0.0480    6.1480 c3        1 ODN     -0.093600
     14 C2          0.9260   -2.3900    5.6990 c3        1 ODN     -0.070400
     15 C1          2.3550   -2.7460    5.3780 c3        1 ODN     -0.113400
     16 C13         1.9830   -0.1020   -1.2440 c3        1 ODN     -0.162700
     17 C14         1.3550   -1.1520   -2.1200 c3        1 ODN     -0.079100
     18 C12         3.4140   -0.3810   -0.7490 c3        1 ODN     -0.090700
     19 C11         3.4990    0.5030    0.5210 c3        1 ODN      0.144100
     20 O2          3.5070    1.8830    0.1900 oh        1 ODN     -0.604800
     21 C15         3.6580   -1.8210   -0.3320 c3        1 ODN     -0.075400
     22 C16         3.4240   -2.0640    1.1490 c3        1 ODN     -0.079400
     23 C9          2.2530   -1.2990    1.7500 c3        1 ODN     -0.036700
     24 C7          2.2980   -1.2480    3.3050 c3        1 ODN     -0.062000
     25 C           2.6560   -2.6230    3.8870 c3        1 ODN      0.158100
     26 O           4.0480   -2.8470    3.6700 oh        1 ODN     -0.608800
     27 H1          2.4250    2.7800    1.7450 ho        1 ODN      0.444000
     28 H2          4.3280   -0.4100    3.2890 h1        1 ODN      0.057700
     29 H3          3.4060   -0.1140    4.8380 h1        1 ODN      0.057700
     30 H4          0.4430    1.3240    4.0590 h1        1 ODN      0.066700
     31 H5         -0.6490    1.2790    1.9060 ho        1 ODN      0.434000
     32 H6          0.1590   -1.5390    3.2380 hc        1 ODN      0.078700
     33 H7         -1.2310   -0.9280    6.4970 hc        1 ODN      0.041033
     34 H8         -1.2620    0.2120    5.0790 hc        1 ODN      0.041033
     35 H9         -1.4970   -1.5620    4.8190 hc        1 ODN      0.041033
     36 H10         0.5630    0.4340    6.9270 hc        1 ODN      0.041033
     37 H11         1.6440    0.9220    5.5640 hc        1 ODN      0.041033
     38 H12         2.1360   -0.4080    6.6800 hc        1 ODN      0.041033
     39 H13         0.2390   -3.1180    5.1900 hc        1 ODN      0.046200
     40 H14         0.7560   -2.4820    6.8030 hc        1 ODN      0.046200
     41 H15         3.0650   -2.0900    5.9480 hc        1 ODN      0.048200
     42 H16         2.5550   -3.8040    5.6980 hc        1 ODN      0.048200
     43 H17         2.0110    0.8740   -1.8120 hc        1 ODN      0.085700
     44 H18         1.0720   -2.0590   -1.5340 hc        1 ODN      0.043700
     45 H19         0.4240   -0.7430   -2.5850 hc        1 ODN      0.043700
     46 H20         2.0620   -1.4530   -2.9300 hc        1 ODN      0.043700
     47 H21         4.1550   -0.0650   -1.5230 hc        1 ODN      0.060700
     48 H22         4.3780    0.2660    1.1720 h1        1 ODN      0.067700
     49 H23         4.3880    2.0760   -0.1540 ho        1 ODN      0.410000
     50 H24         4.7240   -2.0890   -0.5630 hc        1 ODN      0.046700
     51 H25         3.0180   -2.5140   -0.9370 hc        1 ODN      0.046700
     52 H26         3.2510   -3.1610    1.3140 hc        1 ODN      0.057700
     53 H27         4.3650   -1.8100    1.7100 hc        1 ODN      0.057700
     54 H28         1.3080   -1.8400    1.4570 hc        1 ODN      0.066700
     55 H29         2.0700   -3.4070    3.3250 h1        1 ODN      0.038700
     56 H30         4.2740   -3.6630    4.1330 ho        1 ODN      0.403000
@<TRIPOS>BOND
     1    1    2 2   
     2    2    3 1   
     3    2   16 1   
     4    3    4 1   
     5    3   19 1   
     6    3   23 1   
     7    4    5 1   
     8    4    6 1   
     9    4    8 1   
    10    5   27 1   
    11    6    7 1   
    12    7   24 1   
    13    7   28 1   
    14    7   29 1   
    15    8    9 1   
    16    8   10 1   
    17    8   30 1   
    18    9   31 1   
    19   10   11 1   
    20   10   24 1   
    21   10   32 1   
    22   11   12 1   
    23   11   13 1   
    24   11   14 1   
    25   12   33 1   
    26   12   34 1   
    27   12   35 1   
    28   13   36 1   
    29   13   37 1   
    30   13   38 1   
    31   14   15 1   
    32   14   39 1   
    33   14   40 1   
    34   15   25 1   
    35   15   41 1   
    36   15   42 1   
    37   16   17 1   
    38   16   18 1   
    39   16   43 1   
    40   17   44 1   
    41   17   45 1   
    42   17   46 1   
    43   18   19 1   
    44   18   21 1   
    45   18   47 1   
    46   19   20 1   
    47   19   48 1   
    48   20   49 1   
    49   21   22 1   
    50   21   50 1   
    51   21   51 1   
    52   22   23 1   
    53   22   52 1   
    54   22   53 1   
    55   23   24 1   
    56   23   54 1   
    57   24   25 1   
    58   25   26 1   
    59   25   55 1   
    60   26   56 1   
@<TRIPOS>SUBSTRUCTURE
     1 ODN         1 TEMP              0 ****  ****    0 ROOT
