@<TRIPOS>MOLECULE
ODN
   56    60     1     0     0
SMALL
bcc


@<TRIPOS>ATOM
      1 O3          0.0110    0.3710    0.0140 o         1 ODN     -0.516100
      2 C17         1.2140    0.1310   -0.0240 c         1 ODN      0.603100
      3 C10         2.1860    0.1170    1.1560 c3        1 ODN     -0.198000
      4 C18         1.8750    1.0570    2.3270 c3        1 ODN      0.331600
      5 O4          1.7600    2.3870    1.8930 oh        1 ODN     -0.587800
      6 O1          3.0120    1.1030    3.2000 os        1 ODN     -0.461600
      7 C8          3.3640   -0.2030    3.6770 c3        1 ODN      0.147400
      8 C19         0.6580    0.6240    3.1920 c3        1 ODN      0.117100
      9 O5         -0.5750    0.6130    2.5060 oh        1 ODN     -0.590800
     10 C6          0.9080   -0.7960    3.7320 c3        1 ODN     -0.057700
     11 C3          0.5930   -0.9140    5.2330 c3        1 ODN     -0.040000
     12 C5         -0.9140   -0.7040    5.4020 c3        1 ODN     -0.092600
     13 C4          1.3230    0.0870    6.1210 c3        1 ODN     -0.092600
     14 C2          0.9160   -2.3410    5.6810 c3        1 ODN     -0.070400
     15 C1          2.3380   -2.7320    5.3680 c3        1 ODN     -0.114400
     16 C13         2.0020   -0.1680   -1.2900 c3        1 ODN     -0.161700
     17 C14         1.3510   -1.2130   -2.1530 c3        1 ODN     -0.079100
     18 C12         3.4300   -0.4700   -0.7970 c3        1 ODN     -0.058700
     19 C11         3.5430    0.4360    0.4550 c3        1 ODN      0.161100
     20 O2          3.6650    1.7690    0.0090 oh        1 ODN     -0.598800
     21 C15         3.6450   -1.9070   -0.3550 c3        1 ODN     -0.078400
     22 C16         3.4120   -2.1220    1.1310 c3        1 ODN     -0.078400
     23 C9          2.2600   -1.3240    1.7250 c3        1 ODN     -0.036700
     24 C7          2.3150   -1.2490    3.2790 c3        1 ODN     -0.063000
     25 C           2.6470   -2.6240    3.8770 c3        1 ODN      0.159100
     26 O           4.0370   -2.8700    3.6700 oh        1 ODN     -0.606800
     27 H1          1.8600    2.9540    2.6720 ho        1 ODN      0.429000
     28 H2          3.4580   -0.1180    4.7900 h1        1 ODN      0.063200
     29 H3          4.3660   -0.4580    3.2380 h1        1 ODN      0.063200
     30 H4          0.5700    1.3750    4.0310 h1        1 ODN      0.050700
     31 H5         -0.5360    1.2930    1.8180 ho        1 ODN      0.433000
     32 H6          0.1670   -1.4800    3.2180 hc        1 ODN      0.080700
     33 H7         -1.4850   -1.4560    4.8050 hc        1 ODN      0.040533
     34 H8         -1.1990   -0.8110    6.4750 hc        1 ODN      0.040533
     35 H9         -1.2020    0.3140    5.0450 hc        1 ODN      0.040533
     36 H10         2.1700   -0.3950    6.6680 hc        1 ODN      0.040533
     37 H11         1.7420    0.9390    5.5340 hc        1 ODN      0.040533
     38 H12         0.6270    0.5080    6.8890 hc        1 ODN      0.040533
     39 H13         0.2140   -3.0530    5.1700 hc        1 ODN      0.047200
     40 H14         0.7390   -2.4270    6.7850 hc        1 ODN      0.047200
     41 H15         3.0610   -2.0900    5.9360 hc        1 ODN      0.049200
     42 H16         2.5120   -3.7920    5.6940 hc        1 ODN      0.049200
     43 H17         2.0520    0.8030   -1.8660 hc        1 ODN      0.095700
     44 H18         0.4270   -0.7900   -2.6200 hc        1 ODN      0.043367
     45 H19         2.0500   -1.5340   -2.9620 hc        1 ODN      0.043367
     46 H20         1.0510   -2.1090   -1.5580 hc        1 ODN      0.043367
     47 H21         4.1750   -0.1770   -1.5770 hc        1 ODN      0.078700
     48 H22         4.4130    0.1840    1.1140 h1        1 ODN      0.060700
     49 H23         3.5600    2.3390    0.7840 ho        1 ODN      0.426000
     50 H24         4.7040   -2.2010   -0.5840 hc        1 ODN      0.047200
     51 H25         2.9880   -2.5960   -0.9460 hc        1 ODN      0.047200
     52 H26         3.2160   -3.2130    1.3130 hc        1 ODN      0.056700
     53 H27         4.3600   -1.8790    1.6830 hc        1 ODN      0.056700
     54 H28         1.3020   -1.8510    1.4470 hc        1 ODN      0.064700
     55 H29         2.0500   -3.4030    3.3190 h1        1 ODN      0.039700
     56 H30         4.2400   -3.7030    4.1120 ho        1 ODN      0.404000
@<TRIPOS>BOND
     1    1    2 2   
     2    2    3 1   
     3    2   16 1   
     4    3    4 1   
     5    3   19 1   
     6    3   23 1   
     7    4    5 1   
     8    4    6 1   
     9    4    8 1   
    10    5   27 1   
    11    6    7 1   
    12    7   24 1   
    13    7   28 1   
    14    7   29 1   
    15    8    9 1   
    16    8   10 1   
    17    8   30 1   
    18    9   31 1   
    19   10   11 1   
    20   10   24 1   
    21   10   32 1   
    22   11   12 1   
    23   11   13 1   
    24   11   14 1   
    25   12   33 1   
    26   12   34 1   
    27   12   35 1   
    28   13   36 1   
    29   13   37 1   
    30   13   38 1   
    31   14   15 1   
    32   14   39 1   
    33   14   40 1   
    34   15   25 1   
    35   15   41 1   
    36   15   42 1   
    37   16   17 1   
    38   16   18 1   
    39   16   43 1   
    40   17   44 1   
    41   17   45 1   
    42   17   46 1   
    43   18   19 1   
    44   18   21 1   
    45   18   47 1   
    46   19   20 1   
    47   19   48 1   
    48   20   49 1   
    49   21   22 1   
    50   21   50 1   
    51   21   51 1   
    52   22   23 1   
    53   22   52 1   
    54   22   53 1   
    55   23   24 1   
    56   23   54 1   
    57   24   25 1   
    58   25   26 1   
    59   25   55 1   
    60   26   56 1   
@<TRIPOS>SUBSTRUCTURE
     1 ODN         1 TEMP              0 ****  ****    0 ROOT
