@<TRIPOS>MOLECULE
ODO
   21    21     1     0     0
SMALL
bcc


@<TRIPOS>ATOM
      1 O11         3.7120    0.2010   -0.7860 oh        1 ODO     -0.355500
      2 C8          2.1890   -1.5980    0.6730 c3        1 ODO     -0.161400
      3 C7          1.6790   -0.4460   -0.1350 ce        1 ODO      0.415900
      4 C2          0.2100   -0.3070   -0.1610 ca        1 ODO     -0.247900
      5 C3         -0.4580    0.8900    0.1530 ca        1 ODO      0.201100
      6 C4         -1.8640    0.9620    0.1130 ca        1 ODO     -0.256000
      7 C5         -2.5870   -0.1750   -0.2510 ca        1 ODO      0.168100
      8 O12        -3.9580   -0.1840   -0.3190 oh        1 ODO     -0.493100
      9 C6         -1.9360   -1.3830   -0.5680 ca        1 ODO     -0.194000
     10 C1         -0.5520   -1.4320   -0.5170 ca        1 ODO     -0.045000
     11 N           2.4120    0.3880   -0.8340 n2        1 ODO     -0.460200
     12 H11         4.0800    0.9000   -1.3640 ho        1 ODO      0.440000
     13 H81C        2.3100   -2.4910    0.0100 hc        1 ODO      0.058367
     14 H82C        3.1850   -1.3600    1.1240 hc        1 ODO      0.058367
     15 H83C        1.4720   -1.8520    1.4900 hc        1 ODO      0.058367
     16 H1         -0.0320   -2.3710   -0.7630 ha        1 ODO      0.139000
     17 H10         1.1160    1.9130    0.5630 ho        1 ODO      0.435000
     18 H4         -2.3620    1.9070    0.3650 ha        1 ODO      0.155000
     19 H12        -4.2780    0.7010   -0.0890 ho        1 ODO      0.424000
     20 H6         -2.5310   -2.2620   -0.8500 ha        1 ODO      0.155000
     21 O10         0.1590    2.0540    0.5340 oh        1 ODO     -0.494100
@<TRIPOS>BOND
     1    1   11 1   
     2    1   12 1   
     3    2    3 1   
     4    2   13 1   
     5    2   14 1   
     6    2   15 1   
     7    3    4 1   
     8    3   11 2   
     9    4    5 ar  
    10    4   10 ar  
    11    5    6 ar  
    12    5   21 1   
    13    6    7 ar  
    14    6   18 1   
    15    7    8 1   
    16    7    9 ar  
    17    8   19 1   
    18    9   10 ar  
    19    9   20 1   
    20   10   16 1   
    21   17   21 1   
@<TRIPOS>SUBSTRUCTURE
     1 ODO         1 TEMP              0 ****  ****    0 ROOT
