@<TRIPOS>MOLECULE
ODO
   21    21     1     0     0
SMALL
bcc


@<TRIPOS>ATOM
      1 O11        -0.0220   -0.9400    0.8590 oh        1 ODO     -0.420300
      2 C8          1.4570    0.9560    2.3670 c2        1 ODO     -0.239000
      3 C7          1.9180    0.2340    1.3260 ce        1 ODO      0.085800
      4 C2          3.3690    0.0400    1.1470 ca        1 ODO     -0.134800
      5 C3          4.0300    0.1820   -0.0890 ca        1 ODO      0.180100
      6 C4          5.4200    0.0110   -0.1930 ca        1 ODO     -0.308000
      7 C5          6.1520   -0.3140    0.9540 ca        1 ODO      0.171100
      8 O12         7.5130   -0.4980    0.9340 oh        1 ODO     -0.491100
      9 C6          5.5140   -0.4700    2.1960 ca        1 ODO     -0.193000
     10 C1          4.1400   -0.2910    2.2730 ca        1 ODO     -0.050000
     11 N           1.0330   -0.3070    0.3210 nh        1 ODO     -0.447500
     12 H11         1.5420   -0.9990   -0.2280 hn        1 ODO      0.385800
     13 H81C       -0.7560   -0.3000    0.7930 ho        1 ODO      0.420000
     14 H82C        2.1390    1.4490    3.0690 ha        1 ODO      0.121500
     15 H83C        0.3870    1.0920    2.5650 ha        1 ODO      0.121500
     16 H1          3.6330   -0.4130    3.2450 ha        1 ODO      0.146000
     17 H10         3.8800    0.6220   -1.9440 ho        1 ODO      0.422000
     18 H4          5.9230    0.1320   -1.1620 ha        1 ODO      0.137000
     19 H12         7.8230   -0.3620    0.0270 ho        1 ODO      0.421000
     20 H6          6.1080   -0.7290    3.0830 ha        1 ODO      0.156000
     21 O10         3.2780    0.4870   -1.1970 oh        1 ODO     -0.484100
@<TRIPOS>BOND
     1    1   11 1   
     2    1   13 1   
     3    2    3 2   
     4    2   14 1   
     5    2   15 1   
     6    3    4 1   
     7    3   11 1   
     8    4    5 ar  
     9    4   10 ar  
    10    5    6 ar  
    11    5   21 1   
    12    6    7 ar  
    13    6   18 1   
    14    7    8 1   
    15    7    9 ar  
    16    8   19 1   
    17    9   10 ar  
    18    9   20 1   
    19   10   16 1   
    20   11   12 1   
    21   17   21 1   
@<TRIPOS>SUBSTRUCTURE
     1 ODO         1 TEMP              0 ****  ****    0 ROOT
