@<TRIPOS>MOLECULE
ODO
   21    21     1     0     0
SMALL
bcc


@<TRIPOS>ATOM
      1 O11        -0.0950    0.7490    0.4340 oh        1 ODO     -0.377300
      2 C8          1.3480   -0.3840    2.5190 c2        1 ODO     -0.247000
      3 C7          1.9290    0.1880    1.4460 ce        1 ODO      0.067800
      4 C2          3.3850    0.0950    1.2450 ca        1 ODO     -0.121800
      5 C3          3.9450   -0.3620    0.0350 ca        1 ODO      0.170100
      6 C4          5.3330   -0.4700   -0.1300 ca        1 ODO     -0.300000
      7 C5          6.1660   -0.1070    0.9350 ca        1 ODO      0.170100
      8 O12         7.5350   -0.1810    0.8570 oh        1 ODO     -0.490100
      9 C6          5.6310    0.3570    2.1490 ca        1 ODO     -0.189000
     10 C1          4.2520    0.4520    2.2860 ca        1 ODO     -0.042000
     11 N           1.2070    0.9990    0.4980 nh        1 ODO     -0.422500
     12 H11         1.6390    0.8940   -0.4210 hn        1 ODO      0.372800
     13 H81C       -0.2590   -0.1970    0.2390 ho        1 ODO      0.370000
     14 H82C        1.9400   -0.9290    3.2630 ha        1 ODO      0.127500
     15 H83C        0.2690   -0.3250    2.7080 ha        1 ODO      0.127500
     16 H1          3.8220    0.8180    3.2330 ha        1 ODO      0.150000
     17 H10         3.5990   -1.0150   -1.7320 ho        1 ODO      0.428000
     18 H4          5.7560   -0.8320   -1.0760 ha        1 ODO      0.138000
     19 H12         7.7710   -0.5030   -0.0250 ho        1 ODO      0.422000
     20 H6          6.3080    0.6390    2.9680 ha        1 ODO      0.157000
     21 O10         3.0770   -0.7060   -0.9770 oh        1 ODO     -0.511100
@<TRIPOS>BOND
     1    1   11 1   
     2    1   13 1   
     3    2    3 2   
     4    2   14 1   
     5    2   15 1   
     6    3    4 1   
     7    3   11 1   
     8    4    5 ar  
     9    4   10 ar  
    10    5    6 ar  
    11    5   21 1   
    12    6    7 ar  
    13    6   18 1   
    14    7    8 1   
    15    7    9 ar  
    16    8   19 1   
    17    9   10 ar  
    18    9   20 1   
    19   10   16 1   
    20   11   12 1   
    21   17   21 1   
@<TRIPOS>SUBSTRUCTURE
     1 ODO         1 TEMP              0 ****  ****    0 ROOT
