@<TRIPOS>MOLECULE
ODO
   21    20     1     0     0
SMALL
bcc


@<TRIPOS>ATOM
      1 O11        -3.6430    0.1490   -1.1360 oh        1 ODO     -0.257000
      2 C8         -2.3520   -0.3130    1.2470 c3        1 ODO     -0.200000
      3 C7         -1.6110   -0.1020   -0.0560 c2        1 ODO     -0.026000
      4 C2         -0.0990   -0.1410   -0.0800 c2        1 ODO     -0.104000
      5 O10        -0.0530    2.2630   -0.3480 oh        1 ODO     -0.235000
      6 C3          0.6210    1.0330   -0.2430 c2        1 ODO      0.144000
      7 C4          2.0040    0.9910   -0.3290 c2        1 ODO     -0.307000
      8 C5          2.6670   -0.2240   -0.2520 c1        1 ODO      0.125000
      9 O12         4.0660   -0.2710   -0.3880 o         1 ODO     -0.246000
     10 C6          1.9470   -1.3970   -0.0900 c2        1 ODO     -0.194000
     11 C1          0.5640   -1.3550   -0.0040 c2        1 ODO     -0.048000
     12 N          -2.2760    0.1140   -1.1580 n2        1 ODO     -0.045000
     13 H11        -3.9580   -0.0490   -1.9440 ho        1 ODO      0.236000
     14 H81C       -1.7260   -0.2290    1.9960 hc        1 ODO      0.094667
     15 H82C       -2.7510   -1.2080    1.2540 hc        1 ODO      0.094667
     16 H83C       -3.0580    0.3610    1.3330 hc        1 ODO      0.094667
     17 H1          0.0570   -2.1820    0.1110 ha        1 ODO      0.143000
     18 H10         0.2320    2.8120    0.2910 ho        1 ODO      0.219000
     19 H4          2.5110    1.8170   -0.4430 ha        1 ODO      0.137000
     20 H12         4.4440    0.1860    0.2750 ho        1 ODO      0.220000
     21 H6          2.4140   -2.2530   -0.0360 ha        1 ODO      0.155000
@<TRIPOS>BOND
     1    1   12 1   
     2    1   13 1   
     3    2    3 1   
     4    2   14 1   
     5    2   15 1   
     6    2   16 1   
     7    3    4 1   
     8    3   12 1   
     9    4    6 1   
    10    4   11 1   
    11    5    6 1   
    12    5   18 1   
    13    6    7 1   
    14    7    8 1   
    15    7   19 1   
    16    8   10 1   
    17    9   20 1   
    18   10   11 1   
    19   10   21 1   
    20   11   17 1   
@<TRIPOS>SUBSTRUCTURE
     1 ODO         1 TEMP              0 ****  ****    0 ROOT
