@<TRIPOS>MOLECULE
ODO
   21    21     1     0     0
SMALL
bcc


@<TRIPOS>ATOM
      1 O11        -0.0490   -0.8930    0.6850 oh        1 ODO     -0.415300
      2 C8          1.4130    0.9190    2.1620 c2        1 ODO     -0.229000
      3 C7          1.9750    0.0900    1.2640 ce        1 ODO      0.046800
      4 C2          3.4400   -0.0120    1.1360 ca        1 ODO     -0.193800
      5 C3          4.1230    0.4000   -0.0230 ca        1 ODO      0.197100
      6 C4          5.5220    0.2890   -0.1150 ca        1 ODO     -0.257000
      7 C5          6.2250   -0.2370    0.9710 ca        1 ODO      0.167100
      8 O12         7.5910   -0.3810    0.9610 oh        1 ODO     -0.493100
      9 C6          5.5620   -0.6480    2.1430 ca        1 ODO     -0.197000
     10 C1          4.1810   -0.5290    2.2090 ca        1 ODO     -0.045000
     11 N           1.2270   -0.7040    0.3150 nu        1 ODO     -0.467500
     12 H11         1.6550   -1.6300    0.2670 hn        1 ODO      0.390800
     13 H81C       -0.5610   -0.2460    0.1630 ho        1 ODO      0.421000
     14 H82C        2.0270    1.5730    2.7940 ha        1 ODO      0.128000
     15 H83C        0.3280    0.9830    2.3120 ha        1 ODO      0.128000
     16 H1          3.6510   -0.8450    3.1210 ha        1 ODO      0.142000
     17 H10         2.5620    1.0240   -0.9490 ho        1 ODO      0.440000
     18 H4          6.0320    0.6160   -1.0300 ha        1 ODO      0.154000
     19 H12         7.9220   -0.0640    0.1070 ho        1 ODO      0.424000
     20 H6          6.1430   -1.0530    2.9820 ha        1 ODO      0.155000
     21 O10         3.5100    0.9330   -1.1280 oh        1 ODO     -0.496100
@<TRIPOS>BOND
     1    1   11 1   
     2    1   13 1   
     3    2    3 2   
     4    2   14 1   
     5    2   15 1   
     6    3    4 1   
     7    3   11 1   
     8    4    5 ar  
     9    4   10 ar  
    10    5    6 ar  
    11    5   21 1   
    12    6    7 ar  
    13    6   18 1   
    14    7    8 1   
    15    7    9 ar  
    16    8   19 1   
    17    9   10 ar  
    18    9   20 1   
    19   10   16 1   
    20   11   12 1   
    21   17   21 1   
@<TRIPOS>SUBSTRUCTURE
     1 ODO         1 TEMP              0 ****  ****    0 ROOT
