@<TRIPOS>MOLECULE
ODR
   38    35     1     0     0
SMALL
bcc


@<TRIPOS>ATOM
      1 CAA        -4.9220    1.2370   -0.7960 c3        1 ODR     -0.218000
      2 CAB        -3.4120    1.1940   -0.8880 c3        1 ODR     -0.022000
      3 OAC        -2.9110    0.2730    0.0520 os        1 ODR     -0.215000
      4 CAD        -1.5090    0.2680    0.1520 c2        1 ODR      0.087000
      5 CAE        -0.8610    1.2750    0.8500 c2        1 ODR     -0.174500
      6 CAF         0.5170    1.2420    0.9960 c1        1 ODR     -0.026500
      7 CAG         1.2480    0.2020    0.4420 c2        1 ODR     -0.146000
      8 CAH         0.6000   -0.8050   -0.2560 c1        1 ODR     -0.026500
      9 CAI        -0.7780   -0.7730   -0.4010 c2        1 ODR     -0.174500
     10 CAJ         1.4060   -1.9070   -0.9170 c1        1 ODR     -0.149000
     11 CAK         1.6070   -3.1770   -0.4150 c1        1 ODR     -0.082000
     12 CAL         1.0620   -3.7150    0.8910 c2        1 ODR     -0.164000
     13 NAM         2.3440   -3.8670   -1.3120 n2        1 ODR     -0.031000
     14 OAN         2.6100   -3.0280   -2.3880 os        1 ODR     -0.061000
     15 CAO         2.0320   -1.8290   -2.1370 c1        1 ODR     -0.006000
     16 CAP         2.0310   -0.6310   -3.0630 c2        1 ODR     -0.164000
     17 CAQ         1.2260    2.3520    1.7400 c2        1 ODR      0.067000
     18 OAR         2.5320    2.4950    1.2360 oh        1 ODR     -0.325000
     19 CAS         1.2870    2.0130    3.2120 c3        1 ODR     -0.205000
     20 HAA        -5.2870    1.6530   -1.6050 hc        1 ODR      0.089667
     21 HAAA       -5.1870    1.7600   -0.0110 hc        1 ODR      0.089667
     22 HAAB       -5.2700    0.3240   -0.7120 hc        1 ODR      0.089667
     23 HAB        -3.0490    2.0840   -0.6990 h1        1 ODR      0.078000
     24 HABA       -3.1480    0.9180   -1.7900 h1        1 ODR      0.078000
     25 HAE        -1.3760    2.0080    1.2400 ha        1 ODR      0.145000
     26 HAG         2.2190    0.1790    0.5450 ha        1 ODR      0.151000
     27 HAI        -1.2340   -1.4820   -0.8930 ha        1 ODR      0.145000
     28 HAL         1.0660   -3.0030    1.5640 ha        1 ODR      0.104333
     29 HALA        1.6220   -4.4580    1.1980 ha        1 ODR      0.104333
     30 HALB        0.1440   -4.0320    0.7560 ha        1 ODR      0.104333
     31 HAP         2.6190    0.0630   -2.6990 ha        1 ODR      0.104333
     32 HAPA        1.1190   -0.2790   -3.1410 ha        1 ODR      0.104333
     33 HAPB        2.3530   -0.9020   -3.9490 ha        1 ODR      0.104333
     34 HAQ         0.7360    3.1900    1.6190 h4        1 ODR      0.077000
     35 HOAR        2.6630    3.3390    0.9880 ho        1 ODR      0.204000
     36 HAS         1.9920    1.3490    3.3650 hc        1 ODR      0.087333
     37 HASA        0.4250    1.6460    3.4990 hc        1 ODR      0.087333
     38 HASB        1.4850    2.8230    3.7260 hc        1 ODR      0.087333
@<TRIPOS>BOND
     1    1    2 1   
     2    1   20 1   
     3    1   21 1   
     4    1   22 1   
     5    2    3 1   
     6    2   23 1   
     7    2   24 1   
     8    3    4 1   
     9    4    5 1   
    10    4    9 1   
    11    5    6 1   
    12    5   25 1   
    13    6    7 1   
    14    7    8 1   
    15    7   26 1   
    16    8    9 1   
    17    9   27 1   
    18   10   11 1   
    19   10   15 1   
    20   11   13 1   
    21   12   28 1   
    22   12   29 1   
    23   12   30 1   
    24   13   14 1   
    25   14   15 1   
    26   16   31 1   
    27   16   32 1   
    28   16   33 1   
    29   17   18 1   
    30   17   19 1   
    31   17   34 1   
    32   18   35 1   
    33   19   36 1   
    34   19   37 1   
    35   19   38 1   
@<TRIPOS>SUBSTRUCTURE
     1 ODR         1 TEMP              0 ****  ****    0 ROOT
