@<TRIPOS>MOLECULE
ODR
   38    39     1     0     0
SMALL
bcc


@<TRIPOS>ATOM
      1 CAA        -0.0450   -0.5230    0.1820 c3        1 ODR     -0.100100
      2 CAB         1.4540   -0.4040    0.0300 c3        1 ODR      0.128400
      3 OAC         1.9810   -0.3410    1.3630 os        1 ODR     -0.329900
      4 CAD         3.3460   -0.1730    1.4680 ca        1 ODR      0.132100
      5 CAE         3.8160   -0.0290    2.7880 ca        1 ODR     -0.144000
      6 CAF         5.1800    0.1380    3.0090 ca        1 ODR     -0.094300
      7 CAG         6.0700    0.1670    1.9300 ca        1 ODR     -0.152000
      8 CAH         5.6020    0.0220    0.6180 ca        1 ODR      0.031000
      9 CAI         4.2290   -0.1490    0.3850 ca        1 ODR     -0.195000
     10 CAJ         6.5300    0.0600   -0.4850 cc        1 ODR     -0.277600
     11 CAK         6.5100   -0.7630   -1.7050 cc        1 ODR      0.336600
     12 CAL         5.5190   -1.8070   -2.0250 c3        1 ODR     -0.135400
     13 NAM         7.5570   -0.4110   -2.4790 nd        1 ODR     -0.364300
     14 OAN         8.2390    0.5470   -1.8840 os        1 ODR     -0.118100
     15 CAO         7.6460    0.8710   -0.6420 cd        1 ODR      0.282000
     16 CAP         8.2950    1.9180    0.1420 c3        1 ODR     -0.142400
     17 CAQ         5.7130    0.2970    4.4060 c3        1 ODR      0.186400
     18 OAR         4.8610   -0.2950    5.3800 oh        1 ODR     -0.596800
     19 CAS         5.8380    1.7650    4.7850 c3        1 ODR     -0.088100
     20 HAA        -0.5100   -0.5830   -0.8310 hc        1 ODR      0.050367
     21 HAAA       -0.3070   -1.4400    0.7610 hc        1 ODR      0.050367
     22 HAAB       -0.4550    0.3630    0.7230 hc        1 ODR      0.050367
     23 HAB         1.7340    0.5290   -0.5270 h1        1 ODR      0.038200
     24 HABA        1.8820   -1.2980   -0.4950 h1        1 ODR      0.038200
     25 HAE         3.1040   -0.0430    3.6280 ha        1 ODR      0.163000
     26 HAG         7.1480    0.3000    2.1120 ha        1 ODR      0.136000
     27 HAI         3.8670   -0.2520   -0.6480 ha        1 ODR      0.143000
     28 HAL         4.6770   -1.3630   -2.6150 hc        1 ODR      0.059700
     29 HALA        5.9740   -2.6320   -2.6280 hc        1 ODR      0.059700
     30 HALB        5.1070   -2.2370   -1.0780 hc        1 ODR      0.059700
     31 HAP         7.5590    2.3710    0.8530 hc        1 ODR      0.068033
     32 HAPA        8.7040    2.7160   -0.5270 hc        1 ODR      0.068033
     33 HAPB        9.1440    1.4830    0.7310 hc        1 ODR      0.068033
     34 HAQ         6.7260   -0.1990    4.4680 h1        1 ODR      0.038700
     35 HOAR        4.7050   -1.2050    5.1010 ho        1 ODR      0.405000
     36 HAS         6.5330    2.2730    4.0760 hc        1 ODR      0.048033
     37 HASA        6.2360    1.8520    5.8240 hc        1 ODR      0.048033
     38 HASB        4.8400    2.2610    4.7440 hc        1 ODR      0.048033
@<TRIPOS>BOND
     1    1    2 1   
     2    1   20 1   
     3    1   21 1   
     4    1   22 1   
     5    2    3 1   
     6    2   23 1   
     7    2   24 1   
     8    3    4 1   
     9    4    5 ar  
    10    4    9 ar  
    11    5    6 ar  
    12    5   25 1   
    13    6    7 ar  
    14    6   17 1   
    15    7    8 ar  
    16    7   26 1   
    17    8    9 ar  
    18    8   10 1   
    19    9   27 1   
    20   10   11 1   
    21   10   15 2   
    22   11   12 1   
    23   11   13 2   
    24   12   28 1   
    25   12   29 1   
    26   12   30 1   
    27   13   14 1   
    28   14   15 1   
    29   15   16 1   
    30   16   31 1   
    31   16   32 1   
    32   16   33 1   
    33   17   18 1   
    34   17   19 1   
    35   17   34 1   
    36   18   35 1   
    37   19   36 1   
    38   19   37 1   
    39   19   38 1   
@<TRIPOS>SUBSTRUCTURE
     1 ODR         1 TEMP              0 ****  ****    0 ROOT
