@<TRIPOS>MOLECULE
ODR
   38    39     1     0     0
SMALL
bcc


@<TRIPOS>ATOM
      1 CAA        -0.0400   -0.5260    0.1590 c3        1 ODR     -0.100100
      2 CAB         1.4590   -0.4050    0.0150 c3        1 ODR      0.128400
      3 OAC         1.9800   -0.3440    1.3490 os        1 ODR     -0.329900
      4 CAD         3.3450   -0.1750    1.4610 ca        1 ODR      0.132100
      5 CAE         3.8080   -0.0320    2.7830 ca        1 ODR     -0.144000
      6 CAF         5.1710    0.1370    3.0110 ca        1 ODR     -0.094300
      7 CAG         6.0660    0.1670    1.9360 ca        1 ODR     -0.152000
      8 CAH         5.6040    0.0230    0.6220 ca        1 ODR      0.031000
      9 CAI         4.2320   -0.1490    0.3810 ca        1 ODR     -0.195000
     10 CAJ         6.5370    0.0630   -0.4780 cc        1 ODR     -0.277600
     11 CAK         6.5230   -0.7600   -1.6980 cc        1 ODR      0.336600
     12 CAL         5.5350   -1.8060   -2.0230 c3        1 ODR     -0.135400
     13 NAM         7.5740   -0.4060   -2.4670 nd        1 ODR     -0.364300
     14 OAN         8.2520    0.5520   -1.8690 os        1 ODR     -0.118100
     15 CAO         7.6530    0.8740   -0.6290 cd        1 ODR      0.282000
     16 CAP         8.2980    1.9220    0.1590 c3        1 ODR     -0.142400
     17 CAQ         5.6970    0.2950    4.4100 c3        1 ODR      0.186400
     18 OAR         4.8420   -0.2990    5.3800 oh        1 ODR     -0.596800
     19 CAS         5.8200    1.7630    4.7900 c3        1 ODR     -0.088100
     20 HAA        -0.5010   -0.5840   -0.8560 hc        1 ODR      0.050367
     21 HAAA       -0.4530    0.3590    0.7000 hc        1 ODR      0.050367
     22 HAAB       -0.3050   -1.4440    0.7360 hc        1 ODR      0.050367
     23 HAB         1.8900   -1.2990   -0.5100 h1        1 ODR      0.038200
     24 HABA        1.7410    0.5280   -0.5410 h1        1 ODR      0.038200
     25 HAE         3.0920   -0.0470    3.6190 ha        1 ODR      0.163000
     26 HAG         7.1430    0.3010    2.1220 ha        1 ODR      0.136000
     27 HAI         3.8760   -0.2520   -0.6530 ha        1 ODR      0.143000
     28 HAL         5.9940   -2.6300   -2.6240 hc        1 ODR      0.059700
     29 HALA        4.6960   -1.3620   -2.6160 hc        1 ODR      0.059700
     30 HALB        5.1190   -2.2360   -1.0770 hc        1 ODR      0.059700
     31 HAP         7.5580    2.3730    0.8670 hc        1 ODR      0.068033
     32 HAPA        9.1450    1.4880    0.7500 hc        1 ODR      0.068033
     33 HAPB        8.7070    2.7220   -0.5090 hc        1 ODR      0.068033
     34 HAQ         6.7110   -0.2000    4.4760 h1        1 ODR      0.038700
     35 HOAR        4.6880   -1.2090    5.0990 ho        1 ODR      0.405000
     36 HAS         6.5170    2.2720    4.0850 hc        1 ODR      0.048033
     37 HASA        4.8210    2.2590    4.7450 hc        1 ODR      0.048033
     38 HASB        6.2130    1.8490    5.8310 hc        1 ODR      0.048033
@<TRIPOS>BOND
     1    1    2 1   
     2    1   20 1   
     3    1   21 1   
     4    1   22 1   
     5    2    3 1   
     6    2   23 1   
     7    2   24 1   
     8    3    4 1   
     9    4    5 ar  
    10    4    9 ar  
    11    5    6 ar  
    12    5   25 1   
    13    6    7 ar  
    14    6   17 1   
    15    7    8 ar  
    16    7   26 1   
    17    8    9 ar  
    18    8   10 1   
    19    9   27 1   
    20   10   11 1   
    21   10   15 2   
    22   11   12 1   
    23   11   13 2   
    24   12   28 1   
    25   12   29 1   
    26   12   30 1   
    27   13   14 1   
    28   14   15 1   
    29   15   16 1   
    30   16   31 1   
    31   16   32 1   
    32   16   33 1   
    33   17   18 1   
    34   17   19 1   
    35   17   34 1   
    36   18   35 1   
    37   19   36 1   
    38   19   37 1   
    39   19   38 1   
@<TRIPOS>SUBSTRUCTURE
     1 ODR         1 TEMP              0 ****  ****    0 ROOT
