@<TRIPOS>MOLECULE
ODR
   38    39     1     0     0
SMALL
bcc


@<TRIPOS>ATOM
      1 CAA         2.4800    4.6880   -0.0610 c3        1 ODR     -0.100100
      2 CAB         1.4770    3.5570   -0.0550 c3        1 ODR      0.128400
      3 OAC         2.2440    2.3500    0.0390 os        1 ODR     -0.328900
      4 CAD         1.5240    1.1730    0.0500 ca        1 ODR      0.127100
      5 CAE         2.3150    0.0080    0.1200 ca        1 ODR     -0.121000
      6 CAF         1.6890   -1.2340    0.1330 ca        1 ODR     -0.053300
      7 CAG         0.2910   -1.3220    0.0820 ca        1 ODR     -0.158000
      8 CAH        -0.4910   -0.1640    0.0160 ca        1 ODR      0.026000
      9 CAI         0.1300    1.0960   -0.0030 ca        1 ODR     -0.196000
     10 CAJ        -1.9280   -0.2670   -0.0460 cc        1 ODR     -0.272600
     11 CAK        -2.9190    0.5870    0.6290 cc        1 ODR      0.336600
     12 CAL        -2.6130    1.7240    1.5180 c3        1 ODR     -0.135400
     13 NAM        -4.1540    0.1500    0.3080 nd        1 ODR     -0.365300
     14 OAN        -4.0560   -0.8880   -0.4980 os        1 ODR     -0.119100
     15 CAO        -2.6960   -1.1880   -0.7430 cd        1 ODR      0.278000
     16 CAP        -2.4230   -2.3240   -1.6220 c3        1 ODR     -0.141400
     17 CAQ         2.4820   -2.5070    0.2030 c3        1 ODR      0.186400
     18 OAR         3.8090   -2.1880    0.6130 oh        1 ODR     -0.596800
     19 CAS         2.4870   -3.2240   -1.1390 c3        1 ODR     -0.129100
     20 HAA         3.0900    4.6740    0.8730 hc        1 ODR      0.049700
     21 HAAA        3.1710    4.5910   -0.9320 hc        1 ODR      0.049700
     22 HAAB        1.9350    5.6590   -0.1310 hc        1 ODR      0.049700
     23 HAB         0.7890    3.6310    0.8290 h1        1 ODR      0.037200
     24 HABA        0.8740    3.5440   -1.0000 h1        1 ODR      0.037200
     25 HAE         3.4110    0.0910    0.1710 ha        1 ODR      0.171000
     26 HAG        -0.1970   -2.3080    0.1010 ha        1 ODR      0.133000
     27 HAI        -0.4910    2.0000   -0.0660 ha        1 ODR      0.142000
     28 HAL        -2.5850    2.6720    0.9240 hc        1 ODR      0.059700
     29 HALA       -3.3850    1.8340    2.3210 hc        1 ODR      0.059700
     30 HALB       -1.6140    1.5690    1.9960 hc        1 ODR      0.059700
     31 HAP        -2.5340   -3.2830   -1.0530 hc        1 ODR      0.067033
     32 HAPA       -3.1420   -2.3390   -2.4800 hc        1 ODR      0.067033
     33 HAPB       -1.3780   -2.2560   -2.0150 hc        1 ODR      0.067033
     34 HAQ         2.0200   -3.1800    0.9860 h1        1 ODR      0.041700
     35 HOAR        4.3190   -3.0040    0.5460 ho        1 ODR      0.403000
     36 HAS         3.0260   -2.6120   -1.9020 hc        1 ODR      0.046367
     37 HASA        3.0020   -4.2100   -1.0460 hc        1 ODR      0.046367
     38 HASB        1.4400   -3.3930   -1.4850 hc        1 ODR      0.046367
@<TRIPOS>BOND
     1    1    2 1   
     2    1   20 1   
     3    1   21 1   
     4    1   22 1   
     5    2    3 1   
     6    2   23 1   
     7    2   24 1   
     8    3    4 1   
     9    4    5 ar  
    10    4    9 ar  
    11    5    6 ar  
    12    5   25 1   
    13    6    7 ar  
    14    6   17 1   
    15    7    8 ar  
    16    7   26 1   
    17    8    9 ar  
    18    8   10 1   
    19    9   27 1   
    20   10   11 1   
    21   10   15 2   
    22   11   12 1   
    23   11   13 2   
    24   12   28 1   
    25   12   29 1   
    26   12   30 1   
    27   13   14 1   
    28   14   15 1   
    29   15   16 1   
    30   16   31 1   
    31   16   32 1   
    32   16   33 1   
    33   17   18 1   
    34   17   19 1   
    35   17   34 1   
    36   18   35 1   
    37   19   36 1   
    38   19   37 1   
    39   19   38 1   
@<TRIPOS>SUBSTRUCTURE
     1 ODR         1 TEMP              0 ****  ****    0 ROOT
