@<TRIPOS>MOLECULE
ODS
   21    21     1     0     0
SMALL
bcc


@<TRIPOS>ATOM
      1 N1         -0.7350   -0.4550   -1.2420 n         1 ODS     -0.512800
      2 C          -1.4490   -0.9490   -2.3740 c         1 ODS      1.006600
      3 O          -0.8260   -1.2420   -3.4300 o         1 ODS     -0.835300
      4 C2          0.7130   -0.3980   -1.2600 c3        1 ODS      0.100000
      5 C3          1.3000   -0.3890    0.1260 c3        1 ODS      0.160800
      6 N4          0.7130    0.6270    0.9650 n3        1 ODS     -0.733600
      7 CM          1.2090    0.4950    2.2840 c3        1 ODS      0.164100
      8 C5         -0.7400    0.5730    0.9820 c3        1 ODS      0.160800
      9 C6         -1.3240    0.5660   -0.3940 c3        1 ODS      0.100000
     10 OXT        -2.7320   -0.9760   -2.3590 o         1 ODS     -0.835300
     11 H21         1.0590   -1.1800   -1.7490 h1        1 ODS      0.032200
     12 H22         0.9880    0.4000   -1.7190 h1        1 ODS      0.032200
     13 H31         2.3010   -0.2240    0.0600 h1        1 ODS      0.013200
     14 H32         1.1490   -1.2600    0.5360 h1        1 ODS      0.013200
     15 HM1         2.1950    0.5830    2.2750 h1        1 ODS      0.014700
     16 HM2         0.9640   -0.3790    2.6400 h1        1 ODS      0.014700
     17 HM3         0.8190    1.2080    2.8560 h1        1 ODS      0.014700
     18 H51        -1.0930    1.3840    1.4840 h1        1 ODS      0.013200
     19 H52        -1.0220   -0.2340    1.4510 h1        1 ODS      0.013200
     20 H61        -2.3170    0.4030   -0.3260 h1        1 ODS      0.032200
     21 H62        -1.1730    1.4480   -0.8070 h1        1 ODS      0.032200
@<TRIPOS>BOND
     1    1    2 1   
     2    1    4 1   
     3    1    9 1   
     4    2    3 1   
     5    2   10 1   
     6    4    5 1   
     7    4   11 1   
     8    4   12 1   
     9    5    6 1   
    10    5   13 1   
    11    5   14 1   
    12    6    7 1   
    13    6    8 1   
    14    7   15 1   
    15    7   16 1   
    16    7   17 1   
    17    8    9 1   
    18    8   18 1   
    19    8   19 1   
    20    9   20 1   
    21    9   21 1   
@<TRIPOS>SUBSTRUCTURE
     1 ODS         1 TEMP              0 ****  ****    0 ROOT
