@<TRIPOS>MOLECULE
ODS
   21    21     1     0     0
SMALL
bcc


@<TRIPOS>ATOM
      1 N1         -0.7880    0.0360   -0.5900 n         1 ODS     -0.487800
      2 C          -1.8290    0.0430    0.4460 c         1 ODS      0.990600
      3 O          -2.2380    1.1680    0.8600 o         1 ODS     -0.835300
      4 C2          0.0110    1.2210   -0.7320 c3        1 ODS      0.087000
      5 C3          1.3570    1.2020    0.0310 c3        1 ODS      0.134800
      6 N4          2.1180   -0.0270   -0.1590 n3        1 ODS     -0.731600
      7 CM          3.3010   -0.0610    0.6690 c3        1 ODS      0.162100
      8 C5          1.3090   -1.2290   -0.0010 c3        1 ODS      0.134800
      9 C6         -0.0360   -1.1750   -0.7640 c3        1 ODS      0.087000
     10 OXT        -2.2820   -1.0750    0.8300 o         1 ODS     -0.835300
     11 H21         0.2380    1.3650   -1.8280 h1        1 ODS      0.043700
     12 H22        -0.5790    2.1070   -0.3640 h1        1 ODS      0.043700
     13 H31         1.9910    2.0510   -0.3470 h1        1 ODS      0.019200
     14 H32         1.1480    1.3910    1.1250 h1        1 ODS      0.019200
     15 HM1         3.0810   -0.0720    1.7730 h1        1 ODS      0.014367
     16 HM2         3.8920   -0.9820    0.4210 h1        1 ODS      0.014367
     17 HM3         3.9280    0.8420    0.4460 h1        1 ODS      0.014367
     18 H51         1.9090   -2.0920   -0.4030 h1        1 ODS      0.019200
     19 H52         1.0920   -1.4390    1.0870 h1        1 ODS      0.019200
     20 H61        -0.6610   -2.0460   -0.4200 h1        1 ODS      0.043700
     21 H62         0.1850   -1.2980   -1.8630 h1        1 ODS      0.043700
@<TRIPOS>BOND
     1    1    2 1   
     2    1    4 1   
     3    1    9 1   
     4    2    3 1   
     5    2   10 1   
     6    4    5 1   
     7    4   11 1   
     8    4   12 1   
     9    5    6 1   
    10    5   13 1   
    11    5   14 1   
    12    6    7 1   
    13    6    8 1   
    14    7   15 1   
    15    7   16 1   
    16    7   17 1   
    17    8    9 1   
    18    8   18 1   
    19    8   19 1   
    20    9   20 1   
    21    9   21 1   
@<TRIPOS>SUBSTRUCTURE
     1 ODS         1 TEMP              0 ****  ****    0 ROOT
