@<TRIPOS>MOLECULE
ODT
   49    44     1     0     0
SMALL
bcc


@<TRIPOS>ATOM
      1 O1         -7.1930    4.9570    3.9200 o         1 ODT     -0.590000
      2 C1         -6.2290    4.8950    4.7260 c1        1 ODT      0.327000
      3 O2         -6.4340    5.0120    5.9630 os        1 ODT     -0.586000
      4 C2         -4.8220    4.6920    4.2090 c3        1 ODT     -0.223000
      5 C3         -4.5300    3.2120    4.1080 c3        1 ODT     -0.144000
      6 C4         -3.1490    3.0090    3.5270 c3        1 ODT     -0.157000
      7 C5         -2.9300    1.5390    3.2520 c3        1 ODT     -0.157000
      8 C6         -1.5470    1.3360    2.6740 c3        1 ODT     -0.157000
      9 C7         -1.4060   -0.0920    2.1940 c3        1 ODT     -0.158000
     10 C8         -0.0670   -0.2640    1.5080 c3        1 ODT     -0.158000
     11 C9         -0.0180   -1.6150    0.8270 c3        1 ODT     -0.157000
     12 C10         1.2140   -1.6940   -0.0510 c3        1 ODT     -0.141000
     13 C11         1.1660   -2.9630   -0.8760 c2        1 ODT     -0.131000
     14 C12         2.1460   -3.2270   -1.7650 c1        1 ODT     -0.161000
     15 C13         3.2940   -2.2550   -1.9380 c1        1 ODT     -0.136000
     16 C14         4.0180   -2.2610   -3.0780 c1        1 ODT     -0.136000
     17 C15         3.6820   -3.2390   -4.1820 c1        1 ODT     -0.136000
     18 C16         4.0420   -2.9710   -5.4530 c1        1 ODT     -0.136000
     19 C17         4.7820   -1.6910   -5.7760 c2        1 ODT     -0.135000
     20 C18         4.9160   -1.5510   -7.2760 c3        1 ODT     -0.209000
     21 H21        -4.7370    5.1030    3.3250 hc        1 ODT      0.058000
     22 H22        -4.1850    5.1090    4.8240 hc        1 ODT      0.058000
     23 H31        -5.1930    2.7880    3.5270 hc        1 ODT      0.083500
     24 H32        -4.5710    2.8100    4.9980 hc        1 ODT      0.083500
     25 H41        -2.4780    3.3260    4.1650 hc        1 ODT      0.065000
     26 H42        -3.0690    3.5130    2.6920 hc        1 ODT      0.065000
     27 H51        -3.6000    1.2230    2.6130 hc        1 ODT      0.076000
     28 H52        -3.0120    1.0350    4.0870 hc        1 ODT      0.076000
     29 H61        -0.8760    1.5160    3.3630 hc        1 ODT      0.073500
     30 H62        -1.4150    1.9470    1.9220 hc        1 ODT      0.073500
     31 H71        -2.1250   -0.2960    1.5620 hc        1 ODT      0.077500
     32 H72        -1.4610   -0.7010    2.9580 hc        1 ODT      0.077500
     33 H81         0.0510    0.4420    0.8400 hc        1 ODT      0.077000
     34 H82         0.6500   -0.2080    2.1720 hc        1 ODT      0.077000
     35 H91        -0.8180   -1.7310    0.2760 hc        1 ODT      0.080500
     36 H92         0.0180   -2.3200    1.5030 hc        1 ODT      0.080500
     37 H101        2.0150   -1.7000    0.5110 hc        1 ODT      0.091000
     38 H102        1.2410   -0.9190   -0.6470 hc        1 ODT      0.091000
     39 H11         0.4260   -3.5890   -0.7640 ha        1 ODT      0.123000
     40 H12         2.1150   -4.0450   -2.2970 ha        1 ODT      0.120000
     41 H13         3.5110   -1.6240   -1.2260 ha        1 ODT      0.120250
     42 H14         4.7580   -1.6350   -3.1900 ha        1 ODT      0.120250
     43 H15         3.2050   -4.0650   -3.9740 ha        1 ODT      0.120250
     44 H16         3.8250   -3.6020   -6.1650 ha        1 ODT      0.120250
     45 H171        5.6710   -1.7170   -5.3690 ha        1 ODT      0.089000
     46 H172        4.2830   -0.9280   -5.4200 ha        1 ODT      0.089000
     47 H181        4.0270   -1.5680   -7.6870 hc        1 ODT      0.071667
     48 H182        5.3570   -0.7020   -7.4860 hc        1 ODT      0.071667
     49 H183        5.4520   -2.2930   -7.6260 hc        1 ODT      0.071667
@<TRIPOS>BOND
     1    1    2 1   
     2    2    4 1   
     3    4    5 1   
     4    4   21 1   
     5    4   22 1   
     6    5    6 1   
     7    5   23 1   
     8    5   24 1   
     9    6    7 1   
    10    6   25 1   
    11    6   26 1   
    12    7    8 1   
    13    7   27 1   
    14    7   28 1   
    15    8    9 1   
    16    8   29 1   
    17    8   30 1   
    18    9   10 1   
    19    9   31 1   
    20    9   32 1   
    21   10   11 1   
    22   10   33 1   
    23   10   34 1   
    24   11   12 1   
    25   11   35 1   
    26   11   36 1   
    27   12   13 1   
    28   12   37 1   
    29   12   38 1   
    30   13   14 1   
    31   13   39 1   
    32   14   40 1   
    33   15   16 1   
    34   15   41 1   
    35   16   42 1   
    36   17   18 1   
    37   17   43 1   
    38   18   44 1   
    39   19   20 1   
    40   19   45 1   
    41   19   46 1   
    42   20   47 1   
    43   20   48 1   
    44   20   49 1   
@<TRIPOS>SUBSTRUCTURE
     1 ODT         1 TEMP              0 ****  ****    0 ROOT
