@<TRIPOS>MOLECULE
ODT
   49    48     1     0     0
SMALL
bcc


@<TRIPOS>ATOM
      1 O1          1.0370    0.3690    0.1370 o         1 ODT     -0.853300
      2 C1          2.1790   -0.0320   -0.2330 c         1 ODT      0.907600
      3 O2          3.0140   -0.5840    0.5410 o         1 ODT     -0.853300
      4 C2          2.5940    0.1790   -1.7000 c3        1 ODT     -0.194400
      5 C3          1.4920   -0.2300   -2.6460 c3        1 ODT     -0.065400
      6 C4          1.8090    0.1440   -4.0790 c3        1 ODT     -0.078400
      7 C5          0.7050   -0.2860   -5.0200 c3        1 ODT     -0.078400
      8 C6          1.0150    0.0950   -6.4520 c3        1 ODT     -0.078400
      9 C7         -0.0910   -0.3370   -7.3910 c3        1 ODT     -0.079400
     10 C8          0.2170    0.0470   -8.8220 c3        1 ODT     -0.080400
     11 C9         -0.8890   -0.3900   -9.7580 c3        1 ODT     -0.078400
     12 C10        -0.6160    0.0040  -11.1960 c3        1 ODT     -0.056200
     13 C11        -0.7660    1.4580  -11.4380 c2        1 ODT     -0.132200
     14 C12        -0.6290    2.0560  -12.6310 ce        1 ODT     -0.165000
     15 C13        -0.3120    1.3710  -13.8640 ce        1 ODT     -0.111000
     16 C14        -0.1910    2.0050  -15.0440 cf        1 ODT     -0.142000
     17 C15         0.1280    1.3180  -16.2760 cf        1 ODT     -0.138000
     18 C16         0.2580    1.9110  -17.4720 c2        1 ODT     -0.162200
     19 C17         0.0950    3.3630  -17.7170 c3        1 ODT     -0.052200
     20 C18         0.2980    3.7270  -19.1670 c3        1 ODT     -0.091100
     21 H21         3.5250   -0.4040   -1.9100 hc        1 ODT      0.018700
     22 H22         2.8300    1.2650   -1.8350 hc        1 ODT      0.018700
     23 H31         1.3310   -1.3370   -2.5750 hc        1 ODT      0.043700
     24 H32         0.5370    0.2640   -2.3200 hc        1 ODT      0.043700
     25 H41         2.7750   -0.3360   -4.3880 hc        1 ODT      0.026200
     26 H42         1.9540    1.2540   -4.1540 hc        1 ODT      0.026200
     27 H51        -0.2610    0.1890   -4.7050 hc        1 ODT      0.036700
     28 H52         0.5640   -1.3970   -4.9490 hc        1 ODT      0.036700
     29 H61         1.1560    1.2060   -6.5230 hc        1 ODT      0.034200
     30 H62         1.9810   -0.3800   -6.7670 hc        1 ODT      0.034200
     31 H71        -1.0580    0.1370   -7.0730 hc        1 ODT      0.037200
     32 H72        -0.2310   -1.4480   -7.3210 hc        1 ODT      0.037200
     33 H81         0.3530    1.1590   -8.8930 hc        1 ODT      0.038700
     34 H82         1.1850   -0.4240   -9.1370 hc        1 ODT      0.038700
     35 H91        -0.9980   -1.5060   -9.7040 hc        1 ODT      0.040700
     36 H92        -1.8630    0.0540   -9.4230 hc        1 ODT      0.040700
     37 H101        0.4250   -0.3150  -11.4780 hc        1 ODT      0.049200
     38 H102       -1.3230   -0.5570  -11.8680 hc        1 ODT      0.049200
     39 H11        -1.0080    2.0670  -10.5490 ha        1 ODT      0.129000
     40 H12        -0.7620    3.1500  -12.7090 ha        1 ODT      0.120000
     41 H13        -0.1670    0.2780  -13.7950 ha        1 ODT      0.122000
     42 H14        -0.3330    3.0970  -15.1130 ha        1 ODT      0.122000
     43 H15         0.2700    0.2250  -16.1940 ha        1 ODT      0.120000
     44 H16         0.5040    1.3030  -18.3580 ha        1 ODT      0.119000
     45 H171        0.8290    3.9340  -17.0830 hc        1 ODT      0.049700
     46 H172       -0.9330    3.6850  -17.3920 hc        1 ODT      0.049700
     47 H181       -0.4410    3.1970  -19.8150 hc        1 ODT      0.032700
     48 H182        0.1680    4.8270  -19.3100 hc        1 ODT      0.032700
     49 H183        1.3250    3.4470  -19.5050 hc        1 ODT      0.032700
@<TRIPOS>BOND
     1    1    2 1   
     2    2    3 1   
     3    2    4 1   
     4    4    5 1   
     5    4   21 1   
     6    4   22 1   
     7    5    6 1   
     8    5   23 1   
     9    5   24 1   
    10    6    7 1   
    11    6   25 1   
    12    6   26 1   
    13    7    8 1   
    14    7   27 1   
    15    7   28 1   
    16    8    9 1   
    17    8   29 1   
    18    8   30 1   
    19    9   10 1   
    20    9   31 1   
    21    9   32 1   
    22   10   11 1   
    23   10   33 1   
    24   10   34 1   
    25   11   12 1   
    26   11   35 1   
    27   11   36 1   
    28   12   13 1   
    29   12   37 1   
    30   12   38 1   
    31   13   14 2   
    32   13   39 1   
    33   14   15 1   
    34   14   40 1   
    35   15   16 2   
    36   15   41 1   
    37   16   17 1   
    38   16   42 1   
    39   17   18 2   
    40   17   43 1   
    41   18   19 1   
    42   18   44 1   
    43   19   20 1   
    44   19   45 1   
    45   19   46 1   
    46   20   47 1   
    47   20   48 1   
    48   20   49 1   
@<TRIPOS>SUBSTRUCTURE
     1 ODT         1 TEMP              0 ****  ****    0 ROOT
