@<TRIPOS>MOLECULE
ODT
   49    48     1     0     0
SMALL
bcc


@<TRIPOS>ATOM
      1 O1         -9.2150   -0.1460   -1.3490 o         1 ODT     -0.853300
      2 C1         -9.1330    0.3440   -0.1850 c         1 ODT      0.907600
      3 O2        -10.0340    1.0580    0.3430 o         1 ODT     -0.853300
      4 C2         -7.8780    0.0400    0.6530 c3        1 ODT     -0.194400
      5 C3         -6.6190    0.2270   -0.1570 c3        1 ODT     -0.065400
      6 C4         -5.3900   -0.2480    0.5910 c3        1 ODT     -0.078400
      7 C5         -4.1310   -0.0410   -0.2240 c3        1 ODT     -0.078400
      8 C6         -2.9040   -0.5290    0.5170 c3        1 ODT     -0.078400
      9 C7         -1.6470   -0.3220   -0.3000 c3        1 ODT     -0.079400
     10 C8         -0.4220   -0.8180    0.4380 c3        1 ODT     -0.079400
     11 C9          0.8350   -0.6140   -0.3810 c3        1 ODT     -0.076400
     12 C10         2.0570   -1.1230    0.3580 c3        1 ODT     -0.055200
     13 C11         3.2920   -0.9510   -0.4410 c2        1 ODT     -0.137200
     14 C12         4.4630   -0.5580    0.0820 ce        1 ODT     -0.159000
     15 C13         5.6690   -0.4150   -0.7030 ce        1 ODT     -0.112000
     16 C14         6.8450   -0.0270   -0.1770 cf        1 ODT     -0.142000
     17 C15         8.0490    0.1160   -0.9640 cf        1 ODT     -0.138000
     18 C16         9.2390    0.5010   -0.4790 c2        1 ODT     -0.161200
     19 C17         9.5050    0.8410    0.9380 c3        1 ODT     -0.052200
     20 C18        10.9420    1.2350    1.1750 c3        1 ODT     -0.091100
     21 H21        -7.9520   -1.0190    1.0070 hc        1 ODT      0.018700
     22 H22        -7.8640    0.7030    1.5540 hc        1 ODT      0.018700
     23 H31        -6.5010    1.3110   -0.4200 hc        1 ODT      0.044200
     24 H32        -6.7260   -0.3370   -1.1220 hc        1 ODT      0.044200
     25 H41        -5.5000   -1.3370    0.8390 hc        1 ODT      0.025700
     26 H42        -5.3030    0.3050    1.5630 hc        1 ODT      0.025700
     27 H51        -4.0160    1.0490   -0.4650 hc        1 ODT      0.036700
     28 H52        -4.2240   -0.5860   -1.2000 hc        1 ODT      0.036700
     29 H61        -3.0210   -1.6180    0.7580 hc        1 ODT      0.034200
     30 H62        -2.8130    0.0170    1.4930 hc        1 ODT      0.034200
     31 H71        -1.5280    0.7680   -0.5370 hc        1 ODT      0.038200
     32 H72        -1.7410   -0.8630   -1.2780 hc        1 ODT      0.038200
     33 H81        -0.5430   -1.9070    0.6770 hc        1 ODT      0.037700
     34 H82        -0.3270   -0.2750    1.4150 hc        1 ODT      0.037700
     35 H91         0.9610    0.4760   -0.6110 hc        1 ODT      0.041700
     36 H92         0.7360   -1.1500   -1.3610 hc        1 ODT      0.041700
     37 H101        1.9250   -2.2180    0.5820 hc        1 ODT      0.049200
     38 H102        2.1440   -0.5950    1.3450 hc        1 ODT      0.049200
     39 H11         3.1960   -1.1800   -1.5160 ha        1 ODT      0.122000
     40 H12         4.5490   -0.3250    1.1580 ha        1 ODT      0.123000
     41 H13         5.5830   -0.6420   -1.7800 ha        1 ODT      0.121000
     42 H14         6.9310    0.2010    0.9000 ha        1 ODT      0.122000
     43 H15         7.9510   -0.1150   -2.0400 ha        1 ODT      0.120000
     44 H16        10.1040    0.5830   -1.1590 ha        1 ODT      0.119000
     45 H171        9.2480   -0.0410    1.5880 hc        1 ODT      0.050200
     46 H172        8.8300    1.6830    1.2540 hc        1 ODT      0.050200
     47 H181       11.1000    1.4820    2.2520 hc        1 ODT      0.033033
     48 H182       11.6310    0.4010    0.8980 hc        1 ODT      0.033033
     49 H183       11.2110    2.1300    0.5640 hc        1 ODT      0.033033
@<TRIPOS>BOND
     1    1    2 1   
     2    2    3 1   
     3    2    4 1   
     4    4    5 1   
     5    4   21 1   
     6    4   22 1   
     7    5    6 1   
     8    5   23 1   
     9    5   24 1   
    10    6    7 1   
    11    6   25 1   
    12    6   26 1   
    13    7    8 1   
    14    7   27 1   
    15    7   28 1   
    16    8    9 1   
    17    8   29 1   
    18    8   30 1   
    19    9   10 1   
    20    9   31 1   
    21    9   32 1   
    22   10   11 1   
    23   10   33 1   
    24   10   34 1   
    25   11   12 1   
    26   11   35 1   
    27   11   36 1   
    28   12   13 1   
    29   12   37 1   
    30   12   38 1   
    31   13   14 2   
    32   13   39 1   
    33   14   15 1   
    34   14   40 1   
    35   15   16 2   
    36   15   41 1   
    37   16   17 1   
    38   16   42 1   
    39   17   18 2   
    40   17   43 1   
    41   18   19 1   
    42   18   44 1   
    43   19   20 1   
    44   19   45 1   
    45   19   46 1   
    46   20   47 1   
    47   20   48 1   
    48   20   49 1   
@<TRIPOS>SUBSTRUCTURE
     1 ODT         1 TEMP              0 ****  ****    0 ROOT
