@<TRIPOS>MOLECULE
ODT
   49    48     1     0     0
SMALL
bcc


@<TRIPOS>ATOM
      1 O1          1.0020    0.3420    0.1360 o         1 ODT     -0.853300
      2 C1          2.1560   -0.0280   -0.2300 c         1 ODT      0.907600
      3 O2          3.0020   -0.5610    0.5450 o         1 ODT     -0.853300
      4 C2          2.5710    0.2010   -1.6940 c3        1 ODT     -0.194400
      5 C3          1.4840   -0.2340   -2.6470 c3        1 ODT     -0.065400
      6 C4          1.7980    0.1540   -4.0770 c3        1 ODT     -0.078400
      7 C5          0.7100   -0.3010   -5.0250 c3        1 ODT     -0.078400
      8 C6          1.0160    0.0940   -6.4540 c3        1 ODT     -0.078400
      9 C7         -0.0740   -0.3620   -7.3990 c3        1 ODT     -0.079400
     10 C8          0.2300    0.0350   -8.8280 c3        1 ODT     -0.080400
     11 C9         -0.8600   -0.4270   -9.7710 c3        1 ODT     -0.078400
     12 C10        -0.5910   -0.0190  -11.2060 c3        1 ODT     -0.056200
     13 C11        -0.7780    1.4310  -11.4420 c2        1 ODT     -0.132200
     14 C12        -0.6490    2.0380  -12.6310 ce        1 ODT     -0.165000
     15 C13        -0.3050    1.3680  -13.8650 ce        1 ODT     -0.111000
     16 C14        -0.1930    2.0100  -15.0420 cf        1 ODT     -0.142000
     17 C15         0.1520    1.3380  -16.2740 cf        1 ODT     -0.138000
     18 C16         0.2760    1.9400  -17.4660 c2        1 ODT     -0.162200
     19 C17         0.0790    3.3890  -17.7060 c3        1 ODT     -0.052200
     20 C18         0.2840    3.7660  -19.1520 c3        1 ODT     -0.091100
     21 H21         3.5180   -0.3570   -1.9020 hc        1 ODT      0.018700
     22 H22         2.7800    1.2930   -1.8240 hc        1 ODT      0.018700
     23 H31         1.3530   -1.3450   -2.5810 hc        1 ODT      0.044200
     24 H32         0.5160    0.2340   -2.3230 hc        1 ODT      0.044200
     25 H41         2.7770   -0.2990   -4.3840 hc        1 ODT      0.026200
     26 H42         1.9140    1.2680   -4.1470 hc        1 ODT      0.026200
     27 H51        -0.2700    0.1470   -4.7120 hc        1 ODT      0.036700
     28 H52         0.5980   -1.4150   -4.9600 hc        1 ODT      0.036700
     29 H61         1.1280    1.2090   -6.5190 hc        1 ODT      0.034200
     30 H62         1.9960   -0.3540   -6.7660 hc        1 ODT      0.034200
     31 H71        -1.0540    0.0840   -7.0850 hc        1 ODT      0.037200
     32 H72        -0.1840   -1.4770   -7.3350 hc        1 ODT      0.037200
     33 H81         0.3370    1.1510   -8.8930 hc        1 ODT      0.038700
     34 H82         1.2120   -0.4080   -9.1400 hc        1 ODT      0.038700
     35 H91        -0.9390   -1.5460   -9.7220 hc        1 ODT      0.040700
     36 H92        -1.8470   -0.0100   -9.4390 hc        1 ODT      0.040700
     37 H101        0.4600   -0.3100  -11.4840 hc        1 ODT      0.049200
     38 H102       -1.2800   -0.5950  -11.8830 hc        1 ODT      0.049200
     39 H11        -1.0410    2.0290  -10.5520 ha        1 ODT      0.128000
     40 H12        -0.8100    3.1290  -12.7050 ha        1 ODT      0.120000
     41 H13        -0.1330    0.2790  -13.8000 ha        1 ODT      0.122000
     42 H14        -0.3630    3.0990  -15.1070 ha        1 ODT      0.122000
     43 H15         0.3210    0.2480  -16.1970 ha        1 ODT      0.120000
     44 H16         0.5440    1.3430  -18.3540 ha        1 ODT      0.119000
     45 H171        0.7920    3.9750  -17.0630 hc        1 ODT      0.049700
     46 H172       -0.9600    3.6830  -17.3870 hc        1 ODT      0.049700
     47 H181       -0.4360    3.2200  -19.8080 hc        1 ODT      0.032700
     48 H182        0.1270    4.8620  -19.2900 hc        1 ODT      0.032700
     49 H183        1.3200    3.5130  -19.4830 hc        1 ODT      0.032700
@<TRIPOS>BOND
     1    1    2 1   
     2    2    3 1   
     3    2    4 1   
     4    4    5 1   
     5    4   21 1   
     6    4   22 1   
     7    5    6 1   
     8    5   23 1   
     9    5   24 1   
    10    6    7 1   
    11    6   25 1   
    12    6   26 1   
    13    7    8 1   
    14    7   27 1   
    15    7   28 1   
    16    8    9 1   
    17    8   29 1   
    18    8   30 1   
    19    9   10 1   
    20    9   31 1   
    21    9   32 1   
    22   10   11 1   
    23   10   33 1   
    24   10   34 1   
    25   11   12 1   
    26   11   35 1   
    27   11   36 1   
    28   12   13 1   
    29   12   37 1   
    30   12   38 1   
    31   13   14 2   
    32   13   39 1   
    33   14   15 1   
    34   14   40 1   
    35   15   16 2   
    36   15   41 1   
    37   16   17 1   
    38   16   42 1   
    39   17   18 2   
    40   17   43 1   
    41   18   19 1   
    42   18   44 1   
    43   19   20 1   
    44   19   45 1   
    45   19   46 1   
    46   20   47 1   
    47   20   48 1   
    48   20   49 1   
@<TRIPOS>SUBSTRUCTURE
     1 ODT         1 TEMP              0 ****  ****    0 ROOT
