@<TRIPOS>MOLECULE
ODV
   14    13     1     0     0
SMALL
bcc


@<TRIPOS>ATOM
      1 OAD        -1.8120    0.4510   -1.8140 o         1 ODV     -0.947833
      2 PAH        -0.3020    0.4510   -1.8140 p5        1 ODV      1.216700
      3 OAE         0.2020    1.6840   -2.5260 o         1 ODV     -0.947833
      4 OAB         0.2020   -0.7810   -2.5260 o         1 ODV     -0.947833
      5 CAG         0.3030    0.4510   -0.1030 c3        1 ODV     -0.056100
      6 OAC        -0.1690    1.5990    0.5620 oh        1 ODV     -0.548800
      7 CAF        -0.1970   -0.7850    0.6080 c3        1 ODV      0.155800
      8 NAA         0.4020   -0.8660    1.9000 n3        1 ODV     -0.923800
      9 HAG         1.2790    0.4540   -0.1030 h1        1 ODV     -0.003300
     10 HAC         0.4700    2.2150    0.5790 ho        1 ODV      0.297000
     11 HAF        -1.1670   -0.7360    0.7020 h1        1 ODV      0.017200
     12 HAH         0.0400   -1.5770    0.0890 h1        1 ODV      0.017200
     13 HAI        -0.2450   -1.0010    2.5270 hn        1 ODV      0.336800
     14 HAJ         0.9930   -1.5600    1.9180 hn        1 ODV      0.336800
@<TRIPOS>BOND
     1    1    2 1   
     2    2    3 1   
     3    2    4 1   
     4    2    5 1   
     5    5    6 1   
     6    5    7 1   
     7    5    9 1   
     8    6   10 1   
     9    7    8 1   
    10    7   11 1   
    11    7   12 1   
    12    8   13 1   
    13    8   14 1   
@<TRIPOS>SUBSTRUCTURE
     1 ODV         1 TEMP              0 ****  ****    0 ROOT
