@<TRIPOS>MOLECULE
ODV
   14    13     1     0     0
SMALL
bcc


@<TRIPOS>ATOM
      1 OAD         1.8620   -0.8530   -0.7540 o         1 ODV     -0.942833
      2 PAH         0.8970    0.1390   -0.1540 p5        1 ODV      1.196700
      3 OAE         0.8710    0.1820    1.3650 o         1 ODV     -0.942833
      4 OAB         0.8970    1.4960   -0.8210 o         1 ODV     -0.942833
      5 CAG        -0.7340   -0.5780   -0.4900 c3        1 ODV     -0.076100
      6 OAC        -1.1150   -1.3840    0.6060 oh        1 ODV     -0.674800
      7 CAF        -1.7510    0.5150   -0.7780 c3        1 ODV      0.131800
      8 NAA        -2.6130    0.9380    0.3130 n3        1 ODV     -0.914800
      9 HAG        -0.6580   -1.2610   -1.3710 h1        1 ODV      0.025700
     10 HAC        -0.5490   -1.1060    1.3540 ho        1 ODV      0.427000
     11 HAF        -1.1630    1.4080   -1.1530 h1        1 ODV      0.032200
     12 HAH        -2.4490    0.1830   -1.6040 h1        1 ODV      0.032200
     13 HAI        -2.8600    0.1230    0.8510 hn        1 ODV      0.323800
     14 HAJ        -2.0830    1.5280    0.9310 hn        1 ODV      0.323800
@<TRIPOS>BOND
     1    1    2 1   
     2    2    3 1   
     3    2    4 1   
     4    2    5 1   
     5    5    6 1   
     6    5    7 1   
     7    5    9 1   
     8    6   10 1   
     9    7    8 1   
    10    7   11 1   
    11    7   12 1   
    12    8   13 1   
    13    8   14 1   
@<TRIPOS>SUBSTRUCTURE
     1 ODV         1 TEMP              0 ****  ****    0 ROOT
