@<TRIPOS>MOLECULE
OE1
   49    50     1     0     0
SMALL
bcc


@<TRIPOS>ATOM
      1 C1          0.0380   -0.5920    0.8150 c3        1 OE1     -0.099600
      2 C2          1.5220   -0.3620    0.6780 c3        1 OE1     -0.093400
      3 C3          2.1480   -0.1920    2.0590 c3        1 OE1      0.115300
      4 N4          3.6150   -0.1680    2.0960 n7        1 OE1     -0.913200
      5 C5          4.2480    0.7340    1.1320 c3        1 OE1      0.115300
      6 C6          3.9740    2.2210    1.3420 c3        1 OE1     -0.093400
      7 C7          4.7370    3.0380    0.3320 c3        1 OE1     -0.099600
      8 S8          4.5340   -2.2650    2.0440 s4        1 OE1      1.659300
      9 O9          5.6400   -1.8650    2.7360 o         1 OE1     -0.447400
     10 O10         3.4760   -2.8690    2.6590 o         1 OE1     -0.447400
     11 C11         4.6970   -2.4900    0.5070 ca        1 OE1     -0.622500
     12 C12         5.9030   -2.0920   -0.1510 ca        1 OE1      0.008000
     13 C13         6.1470   -2.3180   -1.4840 ca        1 OE1     -0.149000
     14 C14         5.1460   -2.9690   -2.2320 ca        1 OE1      0.047800
     15 C15         3.8890   -3.3810   -1.5930 ca        1 OE1      0.031400
     16 C16         3.6880   -3.1400   -0.2480 ca        1 OE1      0.095000
     17 N17         3.0650   -4.0080   -2.5540 nc        1 OE1     -0.528100
     18 C18         3.7660   -3.9880   -3.7040 cd        1 OE1      0.528400
     19 N19         5.0480   -3.3570   -3.5460 na        1 OE1     -0.258300
     20 C21         3.3380   -4.5160   -4.9990 ca        1 OE1     -0.162900
     21 C22         1.9760   -4.4910   -5.3330 ca        1 OE1     -0.087000
     22 C23         1.5580   -4.9960   -6.5640 ca        1 OE1     -0.127000
     23 C24         2.4870   -5.5270   -7.4580 ca        1 OE1     -0.085000
     24 C25         3.8420   -5.5600   -7.1200 ca        1 OE1     -0.127000
     25 C26         4.2710   -5.0580   -5.8950 ca        1 OE1     -0.087000
     26 H11C       -0.4490    0.2660    1.3400 hc        1 OE1      0.051033
     27 H12C       -0.4250   -0.6930   -0.1970 hc        1 OE1      0.051033
     28 H13C       -0.1710   -1.5240    1.3940 hc        1 OE1      0.051033
     29 H21C        1.9890   -1.2280    0.1380 hc        1 OE1      0.051950
     30 H22C        1.7040    0.5580    0.0610 hc        1 OE1      0.051950
     31 H31C        1.8240   -1.0530    2.7190 h1        1 OE1      0.075700
     32 H32C        1.7360    0.7570    2.5110 h1        1 OE1      0.075700
     33 H51C        3.9140    0.4420    0.0970 h1        1 OE1      0.075700
     34 H52C        5.3610    0.5580    1.2050 h1        1 OE1      0.075700
     35 H61C        4.2780    2.5260    2.3790 hc        1 OE1      0.051950
     36 H62C        2.8750    2.4220    1.2390 hc        1 OE1      0.051950
     37 H71C        4.5260    4.1250    0.4850 hc        1 OE1      0.051033
     38 H72C        5.8380    2.8770    0.4370 hc        1 OE1      0.051033
     39 H73C        4.4380    2.7660   -0.7090 hc        1 OE1      0.051033
     40 H12         6.6810   -1.5890    0.4570 ha        1 OE1      0.167000
     41 H16         2.7520   -3.4670    0.2440 ha        1 OE1      0.185000
     42 H13         7.0940   -2.0070   -1.9520 ha        1 OE1      0.175000
     43 H19         5.7190   -3.2330   -4.2620 hn        1 OE1      0.333700
     44 H22         1.2370   -4.0790   -4.6290 ha        1 OE1      0.143500
     45 H26         5.3390   -5.1140   -5.6360 ha        1 OE1      0.143500
     46 H23         0.4880   -4.9760   -6.8260 ha        1 OE1      0.153000
     47 H24         2.1530   -5.9260   -8.4290 ha        1 OE1      0.153000
     48 H25         4.5740   -5.9890   -7.8230 ha        1 OE1      0.153000
     49 H41         3.8860    0.1350    3.0270 hn        1 OE1      0.404800
@<TRIPOS>BOND
     1    1    2 1   
     2    1   26 1   
     3    1   27 1   
     4    1   28 1   
     5    2    3 1   
     6    2   29 1   
     7    2   30 1   
     8    3    4 1   
     9    3   31 1   
    10    3   32 1   
    11    4    5 1   
    12    4   49 1   
    13    5    6 1   
    14    5   33 1   
    15    5   34 1   
    16    6    7 1   
    17    6   35 1   
    18    6   36 1   
    19    7   37 1   
    20    7   38 1   
    21    7   39 1   
    22    8    9 1   
    23    8   10 1   
    24    8   11 1   
    25   11   12 ar  
    26   11   16 ar  
    27   12   13 ar  
    28   12   40 1   
    29   13   14 ar  
    30   13   42 1   
    31   14   15 ar  
    32   14   19 1   
    33   15   16 ar  
    34   15   17 1   
    35   16   41 1   
    36   17   18 2   
    37   18   19 1   
    38   18   20 1   
    39   19   43 1   
    40   20   21 ar  
    41   20   25 ar  
    42   21   22 ar  
    43   21   44 1   
    44   22   23 ar  
    45   22   46 1   
    46   23   24 ar  
    47   23   47 1   
    48   24   25 ar  
    49   24   48 1   
    50   25   45 1   
@<TRIPOS>SUBSTRUCTURE
     1 OE1         1 TEMP              0 ****  ****    0 ROOT
