@<TRIPOS>MOLECULE
OE1
   49    50     1     0     0
SMALL
bcc


@<TRIPOS>ATOM
      1 C1          0.0360   -0.6330    0.8530 c3        1 OE1     -0.099600
      2 C2          1.5160   -0.3900    0.7020 c3        1 OE1     -0.093400
      3 C3          2.1530   -0.2160    2.0780 c3        1 OE1      0.115300
      4 N4          3.6210   -0.1780    2.1020 n3        1 OE1     -0.913200
      5 C5          4.2350    0.7320    1.1340 c3        1 OE1      0.115300
      6 C6          3.9500    2.2160    1.3490 c3        1 OE1     -0.093400
      7 C7          4.6960    3.0420    0.3330 c3        1 OE1     -0.099600
      8 S8          4.5570   -2.2670    2.0370 s4        1 OE1      1.659300
      9 O9          5.6640   -1.8590    2.7250 o         1 OE1     -0.447400
     10 O10         3.5090   -2.8830    2.6550 o         1 OE1     -0.447400
     11 C11         4.7150   -2.4840    0.4990 ca        1 OE1     -0.622500
     12 C12         5.9140   -2.0730   -0.1640 ca        1 OE1      0.008000
     13 C13         6.1530   -2.2910   -1.5000 ca        1 OE1     -0.149000
     14 C14         5.1540   -2.9480   -2.2450 ca        1 OE1      0.047800
     15 C15         3.9040   -3.3730   -1.6010 ca        1 OE1      0.031400
     16 C16         3.7080   -3.1400   -0.2550 ca        1 OE1      0.095000
     17 N17         3.0800   -4.0040   -2.5610 nc        1 OE1     -0.528100
     18 C18         3.7750   -3.9730   -3.7140 cd        1 OE1      0.528400
     19 N19         5.0520   -3.3310   -3.5600 na        1 OE1     -0.258300
     20 C21         3.3450   -4.4980   -5.0090 ca        1 OE1     -0.162900
     21 C22         1.9810   -4.4840   -5.3360 ca        1 OE1     -0.087000
     22 C23         1.5610   -4.9870   -6.5670 ca        1 OE1     -0.127000
     23 C24         2.4900   -5.5070   -7.4680 ca        1 OE1     -0.085000
     24 C25         3.8470   -5.5280   -7.1380 ca        1 OE1     -0.127000
     25 C26         4.2780   -5.0280   -5.9120 ca        1 OE1     -0.087000
     26 H11C       -0.4540    0.2190    1.3840 hc        1 OE1      0.051033
     27 H12C       -0.4350   -0.7380   -0.1550 hc        1 OE1      0.051033
     28 H13C       -0.1590   -1.5690    1.4320 hc        1 OE1      0.051033
     29 H21C        1.6840    0.5330    0.0850 hc        1 OE1      0.051950
     30 H22C        1.9860   -1.2510    0.1570 hc        1 OE1      0.051950
     31 H31C        1.8440   -1.0810    2.7390 h1        1 OE1      0.075700
     32 H32C        1.7370    0.7290    2.5360 h1        1 OE1      0.075700
     33 H51C        5.3510    0.5660    1.1950 h1        1 OE1      0.075700
     34 H52C        3.8950    0.4380    0.1000 h1        1 OE1      0.075700
     35 H61C        4.2610    2.5210    2.3830 hc        1 OE1      0.051950
     36 H62C        2.8480    2.4060    1.2570 hc        1 OE1      0.051950
     37 H71C        4.4770    4.1260    0.4910 hc        1 OE1      0.051033
     38 H72C        4.3890    2.7690   -0.7060 hc        1 OE1      0.051033
     39 H73C        5.7990    2.8900    0.4270 hc        1 OE1      0.051033
     40 H12         6.6910   -1.5660    0.4420 ha        1 OE1      0.167000
     41 H16         2.7770   -3.4780    0.2410 ha        1 OE1      0.185000
     42 H13         7.0940   -1.9690   -1.9710 ha        1 OE1      0.175000
     43 H19         5.7190   -3.1970   -4.2790 hn        1 OE1      0.333700
     44 H22         1.2420   -4.0810   -4.6260 ha        1 OE1      0.143500
     45 H26         5.3480   -5.0760   -5.6590 ha        1 OE1      0.143500
     46 H23         0.4900   -4.9760   -6.8230 ha        1 OE1      0.153000
     47 H24         2.1540   -5.9040   -8.4390 ha        1 OE1      0.153000
     48 H25         4.5790   -5.9480   -7.8460 ha        1 OE1      0.153000
     49 H41         3.8970    0.1250    3.0300 hn        1 OE1      0.404800
@<TRIPOS>BOND
     1    1    2 1   
     2    1   26 1   
     3    1   27 1   
     4    1   28 1   
     5    2    3 1   
     6    2   29 1   
     7    2   30 1   
     8    3    4 1   
     9    3   31 1   
    10    3   32 1   
    11    4    5 1   
    12    4   49 1   
    13    5    6 1   
    14    5   33 1   
    15    5   34 1   
    16    6    7 1   
    17    6   35 1   
    18    6   36 1   
    19    7   37 1   
    20    7   38 1   
    21    7   39 1   
    22    8    9 1   
    23    8   10 1   
    24    8   11 1   
    25   11   12 ar  
    26   11   16 ar  
    27   12   13 ar  
    28   12   40 1   
    29   13   14 ar  
    30   13   42 1   
    31   14   15 ar  
    32   14   19 1   
    33   15   16 ar  
    34   15   17 1   
    35   16   41 1   
    36   17   18 2   
    37   18   19 1   
    38   18   20 1   
    39   19   43 1   
    40   20   21 ar  
    41   20   25 ar  
    42   21   22 ar  
    43   21   44 1   
    44   22   23 ar  
    45   22   46 1   
    46   23   24 ar  
    47   23   47 1   
    48   24   25 ar  
    49   24   48 1   
    50   25   45 1   
@<TRIPOS>SUBSTRUCTURE
     1 OE1         1 TEMP              0 ****  ****    0 ROOT
