@<TRIPOS>MOLECULE
OEF
   41    42     1     0     0
SMALL
bcc


@<TRIPOS>ATOM
      1 C1          0.0930   -0.0410   -0.2310 ca        1 OEF     -0.031300
      2 C2          2.2710    1.3160    4.1100 ca        1 OEF      0.102100
      3 C3          1.4880   -0.0220   -0.1310 ca        1 OEF     -0.100500
      4 C4          1.9990    2.5590    3.5300 ca        1 OEF     -0.146000
      5 C5          2.1170    0.0710    1.1130 ca        1 OEF     -0.026900
      6 C6          2.3570    3.7370    4.1910 ca        1 OEF     -0.059300
      7 C7          1.3360    0.1430    2.2790 ca        1 OEF      0.098100
      8 C8          2.9920    3.6350    5.4440 ca        1 OEF      0.085100
      9 C9         -0.0690    0.1270    2.1910 ca        1 OEF     -0.026900
     10 C10         3.2620    2.3860    6.0230 ca        1 OEF     -0.187000
     11 C11        -0.6760    0.0330    0.9380 ca        1 OEF     -0.100500
     12 C12         2.9040    1.2190    5.3600 ca        1 OEF     -0.120000
     13 C13        -0.5770   -0.1400   -1.5560 c3        1 OEF     -0.046100
     14 C14        -1.2820    1.1400   -1.9480 c3        1 OEF     -0.198400
     15 BR1         3.9950    0.0900    1.1550 br        1 OEF     -0.087600
     16 C15         2.0680    5.0710    3.5760 c3        1 OEF     -0.019400
     17 BR2        -1.1720    0.2190    3.7080 br        1 OEF     -0.087600
     18 O2          1.9520    0.0910    3.5300 os        1 OEF     -0.240200
     19 O1          3.3390    4.8110    6.0810 oh        1 OEF     -0.504100
     20 C18        -2.2610    0.8860   -3.1130 c         1 OEF      0.910600
     21 C16         0.5760    5.2670    3.3840 c3        1 OEF     -0.088100
     22 O3         -2.3680    1.7900   -3.9880 o         1 OEF     -0.842300
     23 O4         -2.9130   -0.1970   -3.1200 o         1 OEF     -0.842300
     24 C17         2.7980    5.2280    2.2550 c3        1 OEF     -0.088100
     25 H3          2.0900   -0.0790   -1.0520 ha        1 OEF      0.162000
     26 H11        -1.7760    0.0200    0.8460 ha        1 OEF      0.162000
     27 H131       -1.3460   -0.9650   -1.5310 hc        1 OEF      0.068700
     28 H132        0.1710   -0.4080   -2.3470 hc        1 OEF      0.068700
     29 H4          1.5010    2.6140    2.5490 ha        1 OEF      0.160000
     30 H12         3.1060    0.2300    5.7950 ha        1 OEF      0.148000
     31 H15         2.4380    5.8750    4.2770 hc        1 OEF      0.065700
     32 H10         3.7580    2.3290    7.0020 ha        1 OEF      0.127000
     33 H1          3.7520    4.5750    6.9230 ho        1 OEF      0.410000
     34 H141       -0.5430    1.9220   -2.2460 hc        1 OEF      0.027200
     35 H142       -1.8770    1.5340   -1.0850 hc        1 OEF      0.027200
     36 H161        0.1630    4.5030    2.6820 hc        1 OEF      0.037033
     37 H162        0.0420    5.1760    4.3600 hc        1 OEF      0.037033
     38 H163        0.3780    6.2810    2.9600 hc        1 OEF      0.037033
     39 H171        2.4530    4.4620    1.5190 hc        1 OEF      0.037033
     40 H172        3.8980    5.1090    2.4020 hc        1 OEF      0.037033
     41 H173        2.6000    6.2410    1.8310 hc        1 OEF      0.037033
@<TRIPOS>BOND
     1    1    3 ar  
     2    1   11 ar  
     3    1   13 1   
     4    2    4 ar  
     5    2   12 ar  
     6    2   18 1   
     7    3    5 ar  
     8    3   25 1   
     9    4    6 ar  
    10    4   29 1   
    11    5    7 ar  
    12    5   15 1   
    13    6    8 ar  
    14    6   16 1   
    15    7    9 ar  
    16    7   18 1   
    17    8   10 ar  
    18    8   19 1   
    19    9   11 ar  
    20    9   17 1   
    21   10   12 ar  
    22   10   32 1   
    23   11   26 1   
    24   12   30 1   
    25   13   14 1   
    26   13   27 1   
    27   13   28 1   
    28   14   20 1   
    29   14   34 1   
    30   14   35 1   
    31   16   21 1   
    32   16   24 1   
    33   16   31 1   
    34   19   33 1   
    35   20   22 1   
    36   20   23 1   
    37   21   36 1   
    38   21   37 1   
    39   21   38 1   
    40   24   39 1   
    41   24   40 1   
    42   24   41 1   
@<TRIPOS>SUBSTRUCTURE
     1 OEF         1 TEMP              0 ****  ****    0 ROOT
