@<TRIPOS>MOLECULE
OEF
   41    42     1     0     0
SMALL
bcc


@<TRIPOS>ATOM
      1 C1          0.0940   -0.0340   -0.2390 ca        1 OEF     -0.031300
      2 C2          2.2740    1.3090    4.1060 ca        1 OEF      0.102100
      3 C3          1.4890   -0.0140   -0.1390 ca        1 OEF     -0.100000
      4 C4          1.9990    2.5540    3.5320 ca        1 OEF     -0.146000
      5 C5          2.1180    0.0760    1.1050 ca        1 OEF     -0.026900
      6 C6          2.3570    3.7300    4.1960 ca        1 OEF     -0.059300
      7 C7          1.3370    0.1420    2.2720 ca        1 OEF      0.098100
      8 C8          2.9950    3.6230    5.4470 ca        1 OEF      0.085100
      9 C9         -0.0670    0.1240    2.1840 ca        1 OEF     -0.026900
     10 C10         3.2680    2.3720    6.0200 ca        1 OEF     -0.187000
     11 C11        -0.6750    0.0350    0.9310 ca        1 OEF     -0.100000
     12 C12         2.9100    1.2080    5.3540 ca        1 OEF     -0.120000
     13 C13        -0.5760   -0.1290   -1.5640 c3        1 OEF     -0.046100
     14 C14        -1.2820    1.1520   -1.9510 c3        1 OEF     -0.198400
     15 Br1         3.9960    0.0960    1.1470 br        1 OEF     -0.087600
     16 C15         2.0640    5.0660    3.5880 c3        1 OEF     -0.019400
     17 Br2        -1.1700    0.2090    3.7010 br        1 OEF     -0.087600
     18 O2          1.9540    0.0860    3.5220 os        1 OEF     -0.240200
     19 O1          3.3420    4.7980    6.0880 oh        1 OEF     -0.504100
     20 C18        -2.2610    0.9020   -3.1170 c         1 OEF      0.910600
     21 C16         0.5710    5.2610    3.4010 c3        1 OEF     -0.088100
     22 O3         -2.3700    1.8090   -3.9890 o         1 OEF     -0.842300
     23 O4         -2.9120   -0.1820   -3.1280 o         1 OEF     -0.842300
     24 C17         2.7900    5.2280    2.2650 c3        1 OEF     -0.088100
     25 H3          2.0910   -0.0670   -1.0600 ha        1 OEF      0.162000
     26 H11        -1.7750    0.0210    0.8380 ha        1 OEF      0.162000
     27 H131       -1.3430   -0.9550   -1.5420 hc        1 OEF      0.068700
     28 H132        0.1730   -0.3930   -2.3560 hc        1 OEF      0.068700
     29 H4          1.4970    2.6120    2.5520 ha        1 OEF      0.160000
     30 H12         3.1140    0.2180    5.7840 ha        1 OEF      0.148000
     31 H15         2.4360    5.8680    4.2900 hc        1 OEF      0.065700
     32 H10         3.7670    2.3130    6.9980 ha        1 OEF      0.127000
     33 H1          3.7590    4.5590    6.9280 ho        1 OEF      0.410000
     34 H141       -0.5440    1.9360   -2.2470 hc        1 OEF      0.027200
     35 H142       -1.8780    1.5420   -1.0870 hc        1 OEF      0.027200
     36 H161        0.1570    4.4990    2.6970 hc        1 OEF      0.037033
     37 H162        0.0410    5.1660    4.3780 hc        1 OEF      0.037033
     38 H163        0.3710    6.2760    2.9810 hc        1 OEF      0.037033
     39 H171        2.4430    4.4650    1.5270 hc        1 OEF      0.037033
     40 H172        3.8900    5.1100    2.4070 hc        1 OEF      0.037033
     41 H173        2.5900    6.2440    1.8450 hc        1 OEF      0.037033
@<TRIPOS>BOND
     1    1    3 ar  
     2    1   11 ar  
     3    1   13 1   
     4    2    4 ar  
     5    2   12 ar  
     6    2   18 1   
     7    3    5 ar  
     8    3   25 1   
     9    4    6 ar  
    10    4   29 1   
    11    5    7 ar  
    12    5   15 1   
    13    6    8 ar  
    14    6   16 1   
    15    7    9 ar  
    16    7   18 1   
    17    8   10 ar  
    18    8   19 1   
    19    9   11 ar  
    20    9   17 1   
    21   10   12 ar  
    22   10   32 1   
    23   11   26 1   
    24   12   30 1   
    25   13   14 1   
    26   13   27 1   
    27   13   28 1   
    28   14   20 1   
    29   14   34 1   
    30   14   35 1   
    31   16   21 1   
    32   16   24 1   
    33   16   31 1   
    34   19   33 1   
    35   20   22 1   
    36   20   23 1   
    37   21   36 1   
    38   21   37 1   
    39   21   38 1   
    40   24   39 1   
    41   24   40 1   
    42   24   41 1   
@<TRIPOS>SUBSTRUCTURE
     1 OEF         1 TEMP              0 ****  ****    0 ROOT
