@<TRIPOS>MOLECULE
OEF
   41    36     1     0     0
SMALL
bcc


@<TRIPOS>ATOM
      1 C1          1.1820   -2.8890   -1.8720 c1        1 OEF      0.002900
      2 C2         -1.6040   -0.3240    1.3060 c1        1 OEF      0.087600
      3 C3          0.0630   -2.2260   -2.3510 c1        1 OEF     -0.051500
      4 C4         -1.9160    0.9390    0.8260 c1        1 OEF     -0.092500
      5 C5         -0.8820   -1.7320   -1.4660 c1        1 OEF      0.067800
      6 C6         -1.6050    2.0620    1.5750 c1        1 OEF     -0.027100
      7 C7         -0.7080   -1.9010   -0.1010 c1        1 OEF      0.079600
      8 C8         -0.9810    1.9240    2.8050 c1        1 OEF      0.072600
      9 C9          0.4110   -2.5630    0.3780 c1        1 OEF      0.067800
     10 C10        -0.6680    0.6610    3.2860 c1        1 OEF     -0.130500
     11 C11         1.3560   -3.0570   -0.5070 c1        1 OEF     -0.039500
     12 C12        -0.9800   -0.4620    2.5360 c1        1 OEF     -0.061500
     13 C13         2.3000   -3.3230   -2.7950 c3        1 OEF     -0.078300
     14 C14         3.3340   -2.2230   -2.8860 c3        1 OEF     -0.205400
     15 BR1        -2.5100   -1.3480   -2.3920 br        1 OEF     -0.183800
     16 C15        -2.0720    3.3600    0.9500 c3        1 OEF     -0.043600
     17 BR2         0.6220   -3.5960    1.9730 br        1 OEF     -0.178800
     18 O2         -1.7860   -1.6020    0.7490 os        1 OEF     -0.205200
     19 O1         -0.5170    2.6850    3.8940 oh        1 OEF     -0.486600
     20 C18         4.4030   -2.6170   -3.8830 c         1 OEF      0.911600
     21 C16        -0.8710    4.1940    0.5600 c3        1 OEF     -0.089100
     22 O3          5.4660   -3.1600   -3.4830 o         1 OEF     -0.843300
     23 O4          4.2390   -2.3800   -5.1080 o         1 OEF     -0.843300
     24 C17        -2.9160    4.1250    1.9470 c3        1 OEF     -0.089100
     25 H3         -0.0700   -2.1260   -3.3130 ha        1 OEF      0.098500
     26 H11         2.1330   -3.5430   -0.1710 ha        1 OEF      0.113500
     27 H131        2.7170   -4.1340   -2.4420 hc        1 OEF      0.074200
     28 H132        1.9370   -3.5040   -3.6840 hc        1 OEF      0.074200
     29 H4         -2.3560    1.0360   -0.0400 ha        1 OEF      0.099500
     30 H12        -0.7600   -1.3510    2.8740 ha        1 OEF      0.091500
     31 H15        -2.6050    3.1650    0.1560 hc        1 OEF      0.052700
     32 H10        -0.2290    0.5630    4.1520 ha        1 OEF      0.069500
     33 H1          0.3540    2.8380    3.7980 ho        1 OEF      0.408000
     34 H141        2.9040   -1.3950   -3.1800 hc        1 OEF      0.027200
     35 H142        3.7420   -2.0850   -2.0080 hc        1 OEF      0.027200
     36 H161       -0.4850    4.6050    1.3620 hc        1 OEF      0.037200
     37 H162       -1.1500    4.8950   -0.0660 hc        1 OEF      0.037200
     38 H163       -0.2010    3.6210    0.1320 hc        1 OEF      0.037200
     39 H171       -3.6300    3.5450    2.2840 hc        1 OEF      0.037200
     40 H172       -3.3090    4.9080    1.5090 hc        1 OEF      0.037200
     41 H173       -2.3530    4.4170    2.6950 hc        1 OEF      0.037200
@<TRIPOS>BOND
     1    1    3 3   
     2    1   13 1   
     3    2   12 3   
     4    2   18 1   
     5    3   25 1   
     6    4    6 3   
     7    4   29 1   
     8    5    7 3   
     9    5   15 1   
    10    6   16 1   
    11    7   18 1   
    12    8   10 3   
    13    8   19 1   
    14    9   11 3   
    15    9   17 1   
    16   10   32 1   
    17   11   26 1   
    18   12   30 1   
    19   13   14 1   
    20   13   27 1   
    21   13   28 1   
    22   14   20 1   
    23   14   34 1   
    24   14   35 1   
    25   16   21 1   
    26   16   24 1   
    27   16   31 1   
    28   19   33 1   
    29   20   22 1   
    30   20   23 1   
    31   21   36 1   
    32   21   37 1   
    33   21   38 1   
    34   24   39 1   
    35   24   40 1   
    36   24   41 1   
@<TRIPOS>SUBSTRUCTURE
     1 OEF         1 TEMP              0 ****  ****    0 ROOT
