@<TRIPOS>MOLECULE
OEF
   41    42     1     0     0
SMALL
bcc


@<TRIPOS>ATOM
      1 C1          5.2170   -2.9870   -3.4430 ca        1 OEF     -0.031300
      2 C2          2.0220   -1.0540   -0.0530 ca        1 OEF      0.102100
      3 C3          4.0530   -3.6870   -3.1100 ca        1 OEF     -0.100500
      4 C4          2.9760   -1.6590    0.7700 ca        1 OEF     -0.146000
      5 C5          3.0200   -3.0670   -2.4010 ca        1 OEF     -0.026400
      6 C6          2.8400   -1.6070    2.1610 ca        1 OEF     -0.059300
      7 C7          3.1540   -1.7200   -2.0230 ca        1 OEF      0.098100
      8 C8          1.7250   -0.9340    2.6980 ca        1 OEF      0.085100
      9 C9          4.3210   -1.0050   -2.3520 ca        1 OEF     -0.026400
     10 C10         0.7700   -0.3290    1.8680 ca        1 OEF     -0.187000
     11 C11         5.3390   -1.6450   -3.0600 ca        1 OEF     -0.100500
     12 C12         0.9130   -0.3850    0.4870 ca        1 OEF     -0.120000
     13 C13         6.3160   -3.6480   -4.1970 c3        1 OEF     -0.046100
     14 C14         7.5500   -3.8690   -3.3510 c3        1 OEF     -0.198400
     15 BR1         1.4930   -4.0810   -1.9950 br        1 OEF     -0.087600
     16 C15         3.8580   -2.2510    3.0480 c3        1 OEF     -0.019400
     17 BR2         4.5640    0.7950   -1.8790 br        1 OEF     -0.087600
     18 O2          2.0730   -1.0520   -1.4450 os        1 OEF     -0.240200
     19 O1          1.6080   -0.8950    4.0750 oh        1 OEF     -0.504100
     20 C18         8.7690   -4.1950   -4.2400 c         1 OEF      0.910600
     21 C16         5.2250   -1.6230    2.8490 c3        1 OEF     -0.088100
     22 O3          9.5940   -5.0460   -3.8050 o         1 OEF     -0.842300
     23 O4          8.8840   -3.5830   -5.3400 o         1 OEF     -0.842300
     24 C17         3.9220   -3.7470    2.8030 c3        1 OEF     -0.088100
     25 H3          3.9590   -4.7430   -3.4110 ha        1 OEF      0.162000
     26 H11         6.2640   -1.1040   -3.3270 ha        1 OEF      0.162000
     27 H131        5.9660   -4.6320   -4.6060 hc        1 OEF      0.068700
     28 H132        6.6110   -3.0070   -5.0770 hc        1 OEF      0.068700
     29 H4          3.8410   -2.1780    0.3260 ha        1 OEF      0.160000
     30 H12         0.1770    0.0830   -0.1810 ha        1 OEF      0.148000
     31 H15         3.5520   -2.0860    4.1230 hc        1 OEF      0.065700
     32 H10        -0.0910    0.1910    2.3090 ha        1 OEF      0.127000
     33 H1          0.8060   -0.3970    4.2840 ho        1 OEF      0.410000
     34 H141        7.7930   -2.9440   -2.7700 hc        1 OEF      0.027200
     35 H142        7.3860   -4.7020   -2.6240 hc        1 OEF      0.027200
     36 H161        5.5820   -1.7750    1.8020 hc        1 OEF      0.037033
     37 H162        5.9620   -2.0900    3.5460 hc        1 OEF      0.037033
     38 H163        5.1830   -0.5270    3.0540 hc        1 OEF      0.037033
     39 H171        2.9220   -4.2120    2.9740 hc        1 OEF      0.037033
     40 H172        4.6590   -4.2150    3.4990 hc        1 OEF      0.037033
     41 H173        4.2390   -3.9630    1.7540 hc        1 OEF      0.037033
@<TRIPOS>BOND
     1    1    3 ar  
     2    1   11 ar  
     3    1   13 1   
     4    2    4 ar  
     5    2   12 ar  
     6    2   18 1   
     7    3    5 ar  
     8    3   25 1   
     9    4    6 ar  
    10    4   29 1   
    11    5    7 ar  
    12    5   15 1   
    13    6    8 ar  
    14    6   16 1   
    15    7    9 ar  
    16    7   18 1   
    17    8   10 ar  
    18    8   19 1   
    19    9   11 ar  
    20    9   17 1   
    21   10   12 ar  
    22   10   32 1   
    23   11   26 1   
    24   12   30 1   
    25   13   14 1   
    26   13   27 1   
    27   13   28 1   
    28   14   20 1   
    29   14   34 1   
    30   14   35 1   
    31   16   21 1   
    32   16   24 1   
    33   16   31 1   
    34   19   33 1   
    35   20   22 1   
    36   20   23 1   
    37   21   36 1   
    38   21   37 1   
    39   21   38 1   
    40   24   39 1   
    41   24   40 1   
    42   24   41 1   
@<TRIPOS>SUBSTRUCTURE
     1 OEF         1 TEMP              0 ****  ****    0 ROOT
