@<TRIPOS>MOLECULE
OEG
   13    12     1     0     0
SMALL
bcc


@<TRIPOS>ATOM
      1 C1         -0.2950   -0.2340   -0.0510 c         1 OEG      0.919600
      2 O1          0.6890    0.2090   -0.7140 o         1 OEG     -0.863300
      3 C2         -0.5730    0.3680    1.3410 c3        1 OEG      0.022400
      4 O2          0.0580   -0.3870    2.3710 os        1 OEG     -0.376600
      5 C3         -0.2110    0.1890    3.6470 c3        1 OEG      0.022400
      6 C4          0.4610   -0.6130    4.7790 c         1 OEG      0.919600
      7 O3          1.6130   -0.2590    5.1680 o         1 OEG     -0.863300
      8 O4         -0.2090   -1.5180    5.3570 o         1 OEG     -0.863300
      9 O5         -1.1250   -1.0630   -0.5270 o         1 OEG     -0.863300
     10 H1         -0.1910    1.4250    1.3670 h1        1 OEG     -0.013300
     11 H2         -1.6830    0.3840    1.5190 h1        1 OEG     -0.013300
     12 H3          0.1720    1.2450    3.6660 h1        1 OEG     -0.013300
     13 H4         -1.3220    0.2080    3.8180 h1        1 OEG     -0.013300
@<TRIPOS>BOND
     1    1    2 1   
     2    1    3 1   
     3    1    9 1   
     4    3    4 1   
     5    3   10 1   
     6    3   11 1   
     7    4    5 1   
     8    5    6 1   
     9    5   12 1   
    10    5   13 1   
    11    6    7 1   
    12    6    8 1   
@<TRIPOS>SUBSTRUCTURE
     1 OEG         1 TEMP              0 ****  ****    0 ROOT
