@<TRIPOS>MOLECULE
OEG
   13    11     1     0     0
SMALL
bcc


@<TRIPOS>ATOM
      1 C1          1.1330    1.0570   -1.8730 c1        1 OEG      0.339000
      2 O1          2.3920    1.0570   -1.8730 o         1 OEG     -0.598000
      3 C2          0.3770    1.0570   -0.5630 c2        1 OEG     -0.078000
      4 O2          0.0940   -0.2690   -0.1840 os        1 OEG     -0.233000
      5 C3         -0.6110   -0.3780    1.0300 c3        1 OEG     -0.078000
      6 C4         -0.8650   -1.8370    1.3370 c2        1 OEG      0.339000
      7 O3         -1.9330   -2.3840    0.9570 o         1 OEG     -0.598000
      8 O4         -0.0070   -2.5050    1.9730 o         1 OEG     -0.598000
      9 O5          0.5040    1.0570   -2.9640 o         1 OEG     -0.598000
     10 H1         -0.4590    1.5500   -0.6700 h4        1 OEG      0.026000
     11 H2          0.9200    1.4840    0.1260 h4        1 OEG      0.026000
     12 H3         -0.0830    0.0190    1.7490 h1        1 OEG      0.026000
     13 H4         -1.4630    0.0920    0.9550 h1        1 OEG      0.026000
@<TRIPOS>BOND
     1    1    2 1   
     2    1    9 1   
     3    3    4 1   
     4    3   10 1   
     5    3   11 1   
     6    4    5 1   
     7    5    6 1   
     8    5   12 1   
     9    5   13 1   
    10    6    7 1   
    11    6    8 1   
@<TRIPOS>SUBSTRUCTURE
     1 OEG         1 TEMP              0 ****  ****    0 ROOT
