@<TRIPOS>MOLECULE
OEG
   13    12     1     0     0
SMALL
bcc


@<TRIPOS>ATOM
      1 C1          2.4450   -0.0630    0.1480 c         1 OEG      0.919600
      2 O1          2.9060   -0.3720    1.2860 o         1 OEG     -0.863300
      3 C2          1.1690    0.8000    0.0820 c3        1 OEG      0.022400
      4 O2         -0.0010   -0.0080   -0.0090 os        1 OEG     -0.376600
      5 C3         -1.1670    0.8090   -0.0680 c3        1 OEG      0.022400
      6 C4         -2.4480   -0.0430   -0.1660 c         1 OEG      0.919600
      7 O3         -2.9110   -0.3060   -1.3150 o         1 OEG     -0.863300
      8 O4         -3.0540   -0.3480    0.9030 o         1 OEG     -0.863300
      9 O5          3.0490   -0.3310   -0.9330 o         1 OEG     -0.863300
     10 H1          1.1090    1.4390    1.0040 h1        1 OEG     -0.013300
     11 H2          1.2260    1.4730   -0.8170 h1        1 OEG     -0.013300
     12 H3         -1.2200    1.4480    0.8550 h1        1 OEG     -0.013300
     13 H4         -1.1030    1.4820   -0.9660 h1        1 OEG     -0.013300
@<TRIPOS>BOND
     1    1    2 1   
     2    1    3 1   
     3    1    9 1   
     4    3    4 1   
     5    3   10 1   
     6    3   11 1   
     7    4    5 1   
     8    5    6 1   
     9    5   12 1   
    10    5   13 1   
    11    6    7 1   
    12    6    8 1   
@<TRIPOS>SUBSTRUCTURE
     1 OEG         1 TEMP              0 ****  ****    0 ROOT
