@<TRIPOS>MOLECULE
OEG
   13    12     1     0     0
SMALL
bcc


@<TRIPOS>ATOM
      1 C1          0.0020    0.1400   -0.0510 c         1 OEG      0.919600
      2 O1          0.2690    1.2730   -0.5490 o         1 OEG     -0.863300
      3 C2         -0.6880    0.0860    1.3260 c3        1 OEG      0.022400
      4 O2          0.2630   -0.0200    2.3820 os        1 OEG     -0.376600
      5 C3         -0.3970   -0.0680    3.6440 c3        1 OEG      0.022400
      6 C4          0.6120   -0.1830    4.8040 c         1 OEG      0.919600
      7 O3          0.9140   -1.3380    5.2290 o         1 OEG     -0.863300
      8 O4          1.0120    0.8790    5.3640 o         1 OEG     -0.863300
      9 O5          0.1700   -0.9440   -0.6840 o         1 OEG     -0.863300
     10 H1         -1.2980    1.0200    1.4690 h1        1 OEG     -0.013300
     11 H2         -1.3790   -0.8000    1.3580 h1        1 OEG     -0.013300
     12 H3         -1.0080    0.8660    3.7800 h1        1 OEG     -0.013300
     13 H4         -1.0880   -0.9540    3.6680 h1        1 OEG     -0.013300
@<TRIPOS>BOND
     1    1    2 1   
     2    1    3 1   
     3    1    9 1   
     4    3    4 1   
     5    3   10 1   
     6    3   11 1   
     7    4    5 1   
     8    5    6 1   
     9    5   12 1   
    10    5   13 1   
    11    6    7 1   
    12    6    8 1   
@<TRIPOS>SUBSTRUCTURE
     1 OEG         1 TEMP              0 ****  ****    0 ROOT
