@<TRIPOS>MOLECULE
OEL
   45    43     1     0     0
SMALL
bcc


@<TRIPOS>ATOM
      1 C1         -1.6650    1.3370   -2.3550 c1        1 OEL      0.896000
      2 C2          0.7060    1.5860    1.2660 c2        1 OEL     -0.104900
      3 C3          0.0720    1.8240    2.4370 c2        1 OEL      0.100500
      4 F3         -1.2580    1.6770    2.5550 f         1 OEL     -0.142500
      5 C4          5.1640   -0.1710    1.1200 c2        1 OEL      0.415200
      6 N4          6.4410   -0.0280    1.2020 ne        1 OEL     -0.509700
      7 C5          4.2480    0.9970    1.4560 c3        1 OEL      0.079200
      8 N5          4.8420    2.3250    1.0980 ny        1 OEL     -0.668800
      9 C6          2.8730    0.7940    0.7690 c3        1 OEL      0.027100
     10 O6          2.0650    1.8930    1.1980 os        1 OEL     -0.355900
     11 C7          2.9990    0.7390   -0.7520 c         1 OEL      0.529100
     12 O7          3.3480   -0.3140   -1.2840 o         1 OEL     -0.467100
     13 C8          2.6470    1.9860   -1.5450 c3        1 OEL      0.064100
     14 O8          3.6620    2.9490   -1.2840 oh        1 OEL     -0.666800
     15 C9          2.5450    1.6720   -3.0430 c3        1 OEL      0.103400
     16 O9          2.4950    2.9320   -3.6910 oh        1 OEL     -0.620800
     17 O1A        -2.7340    1.3840   -2.8630 o         1 OEL     -0.447500
     18 O1B        -0.5850    1.2910   -1.8440 o         1 OEL     -0.447500
     19 N41         7.3860   -0.8970    0.7510 ne        1 OEL      0.071000
     20 N42         8.0580   -1.6870    1.3610 n2        1 OEL     -0.321400
     21 C51         5.9600    2.7740    2.0190 c         1 OEL      0.568100
     22 C52         7.0700    3.5480    1.3430 c3        1 OEL     -0.121700
     23 O52         5.8510    2.4650    3.1940 o         1 OEL     -0.421100
     24 C53         8.0180    4.0810    2.4010 c3        1 OEL     -0.111600
     25 C54         6.5280    4.6730    0.4870 c3        1 OEL     -0.111600
     26 H2          0.2430    1.2430    0.3300 h4        1 OEL      0.178000
     27 H3          0.5750    2.1800    3.3530 h4        1 OEL      0.163000
     28 H4          4.6150   -1.0890    0.8130 h4        1 OEL      0.047800
     29 H5          4.0740    1.0050    2.5800 hx        1 OEL      0.144700
     30 HN5         4.0850    3.0290    1.1130 hn        1 OEL      0.479800
     31 H6          2.4460   -0.1850    1.1330 h1        1 OEL      0.118700
     32 H8          1.6580    2.3890   -1.1750 h1        1 OEL      0.099700
     33 HO8         3.5910    3.6320   -1.9700 ho        1 OEL      0.469000
     34 H9          3.4380    1.0860   -3.3880 h1        1 OEL      0.061700
     35 H9A         1.6060    1.0890   -3.2380 h1        1 OEL      0.061700
     36 HO9         2.4850    2.7620   -4.6410 ho        1 OEL      0.436000
     37 HN42        7.9310   -1.9080    2.3440 hn        1 OEL      0.401400
     38 H52         7.6280    2.8090    0.6930 hc        1 OEL      0.114700
     39 H53         8.3780    3.2540    3.0600 hc        1 OEL      0.068033
     40 H53A        7.5140    4.8490    3.0360 hc        1 OEL      0.068033
     41 H53B        8.9000    4.5510    1.9000 hc        1 OEL      0.068033
     42 H54         7.3860    5.2860    0.1080 hc        1 OEL      0.068033
     43 H54A        5.8630    5.3460    1.0810 hc        1 OEL      0.068033
     44 H54B        5.9650    4.2930   -0.4010 hc        1 OEL      0.068033
     45 H521        5.1930    2.2890    0.1290 hn        1 OEL      0.479800
@<TRIPOS>BOND
     1    1   17 2   
     2    1   18 2   
     3    2    3 2   
     4    2   10 1   
     5    2   26 1   
     6    3    4 1   
     7    3   27 1   
     8    5    6 2   
     9    5    7 1   
    10    5   28 1   
    11    6   19 1   
    12    7    8 1   
    13    7    9 1   
    14    7   29 1   
    15    8   21 1   
    16    8   30 1   
    17    8   45 1   
    18    9   10 1   
    19    9   11 1   
    20    9   31 1   
    21   11   12 2   
    22   11   13 1   
    23   13   14 1   
    24   13   15 1   
    25   13   32 1   
    26   14   33 1   
    27   15   16 1   
    28   15   34 1   
    29   15   35 1   
    30   16   36 1   
    31   19   20 2   
    32   20   37 1   
    33   21   22 1   
    34   21   23 2   
    35   22   24 1   
    36   22   25 1   
    37   22   38 1   
    38   24   39 1   
    39   24   40 1   
    40   24   41 1   
    41   25   42 1   
    42   25   43 1   
    43   25   44 1   
@<TRIPOS>SUBSTRUCTURE
     1 OEL         1 TEMP              0 ****  ****    0 ROOT
