@<TRIPOS>MOLECULE
OEL
   45    43     1     0     0
SMALL
bcc


@<TRIPOS>ATOM
      1 C1         -2.0410    3.1340   -3.8040 c1        1 OEL      0.899000
      2 C2          1.3250   -0.5060    1.3830 c2        1 OEL     -0.113900
      3 C3          0.5350   -0.3140    2.4660 c2        1 OEL      0.086500
      4 F3         -0.0820   -1.3420    3.0720 f         1 OEL     -0.141500
      5 C4          4.4270    0.2130    2.3730 c2        1 OEL      0.422200
      6 N4          5.6370    0.0020    2.7550 ne        1 OEL     -0.514700
      7 C5          4.0900    1.2200    1.2870 c3        1 OEL      0.055200
      8 N5          5.2830    1.8340    0.6210 n4        1 OEL     -0.677800
      9 C6          3.1490    0.5020    0.2680 c3        1 OEL      0.032100
     10 O6          1.8190    0.6400    0.7600 os        1 OEL     -0.313900
     11 C7          3.2110    1.1770   -1.1030 c         1 OEL      0.541100
     12 O7          3.9690    0.7160   -1.9550 o         1 OEL     -0.480100
     13 C8          2.4120    2.4540   -1.2840 c3        1 OEL      0.022100
     14 O8          3.2340    3.4730   -0.7150 oh        1 OEL     -0.660800
     15 C9          2.1070    2.7290   -2.7640 c3        1 OEL      0.103400
     16 O9          1.8390    4.1050   -2.9170 oh        1 OEL     -0.598800
     17 O1A        -3.0910    3.1760   -4.3510 o         1 OEL     -0.448500
     18 O1B        -0.9840    3.0870   -3.2500 o         1 OEL     -0.448500
     19 N41         6.0640   -1.0150    3.5540 ne        1 OEL      0.071000
     20 N42         6.3590   -1.0010    4.7200 n2        1 OEL     -0.322400
     21 C51         6.1770    2.6350    1.5540 c         1 OEL      0.566100
     22 C52         7.5790    2.8840    1.0370 c3        1 OEL     -0.118700
     23 O52         5.6700    3.0340    2.5880 o         1 OEL     -0.414100
     24 C53         8.3770    3.6010    2.1110 c3        1 OEL     -0.113600
     25 C54         8.2650    1.6000    0.6200 c3        1 OEL     -0.113600
     26 H2          1.5390   -1.4690    0.9020 h4        1 OEL      0.172000
     27 H3          0.3120    0.6760    2.9010 h4        1 OEL      0.168000
     28 H4          3.5070   -0.2870    2.7540 h4        1 OEL      0.037800
     29 H5          3.5090    2.0710    1.7680 hx        1 OEL      0.154700
     30 HN5         4.9490    2.4840   -0.1140 hn        1 OEL      0.475800
     31 H6          3.4500   -0.5790    0.1630 h1        1 OEL      0.108700
     32 H8          1.4590    2.4020   -0.6840 h1        1 OEL      0.099700
     33 HO8         3.0730    4.2940   -1.2100 ho        1 OEL      0.468000
     34 H9          1.2500    2.0920   -3.1030 h1        1 OEL      0.083700
     35 H9A         3.0140    2.5270   -3.3960 h1        1 OEL      0.083700
     36 HO9         0.8900    4.2410   -2.7880 ho        1 OEL      0.431000
     37 HN42        6.2190   -0.2060    5.3360 hn        1 OEL      0.400400
     38 H52         7.4800    3.5670    0.1420 hc        1 OEL      0.099700
     39 H53         8.5510    2.9300    2.9870 hc        1 OEL      0.070867
     40 H53A        9.3660    3.9070    1.6900 hc        1 OEL      0.070867
     41 H53B        7.8370    4.5140    2.4620 hc        1 OEL      0.070867
     42 H54         9.3640    1.7910    0.5130 hc        1 OEL      0.070867
     43 H54A        7.8920    1.2340   -0.3670 hc        1 OEL      0.070867
     44 H54B        8.1310    0.7980    1.3870 hc        1 OEL      0.070867
     45 H521        5.8420    1.0950    0.1780 hn        1 OEL      0.475800
@<TRIPOS>BOND
     1    1   17 2   
     2    1   18 2   
     3    2    3 2   
     4    2   10 1   
     5    2   26 1   
     6    3    4 1   
     7    3   27 1   
     8    5    6 2   
     9    5    7 1   
    10    5   28 1   
    11    6   19 1   
    12    7    8 1   
    13    7    9 1   
    14    7   29 1   
    15    8   21 1   
    16    8   30 1   
    17    8   45 1   
    18    9   10 1   
    19    9   11 1   
    20    9   31 1   
    21   11   12 2   
    22   11   13 1   
    23   13   14 1   
    24   13   15 1   
    25   13   32 1   
    26   14   33 1   
    27   15   16 1   
    28   15   34 1   
    29   15   35 1   
    30   16   36 1   
    31   19   20 2   
    32   20   37 1   
    33   21   22 1   
    34   21   23 2   
    35   22   24 1   
    36   22   25 1   
    37   22   38 1   
    38   24   39 1   
    39   24   40 1   
    40   24   41 1   
    41   25   42 1   
    42   25   43 1   
    43   25   44 1   
@<TRIPOS>SUBSTRUCTURE
     1 OEL         1 TEMP              0 ****  ****    0 ROOT
