@<TRIPOS>MOLECULE
OEM
   17    16     1     0     0
SMALL
bcc


@<TRIPOS>ATOM
      1 C           1.7780    0.5490   -0.0370 c         1 OEM      0.915600
      2 N           0.3180   -1.4440   -0.3720 n3        1 OEM     -0.818200
      3 O           1.9980    1.4060   -0.9420 o         1 OEM     -0.878300
      4 CA          0.3590   -0.0710    0.1370 c3        1 OEM      0.087500
      5 CB         -0.7180    0.8110   -0.4970 c3        1 OEM     -0.164400
      6 CG         -2.1490    0.4230   -0.1290 c         1 OEM      0.893600
      7 CAA         0.9560   -2.3870    0.5020 c3        1 OEM      0.163100
      8 OD1        -2.5490   -0.7780   -0.2670 o         1 OEM     -0.888800
      9 OD2        -2.9400    1.3310    0.2800 o         1 OEM     -0.888800
     10 OXT         2.6810    0.1850    0.7820 o         1 OEM     -0.878300
     11 HA          0.1650   -0.0700    1.2560 h1        1 OEM     -0.001300
     12 HB         -0.5250    1.8640   -0.1710 hc        1 OEM      0.037200
     13 HBA        -0.6190    0.7840   -1.6120 hc        1 OEM      0.037200
     14 HAA         1.9760   -2.0010    0.7750 h1        1 OEM      0.001033
     15 HAAA        0.3940   -2.5930    1.4580 h1        1 OEM      0.001033
     16 H8         -0.6470   -1.6990   -0.5250 hn        1 OEM      0.380800
     17 H9          1.0580   -3.3660   -0.0410 h1        1 OEM      0.001033
@<TRIPOS>BOND
     1    1    3 1   
     2    1    4 1   
     3    1   10 1   
     4    2    4 1   
     5    2    7 1   
     6    2   16 1   
     7    4    5 1   
     8    4   11 1   
     9    5    6 1   
    10    5   12 1   
    11    5   13 1   
    12    6    8 1   
    13    6    9 1   
    14    7   14 1   
    15    7   15 1   
    16    7   17 1   
@<TRIPOS>SUBSTRUCTURE
     1 OEM         1 TEMP              0 ****  ****    0 ROOT
