@<TRIPOS>MOLECULE
OEM
   17    15     1     0     0
SMALL
bcc


@<TRIPOS>ATOM
      1 C          -1.5970    0.1740   -0.0250 c1        1 OEM      0.763000
      2 N           0.2590   -1.2210   -0.6140 nh        1 OEM     -0.346100
      3 O          -2.2640   -0.6620    0.6400 o         1 OEM     -0.847500
      4 CA         -0.0920    0.0560   -0.0960 c2        1 OEM      0.175200
      5 CB          0.4930    0.2160    1.2890 c3        1 OEM     -0.229700
      6 CG          0.0670    1.5480    1.8650 c         1 OEM      0.911600
      7 CAA         0.9200   -1.0600   -1.8670 c3        1 OEM     -0.018400
      8 OD1         0.7160    2.5910    1.5880 o         1 OEM     -0.887300
      9 OD2        -0.9370    1.6150    2.6220 o         1 OEM     -0.887300
     10 OXT        -2.1850    1.1080   -0.6310 o         1 OEM     -0.847500
     11 HA          0.2630    0.7530   -0.6820 h4        1 OEM     -0.027200
     12 HB          0.1700   -0.5060    1.8650 hc        1 OEM      0.025200
     13 HBA         1.4690    0.1800    1.2380 hc        1 OEM      0.025200
     14 HAA         0.3060   -0.6440   -2.5090 h1        1 OEM      0.001700
     15 HAAA        1.2010   -1.9380   -2.2040 h1        1 OEM      0.001700
     16 H8         -0.4970   -1.7210   -0.7300 hn        1 OEM      0.184700
     17 H9          1.7090   -0.4880   -1.7500 h1        1 OEM      0.001700
@<TRIPOS>BOND
     1    1    3 2   
     2    1   10 2   
     3    2    4 2   
     4    2    7 1   
     5    2   16 1   
     6    4    5 1   
     7    4   11 1   
     8    5    6 1   
     9    5   12 1   
    10    5   13 1   
    11    6    8 1   
    12    6    9 1   
    13    7   14 1   
    14    7   15 1   
    15    7   17 1   
@<TRIPOS>SUBSTRUCTURE
     1 OEM         1 TEMP              0 ****  ****    0 ROOT
