@<TRIPOS>MOLECULE
OES
   35    34     1     0     0
SMALL
bcc


@<TRIPOS>ATOM
      1 C1         -0.1540   -0.0770    7.5390 c3        1 OES     -0.093100
      2 C2          0.5800    0.2600    6.2670 c3        1 OES     -0.080400
      3 C3         -0.2210   -0.1320    5.0430 c3        1 OES     -0.079400
      4 C4          0.5210    0.2080    3.7680 c3        1 OES     -0.078400
      5 C5         -0.2810   -0.1840    2.5460 c3        1 OES     -0.079400
      6 C6          0.4620    0.1560    1.2710 c3        1 OES     -0.075400
      7 C7         -0.3420   -0.2350    0.0490 c3        1 OES     -0.058400
      8 C8          0.3960    0.0990   -1.2240 c3        1 OES     -0.091100
      9 S2         -0.5700   -0.4100   -2.6010 s4        1 OES      0.251600
     10 C22         0.6590   -0.2650   -3.8480 c3        1 OES     -0.102100
     11 C23         0.0390   -0.0700   -5.2140 c3        1 OES      0.154400
     12 O2         -1.5400    0.6960   -2.8480 o         1 OES     -0.503200
     13 O3          1.1040    0.0640   -6.1440 oh        1 OES     -0.601800
     14 HC11       -0.3550   -1.1740    7.6000 hc        1 OES      0.032700
     15 HC12        0.4530    0.2200    8.4280 hc        1 OES      0.032700
     16 HC13       -1.1330    0.4600    7.5840 hc        1 OES      0.032700
     17 HC21        0.7940    1.3610    6.2360 hc        1 OES      0.038200
     18 HC22        1.5690   -0.2690    6.2520 hc        1 OES      0.038200
     19 HC31       -0.4350   -1.2330    5.0720 hc        1 OES      0.039700
     20 HC32       -1.2100    0.3970    5.0560 hc        1 OES      0.039700
     21 HC41        0.7340    1.3090    3.7400 hc        1 OES      0.039700
     22 HC42        1.5100   -0.3210    3.7560 hc        1 OES      0.039700
     23 HC51       -0.4950   -1.2850    2.5740 hc        1 OES      0.041200
     24 HC52       -1.2700    0.3460    2.5580 hc        1 OES      0.041200
     25 HC61        0.6750    1.2570    1.2420 hc        1 OES      0.042700
     26 HC62        1.4500   -0.3730    1.2580 hc        1 OES      0.042700
     27 HC71       -0.5580   -1.3370    0.0860 hc        1 OES      0.047700
     28 HC72       -1.3270    0.3040    0.0620 hc        1 OES      0.047700
     29 HC81        0.6140    1.1960   -1.2470 h1        1 OES      0.086700
     30 HC82        1.3820   -0.4280   -1.2430 h1        1 OES      0.086700
     31 H221        1.3730    0.5770   -3.6640 h1        1 OES      0.093700
     32 H222        1.2730   -1.2010   -3.8490 h1        1 OES      0.093700
     33 H231       -0.5870   -0.9610   -5.4970 h1        1 OES      0.037700
     34 H232       -0.6080    0.8500   -5.2170 h1        1 OES      0.037700
     35 HO31        0.7110    0.3730   -6.9680 ho        1 OES      0.402000
@<TRIPOS>BOND
     1    1    2 1   
     2    1   14 1   
     3    1   15 1   
     4    1   16 1   
     5    2    3 1   
     6    2   17 1   
     7    2   18 1   
     8    3    4 1   
     9    3   19 1   
    10    3   20 1   
    11    4    5 1   
    12    4   21 1   
    13    4   22 1   
    14    5    6 1   
    15    5   23 1   
    16    5   24 1   
    17    6    7 1   
    18    6   25 1   
    19    6   26 1   
    20    7    8 1   
    21    7   27 1   
    22    7   28 1   
    23    8    9 1   
    24    8   29 1   
    25    8   30 1   
    26    9   10 1   
    27    9   12 2   
    28   10   11 1   
    29   10   31 1   
    30   10   32 1   
    31   11   13 1   
    32   11   33 1   
    33   11   34 1   
    34   13   35 1   
@<TRIPOS>SUBSTRUCTURE
     1 OES         1 TEMP              0 ****  ****    0 ROOT
