@<TRIPOS>MOLECULE
OES
   35    34     1     0     0
SMALL
bcc


@<TRIPOS>ATOM
      1 C1          0.0640    0.0320   -0.0290 c3        1 OES     -0.093100
      2 C2          1.5670   -0.0600    0.0190 c3        1 OES     -0.080400
      3 C3          2.0840    0.0280    1.4400 c3        1 OES     -0.079400
      4 C4          3.5940   -0.0650    1.4840 c3        1 OES     -0.078400
      5 C5          4.1080    0.0220    2.9040 c3        1 OES     -0.079400
      6 C6          5.6190   -0.0700    2.9470 c3        1 OES     -0.075400
      7 C7          6.1330    0.0160    4.3690 c3        1 OES     -0.058400
      8 C8          7.6380   -0.0720    4.4150 c3        1 OES     -0.091100
      9 S2          8.1720    0.0680    6.0840 s4        1 OES      0.251600
     10 C22         9.8850    0.3230    5.7870 c3        1 OES     -0.102100
     11 C23        10.7190   -0.0860    6.9820 c3        1 OES      0.154400
     12 O2          8.0530   -1.3000    6.6650 o         1 OES     -0.503200
     13 O3         12.0790    0.1290    6.6380 oh        1 OES     -0.601800
     14 HC11       -0.4010   -0.7980    0.5550 hc        1 OES      0.032700
     15 HC12       -0.2950   -0.0340   -1.0840 hc        1 OES      0.032700
     16 HC13       -0.2860    1.0020    0.4020 hc        1 OES      0.032700
     17 HC21        2.0150    0.7670   -0.5930 hc        1 OES      0.038200
     18 HC22        1.9010   -1.0280   -0.4400 hc        1 OES      0.038200
     19 HC31        1.7520    0.9960    1.9010 hc        1 OES      0.039700
     20 HC32        1.6380   -0.7990    2.0530 hc        1 OES      0.039700
     21 HC41        3.9250   -1.0330    1.0230 hc        1 OES      0.039700
     22 HC42        4.0390    0.7620    0.8700 hc        1 OES      0.039700
     23 HC51        3.7770    0.9900    3.3660 hc        1 OES      0.041200
     24 HC52        3.6640   -0.8060    3.5170 hc        1 OES      0.041200
     25 HC61        5.9500   -1.0380    2.4870 hc        1 OES      0.042700
     26 HC62        6.0650    0.7580    2.3350 hc        1 OES      0.042700
     27 HC71        5.6910   -0.8200    4.9750 hc        1 OES      0.047700
     28 HC72        5.7920    0.9830    4.8270 hc        1 OES      0.047700
     29 HC81        7.9660   -1.0340    3.9500 h1        1 OES      0.086700
     30 HC82        8.0870    0.7520    3.8080 h1        1 OES      0.086700
     31 H221       10.2620   -0.2310    4.8910 h1        1 OES      0.093700
     32 H222       10.0480    1.4090    5.5750 h1        1 OES      0.093700
     33 H231       10.4620    0.5410    7.8790 h1        1 OES      0.037700
     34 H232       10.5380   -1.1690    7.2270 h1        1 OES      0.037700
     35 HO31       12.6060   -0.3050    7.3190 ho        1 OES      0.402000
@<TRIPOS>BOND
     1    1    2 1   
     2    1   14 1   
     3    1   15 1   
     4    1   16 1   
     5    2    3 1   
     6    2   17 1   
     7    2   18 1   
     8    3    4 1   
     9    3   19 1   
    10    3   20 1   
    11    4    5 1   
    12    4   21 1   
    13    4   22 1   
    14    5    6 1   
    15    5   23 1   
    16    5   24 1   
    17    6    7 1   
    18    6   25 1   
    19    6   26 1   
    20    7    8 1   
    21    7   27 1   
    22    7   28 1   
    23    8    9 1   
    24    8   29 1   
    25    8   30 1   
    26    9   10 1   
    27    9   12 2   
    28   10   11 1   
    29   10   31 1   
    30   10   32 1   
    31   11   13 1   
    32   11   33 1   
    33   11   34 1   
    34   13   35 1   
@<TRIPOS>SUBSTRUCTURE
     1 OES         1 TEMP              0 ****  ****    0 ROOT
