@<TRIPOS>MOLECULE
OES
   35    34     1     0     0
SMALL
bcc


@<TRIPOS>ATOM
      1 C1          0.0640    0.0190   -0.0290 c3        1 OES     -0.093100
      2 C2          1.5660   -0.0800    0.0210 c3        1 OES     -0.080400
      3 C3          2.0840    0.0240    1.4400 c3        1 OES     -0.079400
      4 C4          3.5930   -0.0770    1.4840 c3        1 OES     -0.078400
      5 C5          4.1090    0.0280    2.9040 c3        1 OES     -0.079400
      6 C6          5.6190   -0.0730    2.9470 c3        1 OES     -0.075400
      7 C7          6.1330    0.0300    4.3670 c3        1 OES     -0.058400
      8 C8          7.6380   -0.0670    4.4150 c3        1 OES     -0.091100
      9 S2          8.1740    0.0930    6.0820 s4        1 OES      0.251600
     10 C22         9.8890    0.3270    5.7820 c3        1 OES     -0.102100
     11 C23        10.7190   -0.0720    6.9820 c3        1 OES      0.154400
     12 O2          8.0420   -1.2650    6.6840 o         1 OES     -0.503200
     13 O3         12.0810    0.1240    6.6350 oh        1 OES     -0.601800
     14 HC11       -0.4060   -0.8010    0.5670 hc        1 OES      0.032700
     15 HC12       -0.2960   -0.0600   -1.0830 hc        1 OES      0.032700
     16 HC13       -0.2810    0.9960    0.3900 hc        1 OES      0.032700
     17 HC21        2.0190    0.7360   -0.6030 hc        1 OES      0.038200
     18 HC22        1.8940   -1.0560   -0.4260 hc        1 OES      0.038200
     19 HC31        1.7580    1.0000    1.8870 hc        1 OES      0.039700
     20 HC32        1.6340   -0.7930    2.0640 hc        1 OES      0.039700
     21 HC41        3.9190   -1.0530    1.0370 hc        1 OES      0.039700
     22 HC42        4.0430    0.7390    0.8600 hc        1 OES      0.039700
     23 HC51        3.7830    1.0040    3.3510 hc        1 OES      0.041200
     24 HC52        3.6590   -0.7890    3.5280 hc        1 OES      0.041200
     25 HC61        5.9440   -1.0500    2.5010 hc        1 OES      0.042700
     26 HC62        6.0690    0.7430    2.3230 hc        1 OES      0.042700
     27 HC71        5.6860   -0.7940    4.9860 hc        1 OES      0.047700
     28 HC72        5.8000    1.0060    4.8120 hc        1 OES      0.047700
     29 HC81        7.9600   -1.0390    3.9630 h1        1 OES      0.086700
     30 HC82        8.0930    0.7450    3.7960 h1        1 OES      0.086700
     31 H221       10.2600   -0.2430    4.8930 h1        1 OES      0.093700
     32 H222       10.0620    1.4090    5.5530 h1        1 OES      0.093700
     33 H231       10.4690    0.5720    7.8690 h1        1 OES      0.037700
     34 H232       10.5270   -1.1490    7.2430 h1        1 OES      0.037700
     35 HO31       12.6040   -0.3050    7.3220 ho        1 OES      0.402000
@<TRIPOS>BOND
     1    1    2 1   
     2    1   14 1   
     3    1   15 1   
     4    1   16 1   
     5    2    3 1   
     6    2   17 1   
     7    2   18 1   
     8    3    4 1   
     9    3   19 1   
    10    3   20 1   
    11    4    5 1   
    12    4   21 1   
    13    4   22 1   
    14    5    6 1   
    15    5   23 1   
    16    5   24 1   
    17    6    7 1   
    18    6   25 1   
    19    6   26 1   
    20    7    8 1   
    21    7   27 1   
    22    7   28 1   
    23    8    9 1   
    24    8   29 1   
    25    8   30 1   
    26    9   10 1   
    27    9   12 2   
    28   10   11 1   
    29   10   31 1   
    30   10   32 1   
    31   11   13 1   
    32   11   33 1   
    33   11   34 1   
    34   13   35 1   
@<TRIPOS>SUBSTRUCTURE
     1 OES         1 TEMP              0 ****  ****    0 ROOT
