@<TRIPOS>MOLECULE
OES
   35    34     1     0     0
SMALL
bcc


@<TRIPOS>ATOM
      1 C1         -5.4320    0.1660   -3.4350 c3        1 OES     -0.093100
      2 C2         -3.9270    0.3140   -3.4300 c3        1 OES     -0.080400
      3 C3         -3.4100    0.1590   -2.0160 c3        1 OES     -0.079400
      4 C4         -1.9000    0.2590   -2.0180 c3        1 OES     -0.078400
      5 C5         -1.3860    0.1540   -0.5990 c3        1 OES     -0.079400
      6 C6          0.1250    0.2130   -0.6040 c3        1 OES     -0.075400
      7 C7          0.6420    0.0210    0.8050 c3        1 OES     -0.058400
      8 C8          2.1520    0.1220    0.8060 c3        1 OES     -0.091100
      9 S2          2.7580   -0.1040    2.4570 s4        1 OES      0.251600
     10 C22         4.3840   -0.7590    2.7230 c3        1 OES     -0.102100
     11 C23         4.8890   -0.3190    4.0800 c3        1 OES      0.154400
     12 O2          1.9340    0.2520    3.5790 o         1 OES     -0.503200
     13 O3          6.2140   -0.7690    4.2560 oh        1 OES     -0.601800
     14 HC11       -5.7570    0.1630   -4.3600 hc        1 OES      0.032700
     15 HC12       -5.8360    0.9150   -2.9490 hc        1 OES      0.032700
     16 HC13       -5.6790   -0.6770   -3.0000 hc        1 OES      0.032700
     17 HC21       -3.6850    1.1990   -3.7700 hc        1 OES      0.038200
     18 HC22       -3.5290   -0.3740   -4.0000 hc        1 OES      0.038200
     19 HC31       -3.6780   -0.7130   -1.6650 hc        1 OES      0.039700
     20 HC32       -3.7830    0.8660   -1.4530 hc        1 OES      0.039700
     21 HC41       -1.5260   -0.4680   -2.5550 hc        1 OES      0.039700
     22 HC42       -1.6310    1.1180   -2.3990 hc        1 OES      0.039700
     23 HC51       -1.6780   -0.6950   -0.2080 hc        1 OES      0.041200
     24 HC52       -1.7400    0.8950   -0.0680 hc        1 OES      0.041200
     25 HC61        0.4160    1.0840   -0.9420 hc        1 OES      0.042700
     26 HC62        0.4770   -0.4940   -1.1800 hc        1 OES      0.042700
     27 HC71        0.2690    0.7120    1.3870 hc        1 OES      0.047700
     28 HC72        0.3740   -0.8610    1.1330 hc        1 OES      0.047700
     29 HC81        2.5250   -0.5710    0.2240 h1        1 OES      0.086700
     30 HC82        2.4200    1.0030    0.4780 h1        1 OES      0.086700
     31 H221        4.9870   -0.4280    2.0280 h1        1 OES      0.093700
     32 H222        4.3510   -1.7360    2.6880 h1        1 OES      0.093700
     33 H231        4.3190   -0.7010    4.7790 h1        1 OES      0.037700
     34 H232        4.8650    0.6580    4.1360 h1        1 OES      0.037700
     35 HO31        6.4730   -0.6070    5.0910 ho        1 OES      0.402000
@<TRIPOS>BOND
     1    1    2 1   
     2    1   14 1   
     3    1   15 1   
     4    1   16 1   
     5    2    3 1   
     6    2   17 1   
     7    2   18 1   
     8    3    4 1   
     9    3   19 1   
    10    3   20 1   
    11    4    5 1   
    12    4   21 1   
    13    4   22 1   
    14    5    6 1   
    15    5   23 1   
    16    5   24 1   
    17    6    7 1   
    18    6   25 1   
    19    6   26 1   
    20    7    8 1   
    21    7   27 1   
    22    7   28 1   
    23    8    9 1   
    24    8   29 1   
    25    8   30 1   
    26    9   10 1   
    27    9   12 2   
    28   10   11 1   
    29   10   31 1   
    30   10   32 1   
    31   11   13 1   
    32   11   33 1   
    33   11   34 1   
    34   13   35 1   
@<TRIPOS>SUBSTRUCTURE
     1 OES         1 TEMP              0 ****  ****    0 ROOT
