@<TRIPOS>MOLECULE
OEU
   75    77     1     0     0
SMALL
bcc


@<TRIPOS>ATOM
      1 C28        -4.1360   -0.9290    0.5770 c         1 OEU      0.651100
      2 C38        -8.7320   -1.6370    0.2930 c3        1 OEU     -0.054800
      3 C33        -8.6210   -0.5830   -0.7430 ca        1 OEU     -0.070300
      4 C34        -9.6630   -0.4080   -1.6630 ca        1 OEU     -0.130000
      5 C35        -9.5900    0.5790   -2.6420 ca        1 OEU     -0.127000
      6 C37        -8.4710    1.4080   -2.7120 ca        1 OEU     -0.132000
      7 C36        -7.4310    1.2440   -1.8010 ca        1 OEU     -0.124000
      8 C32        -7.4930    0.2520   -0.8140 ca        1 OEU     -0.085300
      9 C31        -6.3620    0.1180    0.1460 c3        1 OEU     -0.031100
     10 C9         -5.2870   -0.8020   -0.4020 c3        1 OEU     -0.147400
     11 O29        -4.1430   -0.3850    1.6970 o         1 OEU     -0.599100
     12 N19        -3.0830   -1.7560    0.1890 n         1 OEU     -0.547900
     13 C18        -1.8360   -1.7580    0.9120 c3        1 OEU     -0.011300
     14 C16        -0.7040   -1.0830    0.0980 c         1 OEU      0.642100
     15 O17        -0.7740   -0.9530   -1.1400 o         1 OEU     -0.609100
     16 C20        -1.3630   -3.1900    1.2980 c3        1 OEU      0.140100
     17 O21        -1.2810   -4.0440    0.1740 oh        1 OEU     -0.586800
     18 C39        -2.2490   -3.7710    2.3820 c3        1 OEU     -0.129100
     19 N14         0.3590   -0.5780    0.8240 n         1 OEU     -0.542900
     20 C12         1.5710   -0.1300    0.1830 c3        1 OEU      0.032700
     21 C10         2.7450   -1.1010    0.4840 c         1 OEU      0.635100
     22 O11         2.8420   -1.6660    1.5930 o         1 OEU     -0.618100
     23 C13         2.0330    1.2580    0.6580 c3        1 OEU     -0.082400
     24 C15         1.0770    2.3490    0.2160 c3        1 OEU     -0.036100
     25 C22         1.5850    3.6970    0.5950 ca        1 OEU     -0.081300
     26 C23         1.5560    4.1090    1.9330 ca        1 OEU     -0.126500
     27 C24         2.0820    4.5690   -0.3800 ca        1 OEU     -0.126500
     28 C25         2.0200    5.3740    2.2890 ca        1 OEU     -0.128000
     29 C27         2.5460    5.8340   -0.0210 ca        1 OEU     -0.128000
     30 C26         2.5160    6.2380    1.3130 ca        1 OEU     -0.131000
     31 C4          8.3350   -0.7050   -2.4270 ca        1 OEU     -0.115000
     32 C5          7.7750    0.0950   -1.4330 ca        1 OEU     -0.127000
     33 C6          6.6330   -0.3410   -0.7510 ca        1 OEU      0.026400
     34 C8          4.8460   -2.0970   -0.3200 c3        1 OEU      0.135300
     35 N30         3.6570   -1.3100   -0.5220 n         1 OEU     -0.556900
     36 C1          6.0460   -1.5770   -1.0580 ca        1 OEU     -0.108300
     37 C2          6.6200   -2.3650   -2.0630 ca        1 OEU     -0.109000
     38 C3          7.7580   -1.9350   -2.7420 ca        1 OEU     -0.130000
     39 H38        -7.8150   -2.2780    0.3020 hc        1 OEU      0.044700
     40 H38A       -8.8430   -1.1720    1.3060 hc        1 OEU      0.044700
     41 H38B       -9.6180   -2.2930    0.1110 hc        1 OEU      0.044700
     42 H35       -10.4150    0.7060   -3.3580 ha        1 OEU      0.131000
     43 H37        -8.4100    2.1910   -3.4820 ha        1 OEU      0.132000
     44 H36        -6.5480    1.9000   -1.8530 ha        1 OEU      0.132000
     45 H31        -5.9120    1.1260    0.3520 hc        1 OEU      0.067200
     46 H31A       -6.7240   -0.2790    1.1330 hc        1 OEU      0.067200
     47 H9         -4.9040   -0.3980   -1.3760 hc        1 OEU      0.072200
     48 H9A        -5.7190   -1.8200   -0.5970 hc        1 OEU      0.072200
     49 HN19       -2.9980   -1.9680   -0.7830 hn        1 OEU      0.319500
     50 H18        -1.9880   -1.1850    1.8790 h1        1 OEU      0.110700
     51 H20        -0.2970   -3.1260    1.6650 h1        1 OEU      0.085700
     52 HO21       -2.1800   -4.2870   -0.0790 ho        1 OEU      0.404000
     53 H39        -3.3050   -3.8590    2.0310 hc        1 OEU      0.051033
     54 H39A       -1.8820   -4.7890    2.6580 hc        1 OEU      0.051033
     55 H39B       -2.2280   -3.1200    3.2890 hc        1 OEU      0.051033
     56 HN14        0.4530   -0.8390    1.7810 hn        1 OEU      0.323500
     57 H12         1.3760   -0.0850   -0.9320 h1        1 OEU      0.100700
     58 H13         3.0500    1.4490    0.2230 hc        1 OEU      0.060700
     59 H13A        2.1370    1.2700    1.7740 hc        1 OEU      0.060700
     60 H15         0.9300    2.2900   -0.8950 hc        1 OEU      0.057200
     61 H15A        0.0730    2.1870    0.6920 hc        1 OEU      0.057200
     62 H23         1.1620    3.4290    2.7030 ha        1 OEU      0.131500
     63 H24         2.1060    4.2560   -1.4350 ha        1 OEU      0.131500
     64 H25         1.9940    5.6900    3.3420 ha        1 OEU      0.131000
     65 H27         2.9340    6.5140   -0.7930 ha        1 OEU      0.131000
     66 H26         2.8820    7.2360    1.5950 ha        1 OEU      0.131000
     67 H4          9.2330   -0.3620   -2.9620 ha        1 OEU      0.140000
     68 H5          8.2300    1.0650   -1.1820 ha        1 OEU      0.150000
     69 H8          5.0770   -2.1360    0.7870 h1        1 OEU      0.071200
     70 H8A         4.6310   -3.1550   -0.6580 h1        1 OEU      0.071200
     71 HN30        3.5770   -0.8020   -1.3700 hn        1 OEU      0.317500
     72 H2          6.1680   -3.3370   -2.3150 ha        1 OEU      0.142000
     73 H3          8.2000   -2.5660   -3.5270 ha        1 OEU      0.139000
     74 CL7         5.9820    0.6590    0.4620 cl        1 OEU     -0.085400
     75 H34       -10.5480   -1.0590   -1.6100 ha        1 OEU      0.131000
@<TRIPOS>BOND
     1    1   10 1   
     2    1   11 2   
     3    1   12 1   
     4    2    3 1   
     5    2   39 1   
     6    2   40 1   
     7    2   41 1   
     8    3    4 ar  
     9    3    8 ar  
    10    4    5 ar  
    11    4   75 1   
    12    5    6 ar  
    13    5   42 1   
    14    6    7 ar  
    15    6   43 1   
    16    7    8 ar  
    17    7   44 1   
    18    8    9 1   
    19    9   10 1   
    20    9   45 1   
    21    9   46 1   
    22   10   47 1   
    23   10   48 1   
    24   12   13 1   
    25   12   49 1   
    26   13   14 1   
    27   13   16 1   
    28   13   50 1   
    29   14   15 2   
    30   14   19 1   
    31   16   17 1   
    32   16   18 1   
    33   16   51 1   
    34   17   52 1   
    35   18   53 1   
    36   18   54 1   
    37   18   55 1   
    38   19   20 1   
    39   19   56 1   
    40   20   21 1   
    41   20   23 1   
    42   20   57 1   
    43   21   22 2   
    44   21   35 1   
    45   23   24 1   
    46   23   58 1   
    47   23   59 1   
    48   24   25 1   
    49   24   60 1   
    50   24   61 1   
    51   25   26 ar  
    52   25   27 ar  
    53   26   28 ar  
    54   26   62 1   
    55   27   29 ar  
    56   27   63 1   
    57   28   30 ar  
    58   28   64 1   
    59   29   30 ar  
    60   29   65 1   
    61   30   66 1   
    62   31   32 ar  
    63   31   38 ar  
    64   31   67 1   
    65   32   33 ar  
    66   32   68 1   
    67   33   36 ar  
    68   33   74 1   
    69   34   35 1   
    70   34   36 1   
    71   34   69 1   
    72   34   70 1   
    73   35   71 1   
    74   36   37 ar  
    75   37   38 ar  
    76   37   72 1   
    77   38   73 1   
@<TRIPOS>SUBSTRUCTURE
     1 OEU         1 TEMP              0 ****  ****    0 ROOT
