@<TRIPOS>MOLECULE
OEU
   75    68     1     0     0
SMALL
bcc


@<TRIPOS>ATOM
      1 C28         2.2270    2.2120    2.2690 c1        1 OEU      0.300000
      2 C38         4.2320    1.3590    6.9280 c3        1 OEU     -0.181000
      3 C33         4.5140    2.7920    6.5500 c2        1 OEU     -0.062000
      4 C34         5.3380    3.5710    7.3500 c2        1 OEU     -0.130000
      5 C35         5.5290    4.9090    7.0520 c1        1 OEU     -0.127000
      6 C37         4.8990    5.4710    5.9550 c1        1 OEU     -0.128000
      7 C36         4.0760    4.6930    5.1550 c1        1 OEU     -0.128000
      8 C32         3.8830    3.3540    5.4530 c1        1 OEU     -0.078000
      9 C31         2.8990    2.5280    4.6380 c3        1 OEU     -0.117000
     10 C9          3.4060    2.3990    3.2100 c3        1 OEU     -0.174000
     11 O29         1.1100    2.5150    2.6290 o         1 OEU     -0.369000
     12 N19         2.4310    1.6400    0.9720 n2        1 OEU     -0.352000
     13 C18         1.4900    1.8860   -0.0710 c3        1 OEU      0.012000
     14 C16         0.7600    0.6040   -0.4060 c2        1 OEU      0.291000
     15 O17         0.8910   -0.3740    0.3050 o         1 OEU     -0.380000
     16 C20         2.2180    2.3870   -1.2980 c3        1 OEU      0.028000
     17 O21         3.6040    2.2310   -1.1170 oh        1 OEU     -0.324000
     18 C39         1.8990    3.8510   -1.5120 c3        1 OEU     -0.250000
     19 N14        -0.0660    0.5340   -1.5740 n         1 OEU     -0.373000
     20 C12        -0.9450   -0.5680   -1.7590 c3        1 OEU      0.012000
     21 C10        -0.7440   -1.1490   -3.1460 c1        1 OEU      0.280000
     22 O11        -0.5630   -0.4070   -4.0960 o         1 OEU     -0.379000
     23 C13        -2.3720   -0.1040   -1.6100 c3        1 OEU     -0.159000
     24 C15        -3.1790   -1.1720   -0.9010 c3        1 OEU     -0.123000
     25 C22        -4.5900   -1.2070   -1.4730 c2        1 OEU     -0.073000
     26 C23        -5.6810   -1.0580   -0.6290 c2        1 OEU     -0.128000
     27 C24        -4.7860   -1.5050   -2.8130 c1        1 OEU     -0.124000
     28 C25        -6.9680   -1.2070   -1.1260 c1        1 OEU     -0.131000
     29 C27        -6.0740   -1.6540   -3.3100 c1        1 OEU     -0.128000
     30 C26        -7.1630   -1.5050   -2.4670 c1        1 OEU     -0.128000
     31 C4         -2.4320   -7.2360   -4.0560 c1        1 OEU     -0.128000
     32 C5         -3.0270   -6.3040   -3.2190 c1        1 OEU     -0.129000
     33 C6         -2.6980   -4.9620   -3.3310 c1        1 OEU     -0.046000
     34 C8         -1.5020   -3.0720   -4.4830 c3        1 OEU      0.012000
     35 N30        -0.8250   -2.5550   -3.3470 n2        1 OEU     -0.368000
     36 C1         -1.7730   -4.5510   -4.2810 c2        1 OEU     -0.097000
     37 C2         -1.1790   -5.4830   -5.1170 c1        1 OEU     -0.109000
     38 C3         -1.5090   -6.8270   -5.0040 c1        1 OEU     -0.128000
     39 CL7        -3.4560   -3.7880   -2.2880 cl        1 OEU     -0.006000
     40 H38         4.3920    0.7790    6.1530 hc        1 OEU      0.085333
     41 H38A        4.8230    1.0930    7.6610 hc        1 OEU      0.085333
     42 H38B        3.2990    1.2740    7.2130 hc        1 OEU      0.085333
     43 H34         5.7830    3.1740    8.1240 ha        1 OEU      0.131000
     44 H35         6.1110    5.4580    7.6170 ha        1 OEU      0.131000
     45 H37         5.0350    6.4150    5.7450 ha        1 OEU      0.132333
     46 H36         3.6310    5.0900    4.3820 ha        1 OEU      0.132333
     47 H31         2.8130    1.6380    5.0360 hc        1 OEU      0.105500
     48 H31A        2.0270    2.9700    4.6360 hc        1 OEU      0.105500
     49 H9          4.0010    1.6260    3.1440 hc        1 OEU      0.112000
     50 H9A         3.8950    3.2080    2.9630 hc        1 OEU      0.112000
     51 HN19        3.1810    1.1470    0.8030 hn        1 OEU      0.242000
     52 H18         0.8470    2.5590    0.2230 h1        1 OEU      0.148000
     53 H20         1.9320    1.8730   -2.0790 h1        1 OEU      0.078000
     54 HO21        4.0240    2.4020   -1.8820 ho        1 OEU      0.208000
     55 H39         2.3080    4.1560   -2.3500 hc        1 OEU      0.091333
     56 H39A        2.2540    4.3760   -0.7650 hc        1 OEU      0.091333
     57 H39B        0.9270    3.9700   -1.5610 hc        1 OEU      0.091333
     58 HN14       -0.0140    1.1870   -2.2090 hn        1 OEU      0.232000
     59 H12        -0.7540   -1.2510   -1.0900 h1        1 OEU      0.130000
     60 H13        -2.3940    0.7220   -1.0860 hc        1 OEU      0.103000
     61 H13A       -2.7550    0.0600   -2.4930 hc        1 OEU      0.103000
     62 H15        -2.7520   -2.0440   -1.0320 hc        1 OEU      0.096500
     63 H15A       -3.2190   -0.9690    0.0560 hc        1 OEU      0.096500
     64 H23        -5.5440   -0.8480    0.3150 ha        1 OEU      0.130000
     65 H24        -4.0180   -1.6100   -3.4070 ha        1 OEU      0.144000
     66 H25        -7.7370   -1.1020   -0.5310 ha        1 OEU      0.129000
     67 H27        -6.2120   -1.8650   -4.2560 ha        1 OEU      0.132333
     68 H26        -8.0690   -1.6100   -2.8170 ha        1 OEU      0.132333
     69 H4         -2.6640   -8.1830   -3.9760 ha        1 OEU      0.132333
     70 H5         -3.6790   -6.5940   -2.5490 ha        1 OEU      0.148000
     71 H8         -0.9440   -2.9480   -5.2800 h1        1 OEU      0.107000
     72 H8A        -2.3500   -2.5980   -4.6020 h1        1 OEU      0.107000
     73 HN30       -0.4330   -3.1220   -2.7550 hn        1 OEU      0.254000
     74 H2         -0.5280   -5.1950   -5.7870 ha        1 OEU      0.139000
     75 H3         -1.0910   -7.4830   -5.5930 ha        1 OEU      0.132333
@<TRIPOS>BOND
     1    1   10 1   
     2    1   11 1   
     3    2    3 1   
     4    2   40 1   
     5    2   41 1   
     6    2   42 1   
     7    3    4 1   
     8    3    8 1   
     9    4    5 1   
    10    4   43 1   
    11    5   44 1   
    12    6    7 1   
    13    6   45 1   
    14    7   46 1   
    15    8    9 1   
    16    9   10 1   
    17    9   47 1   
    18    9   48 1   
    19   10   49 1   
    20   10   50 1   
    21   12   13 1   
    22   12   51 1   
    23   13   14 1   
    24   13   16 1   
    25   13   52 1   
    26   14   15 1   
    27   14   19 1   
    28   16   17 1   
    29   16   18 1   
    30   16   53 1   
    31   17   54 1   
    32   18   55 1   
    33   18   56 1   
    34   18   57 1   
    35   19   20 1   
    36   19   58 1   
    37   20   21 1   
    38   20   23 1   
    39   20   59 1   
    40   21   22 1   
    41   23   24 1   
    42   23   60 1   
    43   23   61 1   
    44   24   25 1   
    45   24   62 1   
    46   24   63 1   
    47   25   26 1   
    48   25   27 1   
    49   26   28 1   
    50   26   64 1   
    51   27   65 1   
    52   28   66 1   
    53   29   30 1   
    54   29   67 1   
    55   30   68 1   
    56   31   38 1   
    57   31   69 1   
    58   32   33 1   
    59   32   70 1   
    60   33   36 1   
    61   34   35 1   
    62   34   36 1   
    63   34   71 1   
    64   34   72 1   
    65   35   73 1   
    66   36   37 1   
    67   37   74 1   
    68   38   75 1   
@<TRIPOS>SUBSTRUCTURE
     1 OEU         1 TEMP              0 ****  ****    0 ROOT
