@<TRIPOS>MOLECULE
OEV
   49    49     1     0     0
SMALL
bcc


@<TRIPOS>ATOM
      1 C1          1.7410   -0.5690    0.3240 c3        1 OEV      0.208700
      2 N1          0.4860   -0.8780   -0.3510 n3        1 OEV     -0.808200
      3 C2          2.8550   -1.5350   -0.1610 c3        1 OEV      0.161100
      4 O2          2.6240   -2.7730    0.4900 oh        1 OEV     -0.585800
      5 C3          4.2440   -1.0090    0.2390 c3        1 OEV      0.111100
      6 O3          5.1790   -1.9700   -0.2240 oh        1 OEV     -0.610800
      7 C4          4.5050    0.3540   -0.4200 c3        1 OEV      0.145300
      8 O4          5.7690    0.7780    0.0770 oh        1 OEV     -0.603800
      9 C5          3.3910    1.3020   -0.0980 c2        1 OEV     -0.163400
     10 C6          3.7530    2.7500   -0.1510 c3        1 OEV      0.169600
     11 O6          2.5750    3.5400   -0.0810 oh        1 OEV     -0.595800
     12 C7          2.1610    0.8700    0.2040 c2        1 OEV     -0.160200
     13 C8         -0.6950   -0.4590    0.3770 c3        1 OEV      0.163800
     14 C9         -1.9760   -0.5740   -0.4480 c3        1 OEV     -0.084400
     15 C10        -3.1710   -0.1800    0.3930 c3        1 OEV     -0.078400
     16 C11        -4.4550   -0.2850   -0.4020 c3        1 OEV     -0.078400
     17 C12        -5.6530    0.1070    0.4370 c3        1 OEV     -0.079400
     18 C13        -6.9370    0.0030   -0.3580 c3        1 OEV     -0.079400
     19 C14        -8.1360    0.3940    0.4790 c3        1 OEV     -0.080400
     20 C15        -9.4170    0.2930   -0.3070 c3        1 OEV     -0.092100
     21 H1          1.5960   -0.7810    1.4300 h1        1 OEV      0.088700
     22 H2          0.4870   -0.5060   -1.2820 hn        1 OEV      0.358800
     23 H3          2.8220   -1.6760   -1.2760 h1        1 OEV      0.052700
     24 H4          3.3210   -3.3730    0.1890 ho        1 OEV      0.416000
     25 H5          4.3210   -0.9140    1.3570 h1        1 OEV      0.067700
     26 H6          6.0540   -1.6370    0.0120 ho        1 OEV      0.423000
     27 H7          4.5730    0.2260   -1.5400 h1        1 OEV      0.056700
     28 H8          6.0120    1.5760   -0.4050 ho        1 OEV      0.405000
     29 H9          4.4350    2.9940    0.7110 h1        1 OEV      0.031200
     30 H10         4.2920    2.9720   -1.1150 h1        1 OEV      0.031200
     31 H11         2.8680    4.4550    0.0010 ho        1 OEV      0.405000
     32 H12         1.3600    1.6060    0.4050 ha        1 OEV      0.150000
     33 H13        -0.7810   -1.1260    1.2820 h1        1 OEV      0.032200
     34 H14        -0.6110    0.6040    0.7540 h1        1 OEV      0.032200
     35 H15        -1.9150    0.0910   -1.3490 hc        1 OEV      0.047200
     36 H16        -2.1010   -1.6260   -0.8140 hc        1 OEV      0.047200
     37 H17        -3.2330   -0.8460    1.2950 hc        1 OEV      0.040700
     38 H18        -3.0440    0.8700    0.7650 hc        1 OEV      0.040700
     39 H19        -4.3940    0.3800   -1.3040 hc        1 OEV      0.040700
     40 H20        -5.7140   -0.5580    1.3390 hc        1 OEV      0.039200
     41 H21        -6.8760    0.6670   -1.2600 hc        1 OEV      0.039200
     42 H22        -7.0660   -1.0480   -0.7300 hc        1 OEV      0.039200
     43 H23        -8.1940   -0.2700    1.3820 hc        1 OEV      0.038200
     44 H24        -8.0050    1.4450    0.8520 hc        1 OEV      0.038200
     45 H25       -10.2880    0.5850    0.3280 hc        1 OEV      0.032700
     46 H26        -9.3880    0.9670   -1.1980 hc        1 OEV      0.032700
     47 H27        -9.5780   -0.7530   -0.6660 hc        1 OEV      0.032700
     48 H28        -4.5830   -1.3360   -0.7730 hc        1 OEV      0.040700
     49 H29        -5.5250    1.1580    0.8090 hc        1 OEV      0.039200
@<TRIPOS>BOND
     1    1    2 1   
     2    1    3 1   
     3    1   12 1   
     4    1   21 1   
     5    2   13 1   
     6    2   22 1   
     7    3    4 1   
     8    3    5 1   
     9    3   23 1   
    10    4   24 1   
    11    5    6 1   
    12    5    7 1   
    13    5   25 1   
    14    6   26 1   
    15    7    8 1   
    16    7    9 1   
    17    7   27 1   
    18    8   28 1   
    19    9   10 1   
    20    9   12 2   
    21   10   11 1   
    22   10   29 1   
    23   10   30 1   
    24   11   31 1   
    25   12   32 1   
    26   13   14 1   
    27   13   33 1   
    28   13   34 1   
    29   14   15 1   
    30   14   35 1   
    31   14   36 1   
    32   15   16 1   
    33   15   37 1   
    34   15   38 1   
    35   16   17 1   
    36   16   39 1   
    37   16   48 1   
    38   17   18 1   
    39   17   40 1   
    40   17   49 1   
    41   18   19 1   
    42   18   41 1   
    43   18   42 1   
    44   19   20 1   
    45   19   43 1   
    46   19   44 1   
    47   20   45 1   
    48   20   46 1   
    49   20   47 1   
@<TRIPOS>SUBSTRUCTURE
     1 OEV         1 TEMP              0 ****  ****    0 ROOT
