@<TRIPOS>MOLECULE
OEV
   50    50     1     0     0
SMALL
bcc


@<TRIPOS>ATOM
      1 C1          0.0550    0.0890   -0.0660 c3        1 OEV      0.175700
      2 N1         -0.4030    0.2410   -1.4960 n4        1 OEV     -0.760000
      3 C2          1.6030    0.0970   -0.0100 c3        1 OEV      0.128100
      4 O2          2.0340   -1.0290   -0.7490 oh        1 OEV     -0.624800
      5 C3          2.0230    0.0310    1.4650 c3        1 OEV      0.086100
      6 O3          3.4360   -0.0810    1.4540 oh        1 OEV     -0.598800
      7 C4          1.5930    1.3330    2.1700 c3        1 OEV      0.134300
      8 O4          1.7300    1.1660    3.5720 oh        1 OEV     -0.581800
      9 C5          0.1570    1.6610    1.8680 c2        1 OEV     -0.021400
     10 C6         -0.4690    2.6320    2.8190 c3        1 OEV      0.158600
     11 O6         -1.7610    2.9760    2.3460 oh        1 OEV     -0.613800
     12 C7         -0.5120    1.1410    0.8280 c2        1 OEV     -0.251200
     13 C8         -1.7960   -0.2480   -1.7100 c3        1 OEV      0.101800
     14 C9         -2.2730   -0.0340   -3.1420 c3        1 OEV     -0.109400
     15 C10        -3.6880   -0.5610   -3.2820 c3        1 OEV     -0.078400
     16 C11        -4.1940   -0.3620   -4.6960 c3        1 OEV     -0.079400
     17 C12        -5.6060   -0.8870   -4.8430 c3        1 OEV     -0.079400
     18 C13        -6.1160   -0.6900   -6.2550 c3        1 OEV     -0.079400
     19 C14        -7.5280   -1.2140   -6.4060 c3        1 OEV     -0.079400
     20 C15        -8.0400   -1.0200   -7.8100 c3        1 OEV     -0.095100
     21 H1         -0.3080   -0.9310    0.2740 hx        1 OEV      0.123700
     22 H2         -0.3440    1.2280   -1.7670 hn        1 OEV      0.457300
     23 H3          2.0260    1.0310   -0.4770 h1        1 OEV      0.072700
     24 H4          2.9570   -1.2040   -0.5040 ho        1 OEV      0.464000
     25 H5          1.5580   -0.8580    1.9750 h1        1 OEV      0.083700
     26 H6          3.7020   -0.4240    2.3170 ho        1 OEV      0.435000
     27 H7          2.2430    2.1820    1.8070 h1        1 OEV      0.080700
     28 H8          2.6520    1.3600    3.7900 ho        1 OEV      0.425000
     29 H9          0.1710    3.5560    2.8840 h1        1 OEV      0.069700
     30 H10        -0.5270    2.1520    3.8360 h1        1 OEV      0.069700
     31 H11        -2.1840    3.4870    3.0480 ho        1 OEV      0.429000
     32 H12        -1.5600    1.4410    0.6510 ha        1 OEV      0.176000
     33 H13        -2.4730    0.2990   -0.9920 hx        1 OEV      0.107200
     34 H14        -1.8200   -1.3480   -1.4570 hx        1 OEV      0.107200
     35 H15        -1.6020   -0.5710   -3.8640 hc        1 OEV      0.066200
     36 H16        -2.2540    1.0580   -3.4030 hc        1 OEV      0.066200
     37 H17        -4.3640   -0.0290   -2.5620 hc        1 OEV      0.054700
     38 H18        -3.7140   -1.6530   -3.0240 hc        1 OEV      0.054700
     39 H19        -3.5180   -0.8930   -5.4180 hc        1 OEV      0.047700
     40 H20        -5.6330   -1.9780   -4.5830 hc        1 OEV      0.044700
     41 H21        -6.0900    0.4010   -6.5170 hc        1 OEV      0.042700
     42 H22        -5.4400   -1.2200   -6.9770 hc        1 OEV      0.042700
     43 H23        -7.5530   -2.3040   -6.1430 hc        1 OEV      0.040700
     44 H24        -8.2030   -0.6840   -5.6820 hc        1 OEV      0.040700
     45 H25        -7.3960   -1.5610   -8.5440 hc        1 OEV      0.038033
     46 H26        -9.0820   -1.4120   -7.8990 hc        1 OEV      0.038033
     47 H27        -8.0470    0.0640   -8.0820 hc        1 OEV      0.038033
     48 H28        -4.1690    0.7290   -4.9570 hc        1 OEV      0.047700
     49 H29        -6.2830   -0.3570   -4.1220 hc        1 OEV      0.044700
     50 H121        0.2420   -0.3000   -2.0910 hn        1 OEV      0.457300
@<TRIPOS>BOND
     1    1    2 1   
     2    1    3 1   
     3    1   12 1   
     4    1   21 1   
     5    2   13 1   
     6    2   22 1   
     7    2   50 1   
     8    3    4 1   
     9    3    5 1   
    10    3   23 1   
    11    4   24 1   
    12    5    6 1   
    13    5    7 1   
    14    5   25 1   
    15    6   26 1   
    16    7    8 1   
    17    7    9 1   
    18    7   27 1   
    19    8   28 1   
    20    9   10 1   
    21    9   12 2   
    22   10   11 1   
    23   10   29 1   
    24   10   30 1   
    25   11   31 1   
    26   12   32 1   
    27   13   14 1   
    28   13   33 1   
    29   13   34 1   
    30   14   15 1   
    31   14   35 1   
    32   14   36 1   
    33   15   16 1   
    34   15   37 1   
    35   15   38 1   
    36   16   17 1   
    37   16   39 1   
    38   16   48 1   
    39   17   18 1   
    40   17   40 1   
    41   17   49 1   
    42   18   19 1   
    43   18   41 1   
    44   18   42 1   
    45   19   20 1   
    46   19   43 1   
    47   19   44 1   
    48   20   45 1   
    49   20   46 1   
    50   20   47 1   
@<TRIPOS>SUBSTRUCTURE
     1 OEV         1 TEMP              0 ****  ****    0 ROOT
