@<TRIPOS>MOLECULE
OEV
   50    50     1     0     0
SMALL
bcc


@<TRIPOS>ATOM
      1 C1          0.0560    0.0910   -0.0660 c3        1 OEV      0.175700
      2 N1         -0.4020    0.2420   -1.4960 n4        1 OEV     -0.760000
      3 C2          1.6040    0.1000   -0.0110 c3        1 OEV      0.128100
      4 O2          2.0370   -1.0250   -0.7500 oh        1 OEV     -0.624800
      5 C3          2.0250    0.0350    1.4650 c3        1 OEV      0.086100
      6 O3          3.4370   -0.0750    1.4530 oh        1 OEV     -0.598800
      7 C4          1.5930    1.3360    2.1690 c3        1 OEV      0.134300
      8 O4          1.7310    1.1700    3.5720 oh        1 OEV     -0.581800
      9 C5          0.1570    1.6630    1.8680 c2        1 OEV     -0.021400
     10 C6         -0.4690    2.6330    2.8190 c3        1 OEV      0.158600
     11 O6         -1.7630    2.9750    2.3470 oh        1 OEV     -0.613800
     12 C7         -0.5110    1.1410    0.8280 c2        1 OEV     -0.251200
     13 C8         -1.7950   -0.2490   -1.7100 c3        1 OEV      0.101800
     14 C9         -2.2730   -0.0330   -3.1410 c3        1 OEV     -0.109400
     15 C10        -3.6860   -0.5650   -3.2810 c3        1 OEV     -0.078400
     16 C11        -4.1950   -0.3620   -4.6940 c3        1 OEV     -0.079400
     17 C12        -5.6050   -0.8920   -4.8420 c3        1 OEV     -0.079400
     18 C13        -6.1170   -0.6900   -6.2520 c3        1 OEV     -0.079400
     19 C14        -7.5280   -1.2200   -6.4040 c3        1 OEV     -0.079400
     20 C15        -8.0430   -1.0200   -7.8060 c3        1 OEV     -0.095100
     21 H1         -0.3050   -0.9300    0.2740 hx        1 OEV      0.123700
     22 H2          0.2430   -0.2970   -2.0920 hn        1 OEV      0.457300
     23 H3          2.0260    1.0350   -0.4780 h1        1 OEV      0.072700
     24 H4          2.9600   -1.1990   -0.5050 ho        1 OEV      0.464000
     25 H5          1.5610   -0.8540    1.9740 h1        1 OEV      0.083700
     26 H6          3.7040   -0.4180    2.3160 ho        1 OEV      0.435000
     27 H7          2.2420    2.1870    1.8060 h1        1 OEV      0.080700
     28 H8          2.6530    1.3650    3.7890 ho        1 OEV      0.425000
     29 H9         -0.5270    2.1520    3.8360 h1        1 OEV      0.069700
     30 H10         0.1690    3.5570    2.8840 h1        1 OEV      0.069700
     31 H11        -2.1870    3.4850    3.0490 ho        1 OEV      0.429000
     32 H12        -1.5610    1.4400    0.6510 ha        1 OEV      0.176000
     33 H13        -2.4720    0.2950   -0.9900 hx        1 OEV      0.107200
     34 H14        -1.8160   -1.3490   -1.4600 hx        1 OEV      0.107200
     35 H15        -2.2580    1.0590   -3.3990 hc        1 OEV      0.066200
     36 H16        -1.6010   -0.5660   -3.8650 hc        1 OEV      0.066200
     37 H17        -4.3640   -0.0380   -2.5590 hc        1 OEV      0.054700
     38 H18        -3.7080   -1.6580   -3.0280 hc        1 OEV      0.054700
     39 H19        -3.5180   -0.8870   -5.4180 hc        1 OEV      0.047700
     40 H20        -6.2830   -0.3690   -4.1170 hc        1 OEV      0.044700
     41 H21        -6.0970    0.4020   -6.5080 hc        1 OEV      0.042700
     42 H22        -5.4400   -1.2130   -6.9780 hc        1 OEV      0.042700
     43 H23        -7.5470   -2.3120   -6.1480 hc        1 OEV      0.040700
     44 H24        -8.2040   -0.6980   -5.6760 hc        1 OEV      0.040700
     45 H25        -8.0560    0.0650   -8.0710 hc        1 OEV      0.038033
     46 H26        -9.0830   -1.4170   -7.8960 hc        1 OEV      0.038033
     47 H27        -7.3970   -1.5530   -8.5440 hc        1 OEV      0.038033
     48 H28        -4.1750    0.7300   -4.9500 hc        1 OEV      0.047700
     49 H29        -5.6260   -1.9850   -4.5880 hc        1 OEV      0.044700
     50 H121       -0.3450    1.2300   -1.7660 hn        1 OEV      0.457300
@<TRIPOS>BOND
     1    1    2 1   
     2    1    3 1   
     3    1   12 1   
     4    1   21 1   
     5    2   13 1   
     6    2   22 1   
     7    2   50 1   
     8    3    4 1   
     9    3    5 1   
    10    3   23 1   
    11    4   24 1   
    12    5    6 1   
    13    5    7 1   
    14    5   25 1   
    15    6   26 1   
    16    7    8 1   
    17    7    9 1   
    18    7   27 1   
    19    8   28 1   
    20    9   10 1   
    21    9   12 2   
    22   10   11 1   
    23   10   29 1   
    24   10   30 1   
    25   11   31 1   
    26   12   32 1   
    27   13   14 1   
    28   13   33 1   
    29   13   34 1   
    30   14   15 1   
    31   14   35 1   
    32   14   36 1   
    33   15   16 1   
    34   15   37 1   
    35   15   38 1   
    36   16   17 1   
    37   16   39 1   
    38   16   48 1   
    39   17   18 1   
    40   17   40 1   
    41   17   49 1   
    42   18   19 1   
    43   18   41 1   
    44   18   42 1   
    45   19   20 1   
    46   19   43 1   
    47   19   44 1   
    48   20   45 1   
    49   20   46 1   
    50   20   47 1   
@<TRIPOS>SUBSTRUCTURE
     1 OEV         1 TEMP              0 ****  ****    0 ROOT
