@<TRIPOS>MOLECULE
OEV
   49    49     1     0     0
SMALL
bcc


@<TRIPOS>ATOM
      1 C1          1.8470    0.6480    1.7230 c3        1 OEV      0.214700
      2 N1          1.0330    1.0370    0.6090 n3        1 OEV     -0.809200
      3 C2          3.5000    0.8930    1.3770 c3        1 OEV      0.161100
      4 O2          3.8810   -0.0270    0.1990 oh        1 OEV     -0.586800
      5 C3          4.2540    0.6740    2.2720 c3        1 OEV      0.108100
      6 O3          5.6560    1.0000    1.7920 oh        1 OEV     -0.611800
      7 C4          3.9700    1.5630    3.7250 c3        1 OEV      0.159300
      8 O4          4.8830    1.1460    4.7300 oh        1 OEV     -0.613800
      9 C5          2.6200    1.4660    4.1610 c2        1 OEV     -0.138400
     10 C6          2.3030    0.9980    5.5850 c3        1 OEV      0.165600
     11 O6          2.3780    2.0860    6.4600 oh        1 OEV     -0.612800
     12 C7          1.4320    1.3270    2.9210 c2        1 OEV     -0.191200
     13 C8          0.0700   -0.0060    0.3250 c3        1 OEV      0.166800
     14 C9         -0.7800    0.3970   -0.9090 c3        1 OEV     -0.084400
     15 C10        -1.5880   -0.8020   -1.3810 c3        1 OEV     -0.078400
     16 C11        -2.5770   -0.3560   -2.4720 c3        1 OEV     -0.079400
     17 C12        -3.2420   -1.5750   -3.0810 c3        1 OEV     -0.079400
     18 C13        -4.2370   -1.1250   -4.1830 c3        1 OEV     -0.079400
     19 C14        -4.7150   -2.3430   -4.9600 c3        1 OEV     -0.080400
     20 C15        -5.7900   -1.9090   -6.0020 c3        1 OEV     -0.093100
     21 H1          1.6380   -0.3280    1.7790 h1        1 OEV      0.086700
     22 H2          0.5930    1.8150    0.8090 hn        1 OEV      0.359800
     23 H3          3.6210    1.8310    1.0920 h1        1 OEV      0.053700
     24 H4          4.3600    0.4270   -0.3860 ho        1 OEV      0.417000
     25 H5          4.2130   -0.2880    2.4840 h1        1 OEV      0.064700
     26 H6          6.2050    1.0400    2.4880 ho        1 OEV      0.425000
     27 H7          4.2230    2.5120    3.6310 h1        1 OEV      0.065700
     28 H8          5.5270    1.7940    4.8460 ho        1 OEV      0.425000
     29 H9          2.9440    0.3240    5.8530 h1        1 OEV      0.038700
     30 H10         1.3860    0.6140    5.6100 h1        1 OEV      0.038700
     31 H11         2.0810    1.8400    7.2660 ho        1 OEV      0.410000
     32 H12         0.4870    1.3930    3.1400 ha        1 OEV      0.127000
     33 H13        -0.5170   -0.1280    1.0980 h1        1 OEV      0.029200
     34 H14         0.5460   -0.8500    0.1370 h1        1 OEV      0.029200
     35 H15        -1.3920    1.1260   -0.6620 hc        1 OEV      0.047700
     36 H16        -0.1940    0.6940   -1.6220 hc        1 OEV      0.047700
     37 H17        -2.0840   -1.1780   -0.6260 hc        1 OEV      0.040700
     38 H18        -0.9850   -1.4810   -1.7460 hc        1 OEV      0.040700
     39 H19        -2.0930    0.1340   -3.1690 hc        1 OEV      0.040700
     40 H20        -2.5610   -2.1530   -3.4750 hc        1 OEV      0.039700
     41 H21        -5.0020   -0.6830   -3.7700 hc        1 OEV      0.039700
     42 H22        -3.7920   -0.5060   -4.7890 hc        1 OEV      0.039700
     43 H23        -3.9640   -2.7470   -5.4200 hc        1 OEV      0.038200
     44 H24        -5.1080   -2.9960   -4.3360 hc        1 OEV      0.038200
     45 H25        -5.4180   -1.2150   -6.5880 hc        1 OEV      0.032700
     46 H26        -6.0530   -2.6860   -6.5420 hc        1 OEV      0.032700
     47 H27        -6.5740   -1.5550   -5.5340 hc        1 OEV      0.032700
     48 H28        -3.2590    0.2260   -2.0760 hc        1 OEV      0.040700
     49 H29        -3.7280   -2.0680   -2.3820 hc        1 OEV      0.039700
@<TRIPOS>BOND
     1    1    2 1   
     2    1    3 1   
     3    1   12 1   
     4    1   21 1   
     5    2   13 1   
     6    2   22 1   
     7    3    4 1   
     8    3    5 1   
     9    3   23 1   
    10    4   24 1   
    11    5    6 1   
    12    5    7 1   
    13    5   25 1   
    14    6   26 1   
    15    7    8 1   
    16    7    9 1   
    17    7   27 1   
    18    8   28 1   
    19    9   10 1   
    20    9   12 2   
    21   10   11 1   
    22   10   29 1   
    23   10   30 1   
    24   11   31 1   
    25   12   32 1   
    26   13   14 1   
    27   13   33 1   
    28   13   34 1   
    29   14   15 1   
    30   14   35 1   
    31   14   36 1   
    32   15   16 1   
    33   15   37 1   
    34   15   38 1   
    35   16   17 1   
    36   16   39 1   
    37   16   48 1   
    38   17   18 1   
    39   17   40 1   
    40   17   49 1   
    41   18   19 1   
    42   18   41 1   
    43   18   42 1   
    44   19   20 1   
    45   19   43 1   
    46   19   44 1   
    47   20   45 1   
    48   20   46 1   
    49   20   47 1   
@<TRIPOS>SUBSTRUCTURE
     1 OEV         1 TEMP              0 ****  ****    0 ROOT
