@<TRIPOS>MOLECULE
OFF
   51    52     1     0     0
SMALL
bcc


@<TRIPOS>ATOM
      1 C19        -0.5490   -1.2770    1.2050 ca        1 OFF     -0.094500
      2 C20         0.7860   -1.6460    1.3410 ca        1 OFF     -0.187500
      3 C21         1.7660   -0.6530    1.4630 ca        1 OFF      0.090100
      4 O10         3.1090   -0.9510    1.6050 oh        1 OFF     -0.517100
      5 C22         1.4180    0.7050    1.4500 ca        1 OFF     -0.187500
      6 C23         0.0790    1.0560    1.3140 ca        1 OFF     -0.094500
      7 C18        -0.9210    0.0770    1.1870 ca        1 OFF     -0.044800
      8 C17        -2.3080    0.4870    1.0530 ce        1 OFF     -0.147200
      9 C16        -3.3020   -0.3170    0.6550 cf        1 OFF     -0.108200
     10 C15        -4.7110    0.1260    0.5750 c         1 OFF      0.655300
     11 O9         -5.3320    0.7670    1.4330 o         1 OFF     -0.579000
     12 O8         -5.2960   -0.2580   -0.5840 os        1 OFF     -0.394900
     13 C12        -6.7440   -0.3210   -0.6330 c3        1 OFF      0.185100
     14 C13        -7.0780   -0.5080   -2.1030 c3        1 OFF     -0.188400
     15 C14        -7.3460    0.8060   -2.8520 c         1 OFF      0.908600
     16 O6         -7.3140    0.7660   -4.1200 o         1 OFF     -0.866300
     17 O7         -7.6120    1.8630   -2.2090 o         1 OFF     -0.866300
     18 C10        -7.1900   -1.4580    0.3070 c3        1 OFF      0.006100
     19 C11        -6.3220   -2.7420    0.3210 c         1 OFF      0.916600
     20 O4         -5.0890   -2.6630    0.5740 o         1 OFF     -0.845800
     21 O5         -6.9410   -3.8360    0.1420 o         1 OFF     -0.845800
     22 O3         -8.5230   -1.8250   -0.1070 os        1 OFF     -0.424900
     23 C9         -9.0950   -2.8500    0.5980 c         1 OFF      0.689300
     24 O2         -9.0610   -2.8380    1.8340 o         1 OFF     -0.582000
     25 C8         -9.7780   -3.8290   -0.2710 ce        1 OFF     -0.110200
     26 C7        -11.0810   -4.1040   -0.3690 cf        1 OFF     -0.145200
     27 C4        -12.1970   -3.5160    0.3540 ca        1 OFF     -0.055800
     28 C5        -13.4120   -3.3220   -0.3220 ca        1 OFF     -0.090000
     29 C6        -14.5220   -2.8020    0.3360 ca        1 OFF     -0.188500
     30 C1        -14.4190   -2.4730    1.6940 ca        1 OFF      0.095100
     31 O1        -15.4890   -1.9770    2.4150 oh        1 OFF     -0.515100
     32 C2        -13.2140   -2.6550    2.3870 ca        1 OFF     -0.188500
     33 C3        -12.1130   -3.1730    1.7130 ca        1 OFF     -0.090000
     34 H19        -1.3230   -2.0570    1.1130 ha        1 OFF      0.148000
     35 H20         1.0680   -2.7080    1.3520 ha        1 OFF      0.127500
     36 HO10        3.1950   -1.9130    1.5670 ho        1 OFF      0.407000
     37 H22         2.2000    1.4690    1.5460 ha        1 OFF      0.127500
     38 H23        -0.2030    2.1190    1.3000 ha        1 OFF      0.148000
     39 H171       -2.5160    1.5430    1.3040 ha        1 OFF      0.129000
     40 H161       -3.1910   -1.3830    0.3770 ha        1 OFF      0.194000
     41 H12        -7.1620    0.6590   -0.2660 h1        1 OFF      0.094700
     42 H131       -6.2430   -1.0480   -2.6160 hc        1 OFF      0.055200
     43 H132       -8.0010   -1.1360   -2.1870 hc        1 OFF      0.055200
     44 H10        -7.2370   -1.0600    1.3590 h1        1 OFF      0.058700
     45 H81        -9.0290   -4.3610   -0.8950 ha        1 OFF      0.185000
     46 H71       -11.3940   -4.8670   -1.1070 ha        1 OFF      0.108000
     47 H5        -13.4830   -3.5730   -1.3910 ha        1 OFF      0.157000
     48 H6        -15.4640   -2.6400   -0.2030 ha        1 OFF      0.127500
     49 HO1       -16.1820   -1.7500    1.7810 ho        1 OFF      0.403000
     50 H2        -13.1470   -2.3790    3.4480 ha        1 OFF      0.127500
     51 H3        -11.1510   -3.3010    2.2450 ha        1 OFF      0.157000
@<TRIPOS>BOND
     1    1    2 ar  
     2    1    7 ar  
     3    1   34 1   
     4    2    3 ar  
     5    2   35 1   
     6    3    4 1   
     7    3    5 ar  
     8    4   36 1   
     9    5    6 ar  
    10    5   37 1   
    11    6    7 ar  
    12    6   38 1   
    13    7    8 1   
    14    8    9 2   
    15    8   39 1   
    16    9   10 1   
    17    9   40 1   
    18   10   11 2   
    19   10   12 1   
    20   12   13 1   
    21   13   14 1   
    22   13   18 1   
    23   13   41 1   
    24   14   15 1   
    25   14   42 1   
    26   14   43 1   
    27   15   16 1   
    28   15   17 1   
    29   18   19 1   
    30   18   22 1   
    31   18   44 1   
    32   19   20 1   
    33   19   21 1   
    34   22   23 1   
    35   23   24 2   
    36   23   25 1   
    37   25   26 2   
    38   25   45 1   
    39   26   27 1   
    40   26   46 1   
    41   27   28 ar  
    42   27   33 ar  
    43   28   29 ar  
    44   28   47 1   
    45   29   30 ar  
    46   29   48 1   
    47   30   31 1   
    48   30   32 ar  
    49   31   49 1   
    50   32   33 ar  
    51   32   50 1   
    52   33   51 1   
@<TRIPOS>SUBSTRUCTURE
     1 OFF         1 TEMP              0 ****  ****    0 ROOT
