@<TRIPOS>MOLECULE
OFF
   51    52     1     0     0
SMALL
bcc


@<TRIPOS>ATOM
      1 C19         0.6300    7.6940    3.3080 ca        1 OFF     -0.097000
      2 C20         0.5690    8.5680    4.3890 ca        1 OFF     -0.186500
      3 C21         1.2030    9.8140    4.3050 ca        1 OFF      0.088100
      4 O10         1.1790   10.7300    5.3400 oh        1 OFF     -0.518100
      5 C22         1.8960   10.1900    3.1450 ca        1 OFF     -0.186500
      6 C23         1.9470    9.3040    2.0740 ca        1 OFF     -0.097000
      7 C18         1.3220    8.0470    2.1380 ca        1 OFF     -0.040800
      8 C17         1.3950    7.1540    0.9950 ce        1 OFF     -0.161200
      9 C16         1.1110    5.8460    1.0370 cf        1 OFF     -0.092200
     10 C15         1.1530    4.9740   -0.1580 c         1 OFF      0.673300
     11 O9          0.6130    5.1910   -1.2490 o         1 OFF     -0.576000
     12 O8          1.9200    3.8700    0.0380 os        1 OFF     -0.414900
     13 C12         1.7080    2.7350   -0.8370 c3        1 OFF      0.161100
     14 C13         2.8760    1.7990   -0.5520 c3        1 OFF     -0.189400
     15 C14         3.6210    1.3560   -1.8160 c         1 OFF      0.905600
     16 O6          3.9120    0.1200   -1.9330 o         1 OFF     -0.868800
     17 O7          3.9550    2.2060   -2.6890 o         1 OFF     -0.868800
     18 C10         0.3070    2.1420   -0.5510 c3        1 OFF      0.003100
     19 C11        -0.1800    2.3250    0.9120 c         1 OFF      0.933600
     20 O4         -0.4030    3.5260    1.2640 o         1 OFF     -0.843800
     21 O5         -0.3720    1.3340    1.6590 o         1 OFF     -0.843800
     22 O3          0.3600    0.7370   -0.8400 os        1 OFF     -0.392900
     23 C9          0.0720    0.3420   -2.1150 c         1 OFF      0.634300
     24 O2         -0.8750    0.8540   -2.7250 o         1 OFF     -0.571000
     25 C8          0.9870   -0.7120   -2.5860 ce        1 OFF     -0.166200
     26 C7          0.7230   -1.5060   -3.6320 cf        1 OFF     -0.104200
     27 C4          1.6920   -2.4460   -4.1740 ca        1 OFF     -0.074800
     28 C5          3.0710   -2.2450   -3.9820 ca        1 OFF     -0.085500
     29 C6          3.9870   -3.1450   -4.5180 ca        1 OFF     -0.197000
     30 C1          3.5300   -4.2490   -5.2510 ca        1 OFF      0.092100
     31 O1          4.3940   -5.1750   -5.8070 oh        1 OFF     -0.525100
     32 C2          2.1600   -4.4600   -5.4560 ca        1 OFF     -0.197000
     33 C3          1.2530   -3.5520   -4.9150 ca        1 OFF     -0.085500
     34 H19         0.1270    6.7150    3.3690 ha        1 OFF      0.147500
     35 H20         0.0280    8.2820    5.3010 ha        1 OFF      0.127500
     36 HO10        0.6910   10.3250    6.0700 ho        1 OFF      0.407000
     37 H22         2.3870   11.1700    3.0970 ha        1 OFF      0.127500
     38 H23         2.4900    9.5900    1.1600 ha        1 OFF      0.147500
     39 H171        1.7110    7.6240    0.0470 ha        1 OFF      0.127000
     40 H161        0.7890    5.2910    1.9400 ha        1 OFF      0.195000
     41 H12         1.7540    3.0990   -1.9020 h1        1 OFF      0.075700
     42 H131        3.6170    2.3260    0.1040 hc        1 OFF      0.057200
     43 H132        2.5100    0.8950   -0.0020 hc        1 OFF      0.057200
     44 H10        -0.4410    2.6510   -1.2190 h1        1 OFF      0.069700
     45 H81         1.9590   -0.7240   -2.0380 ha        1 OFF      0.220000
     46 H71        -0.2530   -1.4650   -4.1460 ha        1 OFF      0.120000
     47 H5          3.4340   -1.3620   -3.4020 ha        1 OFF      0.177000
     48 H6          5.0640   -2.9850   -4.3650 ha        1 OFF      0.127500
     49 HO1         5.2920   -4.8990   -5.5790 ho        1 OFF      0.408000
     50 H2          1.8210   -5.3280   -6.0330 ha        1 OFF      0.127500
     51 H3          0.1760   -3.7080   -5.0720 ha        1 OFF      0.177000
@<TRIPOS>BOND
     1    1    2 ar  
     2    1    7 ar  
     3    1   34 1   
     4    2    3 ar  
     5    2   35 1   
     6    3    4 1   
     7    3    5 ar  
     8    4   36 1   
     9    5    6 ar  
    10    5   37 1   
    11    6    7 ar  
    12    6   38 1   
    13    7    8 1   
    14    8    9 2   
    15    8   39 1   
    16    9   10 1   
    17    9   40 1   
    18   10   11 2   
    19   10   12 1   
    20   12   13 1   
    21   13   14 1   
    22   13   18 1   
    23   13   41 1   
    24   14   15 1   
    25   14   42 1   
    26   14   43 1   
    27   15   16 1   
    28   15   17 1   
    29   18   19 1   
    30   18   22 1   
    31   18   44 1   
    32   19   20 1   
    33   19   21 1   
    34   22   23 1   
    35   23   24 2   
    36   23   25 1   
    37   25   26 2   
    38   25   45 1   
    39   26   27 1   
    40   26   46 1   
    41   27   28 ar  
    42   27   33 ar  
    43   28   29 ar  
    44   28   47 1   
    45   29   30 ar  
    46   29   48 1   
    47   30   31 1   
    48   30   32 ar  
    49   31   49 1   
    50   32   33 ar  
    51   32   50 1   
    52   33   51 1   
@<TRIPOS>SUBSTRUCTURE
     1 OFF         1 TEMP              0 ****  ****    0 ROOT
