@<TRIPOS>MOLECULE
OFF
   51    45     1     0     0
SMALL
bcc


@<TRIPOS>ATOM
      1 C19         2.9720    3.2340    2.3500 c1        1 OFF     -0.100000
      2 C20         4.3400    3.1510    2.1390 c1        1 OFF     -0.173500
      3 C21         5.1540    2.5620    3.0940 c1        1 OFF      0.051500
      4 O10         6.5390    2.4550    2.8680 oh        1 OFF     -0.277500
      5 C22         4.6000    2.0550    4.2590 c1        1 OFF     -0.106500
      6 C23         3.2330    2.1380    4.4700 c1        1 OFF     -0.106500
      7 C18         2.4190    2.7270    3.5150 c1        1 OFF     -0.072500
      8 C17         0.9380    2.8940    3.7830 c2        1 OFF     -0.090000
      9 C16         0.0590    1.9980    3.2910 c1        1 OFF     -0.193000
     10 C15         0.5520    0.8260    2.4710 c1        1 OFF      0.351000
     11 O9          1.6850    0.4150    2.6200 o         1 OFF     -0.356000
     12 O8         -0.3000    0.2170    1.5330 os        1 OFF     -0.271000
     13 C12        -0.1630   -1.1800    1.4630 c3        1 OFF      0.075000
     14 C13        -0.8290   -1.8130    2.6650 c3        1 OFF     -0.230000
     15 C14         0.1370   -2.7640    3.3350 c2        1 OFF      0.318000
     16 O6          0.0240   -3.0150    4.5630 o         1 OFF     -0.604500
     17 O7          1.0470   -3.3150    2.6610 o         1 OFF     -0.604500
     18 C10        -0.8190   -1.6880    0.1980 c3        1 OFF     -0.040000
     19 C11        -0.4740   -3.1480    0.0030 c2        1 OFF      0.328000
     20 O4          0.7050   -3.4830   -0.2870 o         1 OFF     -0.560000
     21 O5         -1.3550   -4.0310    0.1740 o         1 OFF     -0.560000
     22 O3         -0.3540   -0.9460   -0.9020 os        1 OFF     -0.282000
     23 C9         -0.9030   -1.3450   -2.1320 c2        1 OFF      0.396000
     24 O2         -2.0710   -1.6710   -2.1980 o         1 OFF     -0.402000
     25 C8         -0.0290   -1.4120   -3.3640 c2        1 OFF     -0.085000
     26 C7         -0.5560   -1.1620   -4.5800 c1        1 OFF     -0.165000
     27 C4         -2.0230   -0.8140   -4.7110 c1        1 OFF     -0.072500
     28 C5         -2.4330    0.5060   -4.6020 c2        1 OFF     -0.090000
     29 C6         -3.7610    0.8390   -4.8220 c1        1 OFF     -0.193000
     30 C1         -4.6780   -0.1460   -5.1510 c1        1 OFF      0.051500
     31 O1         -6.0160    0.1990   -5.4160 oh        1 OFF     -0.277500
     32 C2         -4.2680   -1.4650   -5.2590 c1        1 OFF     -0.173500
     33 C3         -2.9410   -1.7990   -5.0400 c1        1 OFF     -0.100000
     34 H19         2.4000    3.6560    1.6810 ha        1 OFF      0.146000
     35 H20         4.7300    3.5080    1.3190 ha        1 OFF      0.129000
     36 HO10        6.9490    3.1710    3.1980 ho        1 OFF      0.212000
     37 H22         5.1740    1.6400    4.9310 ha        1 OFF      0.211000
     38 H23         2.8450    1.7950    5.2980 ha        1 OFF      0.211000
     39 H171        0.6200    3.6500    4.3130 ha        1 OFF      0.112000
     40 H161       -0.8960    2.1050    3.4640 ha        1 OFF      0.123500
     41 H12         0.7850   -1.4150    1.4550 h1        1 OFF      0.147000
     42 H131       -1.0910   -1.1140    3.2970 hc        1 OFF      0.106500
     43 H132       -1.6240   -2.3050    2.3760 hc        1 OFF      0.106500
     44 H10        -1.7880   -1.5890    0.2720 h1        1 OFF      0.094000
     45 H81         0.9180   -1.6370   -3.2800 ha        1 OFF      0.187000
     46 H71         0.0080   -1.2050   -5.3750 ha        1 OFF      0.107000
     47 H5         -1.7870    1.2000   -4.3710 ha        1 OFF      0.112000
     48 H6         -4.0490    1.7690   -4.7460 ha        1 OFF      0.123500
     49 HO1        -6.0620    0.6370   -6.1890 ho        1 OFF      0.212000
     50 H2         -4.9090   -2.1550   -5.5180 ha        1 OFF      0.129000
     51 H3         -2.6530   -2.7290   -5.1160 ha        1 OFF      0.146000
@<TRIPOS>BOND
     1    1    7 1   
     2    1   34 1   
     3    2    3 1   
     4    2   35 1   
     5    3    4 1   
     6    4   36 1   
     7    5    6 1   
     8    5   37 1   
     9    6   38 1   
    10    7    8 1   
    11    8    9 1   
    12    8   39 1   
    13    9   40 1   
    14   10   11 1   
    15   10   12 1   
    16   12   13 1   
    17   13   14 1   
    18   13   18 1   
    19   13   41 1   
    20   14   15 1   
    21   14   42 1   
    22   14   43 1   
    23   15   16 1   
    24   15   17 1   
    25   18   19 1   
    26   18   22 1   
    27   18   44 1   
    28   19   20 1   
    29   19   21 1   
    30   22   23 1   
    31   23   24 1   
    32   23   25 1   
    33   25   26 1   
    34   25   45 1   
    35   26   46 1   
    36   27   28 1   
    37   27   33 1   
    38   28   29 1   
    39   28   47 1   
    40   29   48 1   
    41   30   31 1   
    42   30   32 1   
    43   31   49 1   
    44   32   50 1   
    45   33   51 1   
@<TRIPOS>SUBSTRUCTURE
     1 OFF         1 TEMP              0 ****  ****    0 ROOT
