@<TRIPOS>MOLECULE
OFF
   51    52     1     0     0
SMALL
bcc


@<TRIPOS>ATOM
      1 C19        -2.6740    0.0800    0.3520 ca        1 OFF     -0.074500
      2 C20        -1.4780    0.5720    0.8640 ca        1 OFF     -0.195000
      3 C21        -1.3590    1.9380    1.1570 ca        1 OFF      0.096100
      4 O10        -0.1940    2.4840    1.6670 oh        1 OFF     -0.528100
      5 C22        -2.4260    2.8190    0.9370 ca        1 OFF     -0.195000
      6 C23        -3.6160    2.3140    0.4190 ca        1 OFF     -0.074500
      7 C18        -3.7540    0.9500    0.1290 ca        1 OFF     -0.089800
      8 C17        -5.0010    0.4570   -0.4400 ce        1 OFF     -0.071200
      9 C16        -5.7090   -0.6010   -0.0370 cf        1 OFF     -0.198200
     10 C15        -5.4360   -1.4480    1.1380 c         1 OFF      0.656300
     11 O9         -5.4070   -1.0570    2.3150 o         1 OFF     -0.567000
     12 O8         -5.2760   -2.7900    1.0220 os        1 OFF     -0.402900
     13 C12        -5.2730   -3.3960   -0.3000 c3        1 OFF      0.176100
     14 C13        -4.1680   -4.4390   -0.2810 c3        1 OFF     -0.203400
     15 C14        -2.7680   -3.8330   -0.4090 c         1 OFF      0.915600
     16 O6         -1.7900   -4.4850    0.0610 o         1 OFF     -0.870800
     17 O7         -2.6190   -2.7150   -0.9940 o         1 OFF     -0.870800
     18 C10        -6.6560   -4.0290   -0.5080 c3        1 OFF      0.016100
     19 C11        -6.9310   -4.5990   -1.9250 c         1 OFF      0.908600
     20 O4         -6.1800   -5.4730   -2.4210 o         1 OFF     -0.825300
     21 O5         -7.9860   -4.1570   -2.4850 o         1 OFF     -0.825300
     22 O3         -7.6010   -2.9470   -0.3040 os        1 OFF     -0.460900
     23 C9         -8.9170   -3.2710   -0.4970 c         1 OFF      0.696300
     24 O2         -9.3750   -4.2980    0.0160 o         1 OFF     -0.580000
     25 C8         -9.6600   -2.2420   -1.2530 ce        1 OFF     -0.120200
     26 C7        -10.6100   -1.4070   -0.8270 cf        1 OFF     -0.143200
     27 C4        -11.1810   -1.2730    0.5040 ca        1 OFF     -0.060800
     28 C5        -11.5460    0.0040    0.9570 ca        1 OFF     -0.089000
     29 C6        -12.1310    0.1800    2.2070 ca        1 OFF     -0.187000
     30 C1        -12.3600   -0.9400    3.0170 ca        1 OFF      0.098100
     31 O1        -12.9620   -0.8420    4.2570 oh        1 OFF     -0.513100
     32 C2        -12.0010   -2.2250    2.5850 ca        1 OFF     -0.187000
     33 C3        -11.4130   -2.3810    1.3330 ca        1 OFF     -0.089000
     34 H19        -2.7640   -1.0040    0.0970 ha        1 OFF      0.175500
     35 H20        -0.6360   -0.1150    1.0340 ha        1 OFF      0.131500
     36 HO10        0.4300    1.7560    1.7920 ho        1 OFF      0.410000
     37 H22        -2.3140    3.8840    1.1740 ha        1 OFF      0.131500
     38 H23        -4.4600    2.9960    0.2430 ha        1 OFF      0.175500
     39 H171       -5.3550    1.0360   -1.3130 ha        1 OFF      0.110000
     40 H161       -6.6190   -0.9170   -0.5840 ha        1 OFF      0.168000
     41 H12        -5.0530   -2.6260   -1.0880 h1        1 OFF      0.087700
     42 H131       -4.2230   -5.0340    0.6640 hc        1 OFF      0.069700
     43 H132       -4.3350   -5.1290   -1.1530 hc        1 OFF      0.069700
     44 H10        -6.8480   -4.8190    0.2630 h1        1 OFF      0.063700
     45 H81        -9.3200   -2.2360   -2.3100 ha        1 OFF      0.185000
     46 H71       -11.0360   -0.6910   -1.5570 ha        1 OFF      0.107000
     47 H5        -11.3570    0.8800    0.3200 ha        1 OFF      0.155000
     48 H6        -12.4000    1.1840    2.5610 ha        1 OFF      0.129000
     49 HO1       -12.9820    0.0960    4.4930 ho        1 OFF      0.404000
     50 H2        -12.1750   -3.0900    3.2390 ha        1 OFF      0.129000
     51 H3        -11.1080   -3.3880    0.9920 ha        1 OFF      0.155000
@<TRIPOS>BOND
     1    1    2 ar  
     2    1    7 ar  
     3    1   34 1   
     4    2    3 ar  
     5    2   35 1   
     6    3    4 1   
     7    3    5 ar  
     8    4   36 1   
     9    5    6 ar  
    10    5   37 1   
    11    6    7 ar  
    12    6   38 1   
    13    7    8 1   
    14    8    9 2   
    15    8   39 1   
    16    9   10 1   
    17    9   40 1   
    18   10   11 2   
    19   10   12 1   
    20   12   13 1   
    21   13   14 1   
    22   13   18 1   
    23   13   41 1   
    24   14   15 1   
    25   14   42 1   
    26   14   43 1   
    27   15   16 1   
    28   15   17 1   
    29   18   19 1   
    30   18   22 1   
    31   18   44 1   
    32   19   20 1   
    33   19   21 1   
    34   22   23 1   
    35   23   24 2   
    36   23   25 1   
    37   25   26 2   
    38   25   45 1   
    39   26   27 1   
    40   26   46 1   
    41   27   28 ar  
    42   27   33 ar  
    43   28   29 ar  
    44   28   47 1   
    45   29   30 ar  
    46   29   48 1   
    47   30   31 1   
    48   30   32 ar  
    49   31   49 1   
    50   32   33 ar  
    51   32   50 1   
    52   33   51 1   
@<TRIPOS>SUBSTRUCTURE
     1 OFF         1 TEMP              0 ****  ****    0 ROOT
