@<TRIPOS>MOLECULE
OFG
   46    49     1     0     0
SMALL
bcc


@<TRIPOS>ATOM
      1 C13         0.4940    0.5650    0.3080 ca        1 OFG     -0.082000
      2 C14         1.8470    0.3890    0.5650 ca        1 OFG     -0.165000
      3 C6         -2.2300    0.3220    6.2710 ca        1 OFG     -0.076000
      4 C16         1.3020   -0.4100    2.8030 ca        1 OFG     -0.164000
      5 C26        -3.7740    1.4200    0.8160 cc        1 OFG      0.194900
      6 C27        -3.7340    0.2450   -0.0520 cc        1 OFG      0.194900
      7 C4         -1.8780    2.3840    7.4520 ca        1 OFG      0.442200
      8 C19        -5.1670    0.5970    7.1520 cc        1 OFG     -0.142300
      9 C5         -2.7190    1.2830    7.1670 ca        1 OFG     -0.149300
     10 C18        -4.0230    1.1600    7.7520 cd        1 OFG     -0.193300
     11 C10        -0.0620   -0.2340    2.5530 ca        1 OFG     -0.046300
     12 C12        -0.4640    0.2600    1.2950 ca        1 OFG      0.015800
     13 C1         -0.9570    0.4810    5.7260 ca        1 OFG     -0.089200
     14 C15         2.2560   -0.0990    1.8190 ca        1 OFG      0.138900
     15 C22        -4.4680    1.5670    9.0800 cd        1 OFG      0.324600
     16 C2         -0.1530    1.6180    6.0900 ca        1 OFG      0.643200
     17 C23        -3.6390    2.2030   10.1200 c3        1 OFG     -0.127400
     18 C11        -1.4450   -2.0840    3.4720 c3        1 OFG     -0.103100
     19 C9         -1.0480   -0.6230    3.6220 c3        1 OFG      0.175400
     20 N3         -0.6540    2.5670    6.9490 nb        1 OFG     -0.718000
     21 N25        -2.5720    1.5140    1.4300 nd        1 OFG     -0.473800
     22 N28        -2.5110   -0.3170    0.0770 nd        1 OFG     -0.473800
     23 N20        -6.1890    0.6900    8.0930 na        1 OFG     -0.015600
     24 N21        -5.7910    1.2570    9.2300 nc        1 OFG     -0.517800
     25 N24        -1.8590    0.4560    0.9780 na        1 OFG      0.283800
     26 N8          1.1590    1.7220    5.6380 nv        1 OFG     -0.927500
     27 O7         -0.4060   -0.4980    4.9130 os        1 OFG     -0.335900
     28 F17         3.5720   -0.2720    2.0790 f         1 OFG     -0.130900
     29 H13         0.1770    0.9410   -0.6780 ha        1 OFG      0.158000
     30 H14         2.5980    0.6250   -0.2030 ha        1 OFG      0.159000
     31 H6         -2.8350   -0.5560    5.9980 ha        1 OFG      0.143000
     32 H16         1.6290   -0.8110    3.7770 ha        1 OFG      0.177000
     33 H26        -4.5930    2.1190    0.9750 h4        1 OFG      0.060100
     34 H27        -4.5180   -0.1480   -0.6970 h4        1 OFG      0.060100
     35 H4         -2.2260    3.1860    8.1320 h4        1 OFG      0.028100
     36 H20        -7.1290    0.3890    7.9890 hn        1 OFG      0.321700
     37 H9         -1.9600    0.0330    3.5920 h1        1 OFG      0.078700
     38 H231       -4.0050    1.9540   11.1470 hc        1 OFG      0.053700
     39 H232       -2.5800    1.8540   10.0220 hc        1 OFG      0.053700
     40 H233       -3.6630    3.3160    9.9990 hc        1 OFG      0.053700
     41 H81N        1.5950    2.6120    5.7070 hn        1 OFG      0.418300
     42 H82N        1.3540    1.2010    4.8130 hn        1 OFG      0.418300
     43 H111       -2.2010   -2.3460    4.2510 hc        1 OFG      0.053033
     44 H112       -0.5550   -2.7430    3.6070 hc        1 OFG      0.053033
     45 H113       -1.8810   -2.2550    2.4600 hc        1 OFG      0.053033
     46 H19        -5.3140    0.1640    6.1650 h4        1 OFG      0.175000
@<TRIPOS>BOND
     1    1    2 ar  
     2    1   12 ar  
     3    1   29 1   
     4    2   14 ar  
     5    2   30 1   
     6    3    9 ar  
     7    3   13 ar  
     8    3   31 1   
     9    4   11 ar  
    10    4   14 ar  
    11    4   32 1   
    12    5    6 1   
    13    5   21 2   
    14    5   33 1   
    15    6   22 2   
    16    6   34 1   
    17    7    9 ar  
    18    7   20 ar  
    19    7   35 1   
    20    8   10 2   
    21    8   23 1   
    22    8   46 1   
    23    9   10 1   
    24   10   15 1   
    25   11   12 ar  
    26   11   19 1   
    27   12   25 1   
    28   13   16 ar  
    29   13   27 1   
    30   14   28 1   
    31   15   17 1   
    32   15   24 2   
    33   16   20 ar  
    34   16   26 1   
    35   17   38 1   
    36   17   39 1   
    37   17   40 1   
    38   18   19 1   
    39   18   43 1   
    40   18   44 1   
    41   18   45 1   
    42   19   27 1   
    43   19   37 1   
    44   21   25 1   
    45   22   25 1   
    46   23   24 1   
    47   23   36 1   
    48   26   41 1   
    49   26   42 1   
@<TRIPOS>SUBSTRUCTURE
     1 OFG         1 TEMP              0 ****  ****    0 ROOT
