@<TRIPOS>MOLECULE
OFG
   46    49     1     0     0
SMALL
bcc


@<TRIPOS>ATOM
      1 C13         0.4990    0.5490    0.3130 ca        1 OFG     -0.082000
      2 C14         1.8520    0.3730    0.5720 ca        1 OFG     -0.165000
      3 C6         -2.2330    0.3250    6.2710 ca        1 OFG     -0.076000
      4 C16         1.3040   -0.4200    2.8100 ca        1 OFG     -0.164000
      5 C26        -3.7680    1.4090    0.8130 cc        1 OFG      0.194900
      6 C27        -3.7280    0.2320   -0.0530 cc        1 OFG      0.194900
      7 C4         -1.8800    2.3910    7.4470 ca        1 OFG      0.442200
      8 C19        -5.1710    0.6080    7.1470 cc        1 OFG     -0.142300
      9 C5         -2.7220    1.2900    7.1630 ca        1 OFG     -0.149300
     10 C18        -4.0270    1.1710    7.7470 cd        1 OFG     -0.193300
     11 C10        -0.0600   -0.2440    2.5580 ca        1 OFG     -0.046300
     12 C12        -0.4600    0.2480    1.2980 ca        1 OFG      0.015800
     13 C1         -0.9590    0.4810    5.7280 ca        1 OFG     -0.088200
     14 C15         2.2590   -0.1120    1.8280 ca        1 OFG      0.138900
     15 C22        -4.4730    1.5810    9.0730 cd        1 OFG      0.324600
     16 C2         -0.1540    1.6180    6.0890 ca        1 OFG      0.643200
     17 C23        -3.6450    2.2200   10.1130 c3        1 OFG     -0.127400
     18 C11        -1.4450   -2.0910    3.4810 c3        1 OFG     -0.103100
     19 C9         -1.0480   -0.6300    3.6270 c3        1 OFG      0.175400
     20 N3         -0.6540    2.5700    6.9450 nb        1 OFG     -0.718000
     21 N25        -2.5670    1.5030    1.4280 nd        1 OFG     -0.473800
     22 N28        -2.5050   -0.3300    0.0790 nd        1 OFG     -0.473800
     23 N20        -6.1940    0.7050    8.0860 na        1 OFG     -0.015600
     24 N21        -5.7960    1.2740    9.2220 nc        1 OFG     -0.517800
     25 N24        -1.8550    0.4430    0.9800 na        1 OFG      0.283800
     26 N8          1.1590    1.7180    5.6400 nh        1 OFG     -0.927500
     27 O7         -0.4070   -0.5010    4.9190 os        1 OFG     -0.335900
     28 F17         3.5750   -0.2860    2.0900 f         1 OFG     -0.130900
     29 H13         0.1850    0.9240   -0.6750 ha        1 OFG      0.158000
     30 H14         2.6050    0.6070   -0.1960 ha        1 OFG      0.159000
     31 H6         -2.8390   -0.5520    6.0000 ha        1 OFG      0.143000
     32 H16         1.6290   -0.8200    3.7870 ha        1 OFG      0.177000
     33 H26        -4.5870    2.1090    0.9690 h4        1 OFG      0.060100
     34 H27        -4.5110   -0.1610   -0.6990 h4        1 OFG      0.060100
     35 H4         -2.2280    3.1950    8.1230 h4        1 OFG      0.028100
     36 H20        -7.1350    0.4050    7.9810 hn        1 OFG      0.321700
     37 H9         -1.9600    0.0270    3.5940 h1        1 OFG      0.078700
     38 H231       -3.6670    3.3320    9.9890 hc        1 OFG      0.053700
     39 H232       -4.0130    1.9740   11.1400 hc        1 OFG      0.053700
     40 H233       -2.5870    1.8690   10.0170 hc        1 OFG      0.053700
     41 H81N        1.5970    2.6080    5.7070 hn        1 OFG      0.418300
     42 H82N        1.3550    1.1950    4.8160 hn        1 OFG      0.418300
     43 H111       -0.5550   -2.7500    3.6180 hc        1 OFG      0.053033
     44 H112       -1.8790   -2.2640    2.4680 hc        1 OFG      0.053033
     45 H113       -2.2020   -2.3510    4.2590 hc        1 OFG      0.053033
     46 H19        -5.3170    0.1720    6.1600 h4        1 OFG      0.175000
@<TRIPOS>BOND
     1    1    2 ar  
     2    1   12 ar  
     3    1   29 1   
     4    2   14 ar  
     5    2   30 1   
     6    3    9 ar  
     7    3   13 ar  
     8    3   31 1   
     9    4   11 ar  
    10    4   14 ar  
    11    4   32 1   
    12    5    6 1   
    13    5   21 2   
    14    5   33 1   
    15    6   22 2   
    16    6   34 1   
    17    7    9 ar  
    18    7   20 ar  
    19    7   35 1   
    20    8   10 2   
    21    8   23 1   
    22    8   46 1   
    23    9   10 1   
    24   10   15 1   
    25   11   12 ar  
    26   11   19 1   
    27   12   25 1   
    28   13   16 ar  
    29   13   27 1   
    30   14   28 1   
    31   15   17 1   
    32   15   24 2   
    33   16   20 ar  
    34   16   26 1   
    35   17   38 1   
    36   17   39 1   
    37   17   40 1   
    38   18   19 1   
    39   18   43 1   
    40   18   44 1   
    41   18   45 1   
    42   19   27 1   
    43   19   37 1   
    44   21   25 1   
    45   22   25 1   
    46   23   24 1   
    47   23   36 1   
    48   26   41 1   
    49   26   42 1   
@<TRIPOS>SUBSTRUCTURE
     1 OFG         1 TEMP              0 ****  ****    0 ROOT
