@<TRIPOS>MOLECULE
OFG
   47    50     1     0     0
SMALL
bcc


@<TRIPOS>ATOM
      1 C13         0.4460    0.2650    0.3020 ca        1 OFG     -0.082000
      2 C14         1.5070   -0.6010    0.0730 ca        1 OFG     -0.143000
      3 C6         -2.2250    0.3580    6.0260 ca        1 OFG     -0.174000
      4 C16         1.1570   -1.5860    2.2780 ca        1 OFG     -0.148000
      5 C26        -2.3850    2.9390    2.2950 cc        1 OFG      0.215400
      6 C27        -3.1360    2.2530    1.2450 cc        1 OFG      0.215400
      7 C4         -2.5730    2.5320    7.0320 ca        1 OFG      0.390200
      8 C19        -4.9770   -0.3940    7.0720 cc        1 OFG     -0.091300
      9 C5         -2.9950    1.1750    6.8630 ca        1 OFG      0.026700
     10 C18        -4.1610    0.6770    7.5170 cd        1 OFG     -0.282300
     11 C10         0.0730   -0.7370    2.5060 ca        1 OFG     -0.067300
     12 C12        -0.2620    0.2160    1.5180 ca        1 OFG      0.008800
     13 C1         -1.0810    0.8850    5.4060 ca        1 OFG      0.102800
     14 C15         1.8730   -1.5250    1.0680 ca        1 OFG      0.153900
     15 C22        -4.7820    1.1150    8.7650 cd        1 OFG      0.362600
     16 C2         -0.7640    2.2530    5.6310 ca        1 OFG      0.368200
     17 C23        -4.3160    2.1880    9.6630 c3        1 OFG     -0.139400
     18 C11        -0.5710   -2.2050    4.4630 c3        1 OFG     -0.125100
     19 C9         -0.7210   -0.8610    3.7770 c3        1 OFG      0.205400
     20 N3         -1.5040    3.0620    6.4460 nb        1 OFG     -0.622000
     21 N25        -1.2720    2.2100    2.5440 nd        1 OFG     -0.508800
     22 N28        -2.4410    1.1450    0.9090 nd        1 OFG     -0.508800
     23 N20        -5.9870   -0.5290    8.0070 na        1 OFG      0.014400
     24 N21        -5.8820    0.3450    9.0110 nc        1 OFG     -0.490800
     25 N24        -1.3550    1.1390    1.7180 na        1 OFG      0.287800
     26 N8          0.4010    2.8460    4.9550 n4        1 OFG     -0.788300
     27 O7         -0.1840    0.1660    4.6610 os        1 OFG     -0.358900
     28 F17         2.9150   -2.3600    0.8660 f         1 OFG     -0.112900
     29 H13         0.1600    0.9850   -0.4850 ha        1 OFG      0.170000
     30 H14         2.0610   -0.5710   -0.8790 ha        1 OFG      0.176000
     31 H6         -2.5000   -0.6960    5.8650 ha        1 OFG      0.169000
     32 H16         1.4670   -2.3240    3.0350 ha        1 OFG      0.169000
     33 H26        -2.6470    3.8640    2.8090 h4        1 OFG      0.071100
     34 H27        -4.0850    2.5420    0.7900 h4        1 OFG      0.071100
     35 H4         -3.1550    3.2240    7.6730 h4        1 OFG      0.064100
     36 H20        -6.7400   -1.1820    7.9950 hn        1 OFG      0.343700
     37 H9         -1.8110   -0.6570    3.5790 h1        1 OFG      0.079700
     38 H231       -4.6920    3.1790    9.3000 hc        1 OFG      0.064033
     39 H232       -3.1980    2.2070    9.6880 hc        1 OFG      0.064033
     40 H233       -4.6890    2.0400   10.7090 hc        1 OFG      0.064033
     41 H81N        0.7690    2.1550    4.2860 hn        1 OFG      0.469467
     42 H82N        1.1200    3.0860    5.6440 hn        1 OFG      0.469467
     43 H111       -0.7100   -3.0260    3.7180 hc        1 OFG      0.064367
     44 H112       -1.3400   -2.3180    5.2650 hc        1 OFG      0.064367
     45 H113        0.4360   -2.3020    4.9360 hc        1 OFG      0.064367
     46 H83         0.1160    3.6920    4.4480 hn        1 OFG      0.469467
     47 H19        -4.9070   -1.0200    6.1820 h4        1 OFG      0.185000
@<TRIPOS>BOND
     1    1    2 ar  
     2    1   12 ar  
     3    1   29 1   
     4    2   14 ar  
     5    2   30 1   
     6    3    9 ar  
     7    3   13 ar  
     8    3   31 1   
     9    4   11 ar  
    10    4   14 ar  
    11    4   32 1   
    12    5    6 1   
    13    5   21 2   
    14    5   33 1   
    15    6   22 2   
    16    6   34 1   
    17    7    9 ar  
    18    7   20 ar  
    19    7   35 1   
    20    8   10 2   
    21    8   23 1   
    22    8   47 1   
    23    9   10 1   
    24   10   15 1   
    25   11   12 ar  
    26   11   19 1   
    27   12   25 1   
    28   13   16 ar  
    29   13   27 1   
    30   14   28 1   
    31   15   17 1   
    32   15   24 2   
    33   16   20 ar  
    34   16   26 1   
    35   17   38 1   
    36   17   39 1   
    37   17   40 1   
    38   18   19 1   
    39   18   43 1   
    40   18   44 1   
    41   18   45 1   
    42   19   27 1   
    43   19   37 1   
    44   21   25 1   
    45   22   25 1   
    46   23   24 1   
    47   23   36 1   
    48   26   41 1   
    49   26   42 1   
    50   26   46 1   
@<TRIPOS>SUBSTRUCTURE
     1 OFG         1 TEMP              0 ****  ****    0 ROOT
