@<TRIPOS>MOLECULE
OFH
   64    63     1     0     0
SMALL
bcc


@<TRIPOS>ATOM
      1 C1         -0.5020    0.4810    0.1140 cx        1 OFH     -0.278000
      2 S2          1.0890    0.8600   -5.4640 s6        1 OFH      2.867000
      3 N3         -0.7950    1.8690   -2.0260 nx        1 OFH     -0.039000
      4 C4          0.0560    1.4460   -0.8730 c2        1 OFH      0.307000
      5 C5          0.5060    0.6630   -3.8220 c3        1 OFH     -0.865000
      6 C6          1.2630   -0.7190   -5.9080 c2        1 OFH     -0.966000
      7 C7         -1.4430    3.2100   -1.7080 c2        1 OFH     -0.245000
      8 C8         -1.5980   -0.4790   -0.3780 c3        1 OFH      0.455000
      9 C9          0.0030    1.9840   -3.2870 c3        1 OFH     -0.088000
     10 C10        -0.9060    4.2200   -1.0660 c1        1 OFH     -0.339000
     11 C11         0.4710   -0.0430    1.1670 cx        1 OFH     -0.132000
     12 C12        -0.5720    0.9390    1.5670 cx        1 OFH     -0.132000
     13 C13        -2.8090    3.3120   -2.2270 c2        1 OFH      0.321000
     14 C14        -4.8890    4.6780   -1.7600 c3        1 OFH     -0.129000
     15 C15         4.9600   -7.0260   -6.5990 c3        1 OFH      0.562000
     16 C16         0.2980   -1.6460   -6.1860 c2        1 OFH      0.152000
     17 N17        -3.4060    4.6780   -2.0310 ny        1 OFH     -0.074000
     18 C18        -5.0540    5.5860   -0.5760 c1        1 OFH     -0.176000
     19 N19        -6.1680    5.8370    0.0270 n8        1 OFH     -0.180000
     20 C20         2.6910   -1.1340   -6.0820 c3        1 OFH     -0.164000
     21 C21         0.5820   -2.9980   -6.5700 c2        1 OFH     -0.197000
     22 C24        -5.7060    5.1450   -2.9770 c3        1 OFH     -0.267000
     23 C25        -5.7350    4.3420   -4.1700 c1        1 OFH     -0.030000
     24 C26         6.3850   -7.3130   -6.7460 c1        1 OFH     -0.283000
     25 O27         1.1720    1.9460   -0.7650 o         1 OFH     -0.199000
     26 C29         1.8900   -3.4120   -6.6310 c2        1 OFH      0.087000
     27 O30        -3.4910    2.4530   -2.7860 o         1 OFH     -0.271000
     28 F31        -1.3170   -1.0640   -1.5910 f         1 OFH     -0.151667
     29 F32        -1.8630   -1.5200    0.4670 f         1 OFH     -0.151667
     30 F33        -2.8150    0.1290   -0.5810 f         1 OFH     -0.151667
     31 F36         4.6620   -6.0410   -5.6810 f         1 OFH     -0.160000
     32 Cl         -1.3530   -1.2640   -6.0560 cl        1 OFH      0.028000
     33 C38         2.9940   -2.4930   -6.4470 c1        1 OFH     -0.056000
     34 C39         7.5480   -7.5550   -6.8690 c1        1 OFH     -0.038000
     35 H5         -0.3010   -0.1150   -3.7880 h1        1 OFH      0.157500
     36 H7         -1.5300    1.1670   -2.1870 hn        1 OFH      0.235000
     37 H9          0.8730    2.6750   -3.0800 hx        1 OFH      0.157500
     38 H9A        -0.6770    2.4690   -4.0520 hx        1 OFH      0.157500
     39 H10         0.0330    4.4450   -0.5930 ha        1 OFH      0.178000
     40 H10A        1.3360    0.2820   -3.1710 h1        1 OFH      0.157500
     41 H11         1.5280    0.2810    1.0930 hc        1 OFH      0.154500
     42 H11A        0.3720   -1.1040    1.4730 hc        1 OFH      0.154500
     43 H12        -1.4420    0.5990    2.1620 hc        1 OFH      0.154500
     44 H12A       -0.2800    1.9810    1.7990 hc        1 OFH      0.154500
     45 HN17       -2.8990    5.1340   -1.2260 hn        1 OFH      0.282000
     46 H18        -7.0700    5.4710   -0.2100 hn        1 OFH      0.225000
     47 HN19       -6.1460    6.4610    0.8100 hn        1 OFH      0.225000
     48 H20         3.1690   -0.5000   -6.9030 hc        1 OFH      0.194000
     49 H21        -0.2490   -3.6870   -6.7920 ha        1 OFH      0.185000
     50 H24        -5.4100    6.1950   -3.2770 hc        1 OFH      0.176500
     51 H24A       -6.7920    5.2210   -2.6540 hc        1 OFH      0.176500
     52 H25        -5.1770    3.6110   -1.5120 hx        1 OFH      0.152000
     53 H25A       -5.1690    3.4000   -4.2040 ha        1 OFH      0.080000
     54 H26         3.1160   -4.8440   -6.9120 ho        1 OFH      0.267000
     55 H38         3.2940   -0.8850   -5.1540 hc        1 OFH      0.194000
     56 H39         8.5850   -7.7700   -6.9790 ha        1 OFH      0.244000
     57 H39A        3.4110   -4.0340   -4.5980 ha        1 OFH      0.006500
     58 H39B        4.0400   -3.8450   -4.7720 ha        1 OFH      0.006500
     59 O22         0.0850    1.5410   -6.1560 o         1 OFH     -0.920000
     60 O28         2.1450   -4.7170   -6.9050 oh        1 OFH     -0.214000
     61 F34         4.3420   -6.5740   -7.7440 f         1 OFH     -0.160000
     62 H172       -3.2100    5.2310   -2.8700 hn        1 OFH      0.282000
     63 O23         2.3370    1.4850   -5.3720 o         1 OFH     -0.920000
     64 F35         4.1940   -8.0950   -6.2010 f         1 OFH     -0.160000
@<TRIPOS>BOND
     1    1    4 1   
     2    1    8 1   
     3    1   11 1   
     4    1   12 1   
     5    2    5 1   
     6    2    6 1   
     7    2   59 1   
     8    2   63 1   
     9    3    4 1   
    10    3    7 1   
    11    3    9 1   
    12    3   36 1   
    13    4   25 1   
    14    5    9 1   
    15    5   35 1   
    16    5   40 1   
    17    6   16 1   
    18    6   20 1   
    19    7   10 1   
    20    7   13 1   
    21    8   28 1   
    22    8   29 1   
    23    8   30 1   
    24    9   37 1   
    25    9   38 1   
    26   10   39 1   
    27   11   12 1   
    28   11   41 1   
    29   11   42 1   
    30   12   43 1   
    31   12   44 1   
    32   13   17 1   
    33   13   27 1   
    34   14   17 1   
    35   14   18 1   
    36   14   22 1   
    37   14   52 1   
    38   15   24 1   
    39   15   31 1   
    40   15   61 1   
    41   15   64 1   
    42   16   21 1   
    43   16   32 1   
    44   17   45 1   
    45   17   62 1   
    46   18   19 1   
    47   19   46 1   
    48   19   47 1   
    49   20   33 1   
    50   20   48 1   
    51   20   55 1   
    52   21   26 1   
    53   21   49 1   
    54   22   23 1   
    55   22   50 1   
    56   22   51 1   
    57   23   53 1   
    58   24   34 1   
    59   26   33 1   
    60   26   60 1   
    61   34   56 1   
    62   54   60 1   
    63   57   58 1   
@<TRIPOS>SUBSTRUCTURE
     1 OFH         1 TEMP              0 ****  ****    0 ROOT
