@<TRIPOS>MOLECULE
OFH
   64    61     1     0     0
SMALL
bcc


@<TRIPOS>ATOM
      1 C1         -0.7150    1.7060   -0.6240 c3        1 OFH     -0.185000
      2 S2          3.6930    0.4510   -3.9090 s6        1 OFH      2.857000
      3 N3          0.2740    2.2970   -2.9140 n         1 OFH     -0.321000
      4 C4         -0.7160    2.4080   -1.9940 c2        1 OFH      0.322000
      5 C5          2.2080    1.3350   -4.1280 c3        1 OFH     -0.865000
      6 C6          3.4700   -0.8180   -4.9550 c2        1 OFH     -0.940000
      7 C7         -5.8320    6.7350   -1.8770 c1        1 OFH     -0.303000
      8 C8         -1.3550    0.2700   -0.7900 c3        1 OFH      0.438000
      9 C9          1.4760    1.5110   -2.8070 c3        1 OFH      0.001000
     10 C10        -6.0180    7.5760   -1.0440 c1        1 OFH      0.060000
     11 C11         0.6360    1.5690    0.0580 c3        1 OFH     -0.240000
     12 C12        -1.6260    2.5100    0.2300 c1        1 OFH      0.008000
     13 C13        -5.5900    5.8010   -2.9080 c2        1 OFH      0.397000
     14 C14        -4.8440    3.5340   -2.1250 c3        1 OFH     -0.106000
     15 C15         2.8730   -7.9340   -7.0110 c3        1 OFH      0.562000
     16 C16         3.3770   -0.7900   -6.3170 c2        1 OFH      0.134000
     17 N17        -6.0130    4.3900   -2.5990 n4        1 OFH     -0.097000
     18 C18        -5.3150    3.0030   -0.8080 c1        1 OFH     -0.229000
     19 N19        -4.6140    2.3250    0.0340 n3        1 OFH     -0.164000
     20 C20         3.4200   -2.1520   -4.2820 c3        1 OFH     -0.165000
     21 C21         3.2170   -1.9660   -7.1240 c2        1 OFH     -0.179000
     22 C24        -4.5250    2.4170   -3.1280 c3        1 OFH     -0.264000
     23 C25        -4.0670    2.7560   -4.4460 c1        1 OFH     -0.035000
     24 C26         3.0730   -9.1650   -6.2480 c1        1 OFH     -0.280000
     25 O27        -1.7190    3.1310   -2.2450 o         1 OFH     -0.453000
     26 C29         3.1370   -3.1910   -6.5090 c2        1 OFH      0.074000
     27 O30        -5.0930    5.9970   -4.0110 o         1 OFH     -0.171000
     28 F31        -0.6810   -0.5500   -1.6540 f         1 OFH     -0.154667
     29 F32        -1.4250   -0.4290    0.3840 f         1 OFH     -0.154667
     30 F33        -2.6430    0.2940   -1.2630 f         1 OFH     -0.154667
     31 F36         1.8840   -7.1080   -6.5210 f         1 OFH     -0.159000
     32 CL          3.4280    0.6790   -7.1670 cl        1 OFH      0.029000
     33 C38         3.2270   -3.3380   -5.0740 c1        1 OFH     -0.066000
     34 C39         3.2380  -10.1740   -5.6310 c1        1 OFH     -0.043000
     35 H5          2.4520    2.3400   -4.5700 h1        1 OFH      0.162000
     36 H7          0.1470    2.8100   -3.7640 hn        1 OFH      0.255000
     37 H9          1.2210    0.4850   -2.4030 h1        1 OFH      0.114500
     38 H9A         2.1760    2.0120   -2.0720 h1        1 OFH      0.114500
     39 H10        -6.1860    8.3240   -0.2990 ha        1 OFH      0.265000
     40 H10A        1.5290    0.8390   -4.8690 h1        1 OFH      0.162000
     41 H11         1.2420    2.4950   -0.0860 hc        1 OFH      0.121667
     42 H11A        1.2020    0.6880   -0.3410 hc        1 OFH      0.121667
     43 H12         0.4870    1.4010    1.1550 hc        1 OFH      0.121667
     44 H12A       -1.2330    3.4890    0.5380 ha        1 OFH      0.085000
     45 HN17       -6.7230    4.3790   -1.8440 hn        1 OFH      0.263000
     46 H18        -3.6370    2.0710   -0.0550 hn        1 OFH      0.244500
     47 HN19       -5.0620    2.0290    0.8790 hn        1 OFH      0.244500
     48 H20         4.3930   -2.3290   -3.7120 hc        1 OFH      0.194500
     49 H21         3.1620   -1.8690   -8.2210 ha        1 OFH      0.183000
     50 H24        -5.3800    1.6840   -3.2030 hc        1 OFH      0.190000
     51 H24A       -3.6500    1.8270   -2.6870 hc        1 OFH      0.190000
     52 H25        -3.9430    4.2130   -2.0350 hx        1 OFH      0.160000
     53 H25A       -3.9040    3.8120   -4.7020 ha        1 OFH      0.068000
     54 H26         2.9510   -5.0780   -6.7020 ho        1 OFH      0.263000
     55 H38         2.6230   -2.1520   -3.4700 hc        1 OFH      0.194500
     56 H39         3.3860  -11.0730   -5.0820 ha        1 OFH      0.243000
     57 H39A        1.6050   -1.4390   -1.3760 ha        1 OFH      0.002500
     58 H39B        2.2670   -1.3760   -1.2420 ha        1 OFH      0.002500
     59 O22         4.7390    1.2900   -4.2860 o         1 OFH     -0.923500
     60 O28         2.9640   -4.2940   -7.2860 oh        1 OFH     -0.219000
     61 F34         3.9710   -7.1040   -7.0620 f         1 OFH     -0.159000
     62 H172       -6.4130    3.9690   -3.4430 hn        1 OFH      0.263000
     63 O23         3.6950   -0.0280   -2.5860 o         1 OFH     -0.923500
     64 F35         2.5300   -8.1220   -8.3270 f         1 OFH     -0.159000
@<TRIPOS>BOND
     1    1    4 1   
     2    1    8 1   
     3    1   11 1   
     4    1   12 1   
     5    2    5 1   
     6    2    6 1   
     7    2   59 1   
     8    2   63 1   
     9    3    4 1   
    10    3    9 1   
    11    3   36 1   
    12    4   25 1   
    13    5    9 1   
    14    5   35 1   
    15    5   40 1   
    16    6   16 1   
    17    6   20 1   
    18    7   10 1   
    19    7   13 1   
    20    8   28 1   
    21    8   29 1   
    22    8   30 1   
    23    9   37 1   
    24    9   38 1   
    25   10   39 1   
    26   11   41 1   
    27   11   42 1   
    28   11   43 1   
    29   12   44 1   
    30   13   17 1   
    31   13   27 1   
    32   14   17 1   
    33   14   18 1   
    34   14   22 1   
    35   14   52 1   
    36   15   24 1   
    37   15   31 1   
    38   15   61 1   
    39   15   64 1   
    40   16   21 1   
    41   16   32 1   
    42   17   45 1   
    43   17   62 1   
    44   18   19 1   
    45   19   46 1   
    46   19   47 1   
    47   20   33 1   
    48   20   48 1   
    49   20   55 1   
    50   21   26 1   
    51   21   49 1   
    52   22   23 1   
    53   22   50 1   
    54   22   51 1   
    55   23   53 1   
    56   24   34 1   
    57   26   33 1   
    58   26   60 1   
    59   34   56 1   
    60   54   60 1   
    61   57   58 1   
@<TRIPOS>SUBSTRUCTURE
     1 OFH         1 TEMP              0 ****  ****    0 ROOT
