@<TRIPOS>MOLECULE
OFH
   64    61     1     0     0
SMALL
bcc


@<TRIPOS>ATOM
      1 C1         -2.0170    0.6730    1.1720 c3        1 OFH     -0.392000
      2 S2          0.4160    0.4640   -3.4830 s6        1 OFH      2.880000
      3 N3         -0.5340    1.5090   -0.6630 n         1 OFH     -0.377000
      4 C4         -1.6640    1.6660    0.1050 c2        1 OFH      0.368000
      5 C5          0.0710   -0.4450   -2.0830 c3        1 OFH     -0.894000
      6 C6          0.6160   -0.7190   -4.6120 c2        1 OFH     -0.978000
      7 C7         -0.4080    5.7610   -4.2410 c1        1 OFH     -0.293000
      8 C8         -2.9730   -0.4230    0.6810 c3        1 OFH      0.481000
      9 C9          0.2690    0.3270   -0.7720 c3        1 OFH      0.010000
     10 C10        -0.0530    6.7580   -4.8030 c1        1 OFH      0.043000
     11 C11        -1.0330    0.3570    2.2680 c3        1 OFH     -0.347000
     12 C12        -2.1950    1.2070    2.6030 c1        1 OFH      0.313000
     13 C13        -0.7810    4.6100   -3.5090 c2        1 OFH      0.430000
     14 C14        -2.9740    3.5490   -2.9960 c3        1 OFH     -0.130000
     15 C15         4.3670   -5.8250   -8.2860 c3        1 OFH      0.562000
     16 C16        -0.3150   -1.5590   -5.1580 c2        1 OFH      0.155000
     17 N17        -1.9690    3.8690   -4.0740 n4        1 OFH     -0.077000
     18 C18        -3.3810    4.8710   -2.4000 c1        1 OFH     -0.188000
     19 N19        -3.8950    4.9810   -1.2180 n3        1 OFH     -0.173000
     20 C20         2.0250   -0.8320   -5.1070 c3        1 OFH     -0.162000
     21 C21        -0.0060   -2.5620   -6.1320 c2        1 OFH     -0.202000
     22 C24        -4.1940    2.8150   -3.5680 c3        1 OFH     -0.259000
     23 C25        -4.0120    1.5150   -4.1550 c1        1 OFH     -0.047000
     24 C26         5.7530   -6.1200   -8.6400 c1        1 OFH     -0.284000
     25 O27        -2.3780    2.6760   -0.0860 o         1 OFH     -0.394000
     26 C29         1.3010   -2.7330   -6.5220 c2        1 OFH      0.093000
     27 O30        -0.2460    4.1510   -2.5080 o         1 OFH     -0.190000
     28 F31        -2.4470   -1.2160   -0.3110 f         1 OFH     -0.154667
     29 F32        -3.3560   -1.3110    1.6530 f         1 OFH     -0.154667
     30 F33        -4.1440    0.0500    0.1480 f         1 OFH     -0.154667
     31 F36         4.1940   -5.2850   -7.0290 f         1 OFH     -0.161000
     32 CL         -1.9430   -1.4890   -4.6800 cl        1 OFH      0.034000
     33 C38         2.3510   -1.8380   -6.0850 c1        1 OFH     -0.051000
     34 C39         6.8840   -6.3690   -8.9330 c1        1 OFH     -0.035000
     35 H5         -0.9780   -0.8530   -2.1020 h1        1 OFH      0.177000
     36 H7         -0.3090    2.2630   -1.2830 hn        1 OFH      0.252000
     37 H9          0.0350   -0.3730    0.0800 h1        1 OFH      0.122000
     38 H9A         1.3550    0.6320   -0.7020 h1        1 OFH      0.122000
     39 H10         0.2640    7.6430   -5.3100 ha        1 OFH      0.262000
     40 H10A        0.7300   -1.3530   -2.0050 h1        1 OFH      0.177000
     41 H11        -0.0090    0.7790    2.2150 hc        1 OFH      0.182000
     42 H11A       -1.0060   -0.6810    2.6690 hc        1 OFH      0.182000
     43 H12        -1.2670    3.1660    2.2080 ha        1 OFH      0.011500
     44 H12A       -1.6740    3.3860    2.7110 ha        1 OFH      0.011500
     45 HN17       -2.4220    4.4470   -4.7880 hn        1 OFH      0.268500
     46 H18        -4.0360    4.2300   -0.5670 hn        1 OFH      0.234500
     47 HN19       -4.1380    5.8950   -0.8930 hn        1 OFH      0.234500
     48 H20         2.3420    0.1570   -5.5760 hc        1 OFH      0.190500
     49 H21        -0.8120   -3.1980   -6.5350 ha        1 OFH      0.189000
     50 H24        -4.7470    3.4690   -4.3060 hc        1 OFH      0.181500
     51 H24A       -4.9230    2.6500   -2.7120 hc        1 OFH      0.181500
     52 H25        -2.4260    2.8680   -2.2710 hx        1 OFH      0.165000
     53 H25A       -3.0090    1.0620   -4.1510 ha        1 OFH      0.077000
     54 H26         2.5620   -3.7400   -7.5370 ho        1 OFH      0.269000
     55 H38         2.7420   -0.9700   -4.2370 hc        1 OFH      0.190500
     56 H39         3.1590   -3.8870   -5.1130 ha        1 OFH      0.011500
     57 H39A        3.7440   -3.5940   -5.2960 ha        1 OFH      0.011500
     58 H39B        7.8910   -6.5920   -9.1950 ha        1 OFH      0.245000
     59 O22        -0.6950    1.3070   -3.7710 o         1 OFH     -0.979000
     60 O28         1.5960   -3.7460   -7.3740 oh        1 OFH     -0.208000
     61 F34         3.7470   -4.9030   -9.1000 f         1 OFH     -0.161000
     62 H172       -1.6420    2.9770   -4.4810 hn        1 OFH      0.268500
     63 O23         1.6030    1.1890   -3.2960 o         1 OFH     -0.979000
     64 F35         3.5230   -6.9090   -8.3010 f         1 OFH     -0.161000
@<TRIPOS>BOND
     1    1    4 1   
     2    1    8 1   
     3    1   11 1   
     4    1   12 1   
     5    2    5 1   
     6    2    6 1   
     7    2   59 1   
     8    2   63 1   
     9    3    4 1   
    10    3    9 1   
    11    3   36 1   
    12    4   25 1   
    13    5    9 1   
    14    5   35 1   
    15    5   40 1   
    16    6   16 1   
    17    6   20 1   
    18    7   10 1   
    19    7   13 1   
    20    8   28 1   
    21    8   29 1   
    22    8   30 1   
    23    9   37 1   
    24    9   38 1   
    25   10   39 1   
    26   11   12 1   
    27   11   41 1   
    28   11   42 1   
    29   13   17 1   
    30   13   27 1   
    31   14   17 1   
    32   14   18 1   
    33   14   22 1   
    34   14   52 1   
    35   15   24 1   
    36   15   31 1   
    37   15   61 1   
    38   15   64 1   
    39   16   21 1   
    40   16   32 1   
    41   17   45 1   
    42   17   62 1   
    43   18   19 1   
    44   19   46 1   
    45   19   47 1   
    46   20   33 1   
    47   20   48 1   
    48   20   55 1   
    49   21   26 1   
    50   21   49 1   
    51   22   23 1   
    52   22   50 1   
    53   22   51 1   
    54   23   53 1   
    55   24   34 1   
    56   26   33 1   
    57   26   60 1   
    58   34   58 1   
    59   43   44 1   
    60   54   60 1   
    61   56   57 1   
@<TRIPOS>SUBSTRUCTURE
     1 OFH         1 TEMP              0 ****  ****    0 ROOT
