@<TRIPOS>MOLECULE
OFI
   39    41     1     0     0
SMALL
bcc


@<TRIPOS>ATOM
      1 C1          0.0810   -0.1920   -0.0810 ca        1 OFI     -0.230900
      2 C2          1.4890   -0.4730    0.0250 ca        1 OFI     -0.046200
      3 C3         -0.2080   -0.3840   -1.5190 cc        1 OFI      0.419500
      4 C4         -0.6490    0.1510    1.0510 ca        1 OFI     -0.066000
      5 C5          2.1490   -0.3990    1.2570 ca        1 OFI     -0.134000
      6 N6          1.9190   -0.8760   -1.2580 na        1 OFI     -0.005100
      7 N7          0.9340   -0.7490   -2.1710 nd        1 OFI     -0.518100
      8 N8         -1.4800   -0.2260   -2.0570 n         1 OFI     -0.474400
      9 C9          0.0130    0.2270    2.2680 ca        1 OFI     -0.152000
     10 C10         1.3970   -0.0420    2.3780 cp        1 OFI      0.007000
     11 C11        -1.7870   -0.0660   -3.4100 c         1 OFI      0.663100
     12 C12         2.0460    0.0580    3.6840 cp        1 OFI     -0.082000
     13 C13        -3.2720   -0.0060   -3.7290 c3        1 OFI     -0.152400
     14 O14        -0.9120    0.0300   -4.2820 o         1 OFI     -0.547100
     15 C15         1.4100   -0.4410    4.8320 ca        1 OFI     -0.079500
     16 C16         3.3100    0.6510    3.8050 ca        1 OFI     -0.079500
     17 C17        -3.4950    0.2130   -5.2100 c3        1 OFI     -0.075400
     18 C18         2.0180   -0.3540    6.0790 ca        1 OFI     -0.186500
     19 C19         3.9330    0.7510    5.0460 ca        1 OFI     -0.186500
     20 C20        -4.9650    0.2660   -5.5360 c3        1 OFI     -0.095100
     21 C21         3.2840    0.2460    6.1820 ca        1 OFI      0.130100
     22 O22         3.8330    0.3070    7.4410 oh        1 OFI     -0.495100
     23 H4         -1.7260    0.3610    0.9840 ha        1 OFI      0.132000
     24 H5          3.2210   -0.6240    1.3420 ha        1 OFI      0.145000
     25 HN8        -2.2210   -0.2400   -1.3950 hn        1 OFI      0.323500
     26 H9         -0.5440    0.5110    3.1740 ha        1 OFI      0.138000
     27 H13        -3.7550   -0.9670   -3.4100 hc        1 OFI      0.063200
     28 H13A       -3.7460    0.8290   -3.1470 hc        1 OFI      0.063200
     29 H15         0.4210   -0.9160    4.7430 ha        1 OFI      0.138500
     30 H16         3.8140    1.0500    2.9110 ha        1 OFI      0.138500
     31 H17        -2.9950    1.1680   -5.5240 hc        1 OFI      0.061200
     32 H17A       -3.0010   -0.6140   -5.7850 hc        1 OFI      0.061200
     33 H18         1.5280   -0.7460    6.9810 ha        1 OFI      0.144500
     34 H19         4.9220    1.2210    5.1350 ha        1 OFI      0.144500
     35 H20        -5.4690   -0.6890   -5.2520 hc        1 OFI      0.034700
     36 H20A       -5.4640    1.1020   -4.9880 hc        1 OFI      0.034700
     37 H20B       -5.1090    0.4280   -6.6310 hc        1 OFI      0.034700
     38 HO22        4.6980    0.7380    7.3700 ho        1 OFI      0.421000
     39 HN6         2.8500   -0.7310   -1.5830 hn        1 OFI      0.307700
@<TRIPOS>BOND
     1    1    2 ar  
     2    1    3 1   
     3    1    4 ar  
     4    2    5 ar  
     5    2    6 1   
     6    3    7 2   
     7    3    8 1   
     8    4    9 ar  
     9    4   23 1   
    10    5   10 ar  
    11    5   24 1   
    12    6    7 1   
    13    6   39 1   
    14    8   11 1   
    15    8   25 1   
    16    9   10 ar  
    17    9   26 1   
    18   10   12 1   
    19   11   13 1   
    20   11   14 2   
    21   12   15 ar  
    22   12   16 ar  
    23   13   17 1   
    24   13   27 1   
    25   13   28 1   
    26   15   18 ar  
    27   15   29 1   
    28   16   19 ar  
    29   16   30 1   
    30   17   20 1   
    31   17   31 1   
    32   17   32 1   
    33   18   21 ar  
    34   18   33 1   
    35   19   21 ar  
    36   19   34 1   
    37   20   35 1   
    38   20   36 1   
    39   20   37 1   
    40   21   22 1   
    41   22   38 1   
@<TRIPOS>SUBSTRUCTURE
     1 OFI         1 TEMP              0 ****  ****    0 ROOT
