@<TRIPOS>MOLECULE
OFI
   39    30     1     0     0
SMALL
bcc


@<TRIPOS>ATOM
      1 C1         -0.3080   -0.3250    0.1200 c1        1 OFI     -0.056500
      2 C2          1.0510   -0.2410    0.1550 c1        1 OFI     -0.056500
      3 C3         -0.6860   -0.5780   -1.1860 c1        1 OFI      0.042000
      4 C4         -1.0540   -0.1500    1.3010 c1        1 OFI     -0.108250
      5 C5          1.7090    0.0200    1.3720 c1        1 OFI     -0.108250
      6 N6          1.5180   -0.4400   -1.1150 n1        1 OFI     -0.179000
      7 N7          0.4360   -0.6480   -1.9400 n2        1 OFI     -0.052000
      8 N8         -1.9100   -0.4800   -1.8970 n2        1 OFI     -0.314000
      9 C9         -0.4060    0.1070    2.4980 c1        1 OFI     -0.108250
     10 C10         0.9740    0.1920    2.5340 c1        1 OFI     -0.056500
     11 C11        -1.9470   -0.7610   -3.2880 c2        1 OFI      0.307000
     12 C12         1.7770    0.5480    3.6070 c1        1 OFI     -0.056500
     13 C13        -3.2400   -0.6030   -4.0560 c3        1 OFI     -0.181000
     14 O14        -0.9310   -1.0860   -3.8690 o         1 OFI     -0.308000
     15 C15         2.4470    1.7460    3.4150 c1        1 OFI     -0.145500
     16 C16         2.1910   -0.3260    4.6000 c1        1 OFI     -0.108250
     17 C17        -3.0440   -1.0830   -5.4780 c3        1 OFI     -0.154000
     18 C18         3.5300    2.0700    4.2170 c1        1 OFI     -0.145500
     19 C19         3.2750   -0.0020    5.4010 c1        1 OFI     -0.158000
     20 C20        -4.2010   -0.6130   -6.3330 c3        1 OFI     -0.213000
     21 C21         3.9440    1.1960    5.2100 c1        1 OFI      0.086000
     22 O22         5.0840    1.4950    5.9790 oh        1 OFI     -0.249000
     23 H4         -2.0280   -0.2100    1.2760 ha        1 OFI      0.139000
     24 H5          2.6820    0.0800    1.3970 ha        1 OFI      0.139000
     25 HN8        -2.6780   -0.2620   -1.4550 hn        1 OFI      0.237000
     26 H9         -0.9240    0.2280    3.3170 ha        1 OFI      0.139000
     27 H13        -3.5020    0.3390   -4.0640 hc        1 OFI      0.102500
     28 H13A       -3.9410   -1.1330   -3.6270 hc        1 OFI      0.102500
     29 H15         2.1550    2.3620    2.7160 ha        1 OFI      0.137500
     30 H16         1.7200   -1.1700    4.7350 ha        1 OFI      0.139000
     31 H17        -2.2080   -0.7190   -5.8320 hc        1 OFI      0.100000
     32 H17A       -3.0060   -2.0600   -5.4900 hc        1 OFI      0.100000
     33 H18         4.0020    2.9140    4.0820 ha        1 OFI      0.137500
     34 H19         3.5660   -0.6180    6.1010 ha        1 OFI      0.153000
     35 H20        -4.0780   -0.9310   -7.2510 hc        1 OFI      0.074000
     36 H20A       -5.0390   -0.9710   -5.9730 hc        1 OFI      0.074000
     37 H20B       -4.2340    0.3670   -6.3270 hc        1 OFI      0.074000
     38 HO22        4.9060    2.1790    6.5200 ho        1 OFI      0.220000
     39 HN6         2.3940   -0.4350   -1.3710 DU        1 OFI      0.257000
@<TRIPOS>BOND
     1    1    4 1   
     2    2    5 1   
     3    3    7 1   
     4    4   23 1   
     5    5   24 1   
     6    6    7 1   
     7    8   11 1   
     8    8   25 1   
     9    9   10 1   
    10    9   26 1   
    11   11   13 1   
    12   11   14 1   
    13   12   16 1   
    14   13   17 1   
    15   13   27 1   
    16   13   28 1   
    17   15   18 1   
    18   15   29 1   
    19   16   30 1   
    20   17   20 1   
    21   17   31 1   
    22   17   32 1   
    23   18   33 1   
    24   19   21 1   
    25   19   34 1   
    26   20   35 1   
    27   20   36 1   
    28   20   37 1   
    29   21   22 1   
    30   22   38 1   
@<TRIPOS>SUBSTRUCTURE
     1 OFI         1 TEMP              0 ****  ****    0 ROOT
