@<TRIPOS>MOLECULE
OFI
   39    41     1     0     0
SMALL
bcc


@<TRIPOS>ATOM
      1 C1         -0.7820   -0.0980    0.0710 ca        1 OFI     -0.230900
      2 C2          0.0320   -1.2740   -0.0930 ca        1 OFI     -0.047200
      3 C3         -2.1660   -0.6210    0.0300 cc        1 OFI      0.420500
      4 C4         -0.1870    1.1480    0.2270 ca        1 OFI     -0.066000
      5 C5          1.4280   -1.1890   -0.1040 ca        1 OFI     -0.133000
      6 N6         -0.8510   -2.3760   -0.1330 na        1 OFI     -0.004100
      7 N7         -2.1390   -1.9750   -0.1360 nd        1 OFI     -0.519100
      8 N8         -3.2820    0.1960    0.1730 n         1 OFI     -0.474400
      9 C9          1.1990    1.2250    0.2060 ca        1 OFI     -0.152000
     10 C10         2.0040    0.0750    0.0420 cp        1 OFI      0.006000
     11 C11        -4.5960   -0.1400   -0.1560 c         1 OFI      0.663100
     12 C12         3.4600    0.2130    0.0270 cp        1 OFI     -0.083000
     13 C13        -5.6350    0.9170    0.1860 c3        1 OFI     -0.152400
     14 O14        -4.8910   -1.2150   -0.6960 o         1 OFI     -0.547100
     15 C15         4.0650    1.2720   -0.6690 ca        1 OFI     -0.079000
     16 C16         4.2670   -0.7080    0.7080 ca        1 OFI     -0.079000
     17 C17        -7.0170    0.4700   -0.2390 c3        1 OFI     -0.075400
     18 C18         5.4470    1.4130   -0.6920 ca        1 OFI     -0.186500
     19 C19         5.6530   -0.5810    0.7000 ca        1 OFI     -0.186500
     20 C20        -8.0520    1.5100    0.1030 c3        1 OFI     -0.095100
     21 C21         6.2410    0.4810   -0.0020 ca        1 OFI      0.131100
     22 O22         7.6010    0.6730   -0.0580 oh        1 OFI     -0.495100
     23 H4         -0.7970    2.0510    0.3640 ha        1 OFI      0.132000
     24 H5          2.0510   -2.0840   -0.2310 ha        1 OFI      0.145000
     25 HN8        -3.0970    1.0950    0.5540 hn        1 OFI      0.323500
     26 H9          1.6910    2.2020    0.3290 ha        1 OFI      0.139000
     27 H13        -5.6190    1.1020    1.2930 hc        1 OFI      0.063200
     28 H13A       -5.3720    1.8790   -0.3280 hc        1 OFI      0.063200
     29 H15         3.4370    1.9950   -1.2120 ha        1 OFI      0.139500
     30 H16         3.8000   -1.5380    1.2620 ha        1 OFI      0.139500
     31 H17        -7.0190    0.2710   -1.3430 hc        1 OFI      0.060700
     32 H17A       -7.2640   -0.5020    0.2650 hc        1 OFI      0.060700
     33 H18         5.9280    2.2360   -1.2380 ha        1 OFI      0.144500
     34 H19         6.2800   -1.3040    1.2390 ha        1 OFI      0.144500
     35 H20        -8.0780    1.6980    1.2030 hc        1 OFI      0.034700
     36 H20A       -7.8310    2.4750   -0.4130 hc        1 OFI      0.034700
     37 H20B       -9.0640    1.1630   -0.2190 hc        1 OFI      0.034700
     38 HO22        8.0240   -0.0320    0.4530 ho        1 OFI      0.421000
     39 HN6        -0.6440   -3.2060   -0.6460 hn        1 OFI      0.306700
@<TRIPOS>BOND
     1    1    2 ar  
     2    1    3 1   
     3    1    4 ar  
     4    2    5 ar  
     5    2    6 1   
     6    3    7 2   
     7    3    8 1   
     8    4    9 ar  
     9    4   23 1   
    10    5   10 ar  
    11    5   24 1   
    12    6    7 1   
    13    6   39 1   
    14    8   11 1   
    15    8   25 1   
    16    9   10 ar  
    17    9   26 1   
    18   10   12 1   
    19   11   13 1   
    20   11   14 2   
    21   12   15 ar  
    22   12   16 ar  
    23   13   17 1   
    24   13   27 1   
    25   13   28 1   
    26   15   18 ar  
    27   15   29 1   
    28   16   19 ar  
    29   16   30 1   
    30   17   20 1   
    31   17   31 1   
    32   17   32 1   
    33   18   21 ar  
    34   18   33 1   
    35   19   21 ar  
    36   19   34 1   
    37   20   35 1   
    38   20   36 1   
    39   20   37 1   
    40   21   22 1   
    41   22   38 1   
@<TRIPOS>SUBSTRUCTURE
     1 OFI         1 TEMP              0 ****  ****    0 ROOT
