@<TRIPOS>MOLECULE
OFI
   39    41     1     0     0
SMALL
bcc


@<TRIPOS>ATOM
      1 C1          0.1240    0.0630   -0.1120 ca        1 OFI     -0.230900
      2 C2          1.5510   -0.0980   -0.0250 ca        1 OFI     -0.047200
      3 C3         -0.1470    0.0190   -1.5660 cc        1 OFI      0.420500
      4 C4         -0.6320    0.2200    1.0440 ca        1 OFI     -0.066000
      5 C5          2.2030   -0.1070    1.2120 ca        1 OFI     -0.133000
      6 N6          2.0360   -0.1400   -1.3520 na        1 OFI     -0.004100
      7 N7          1.0240   -0.1460   -2.2450 nd        1 OFI     -0.519100
      8 N8         -1.4250    0.1600   -2.0960 ns        1 OFI     -0.474400
      9 C9          0.0200    0.2010    2.2690 ca        1 OFI     -0.152000
     10 C10         1.4220    0.0400    2.3600 cp        1 OFI      0.006000
     11 C11        -1.8190   -0.1690   -3.3940 c         1 OFI      0.663100
     12 C12         2.0580    0.0270    3.6770 cp        1 OFI     -0.083000
     13 C13        -3.2610    0.1700   -3.7330 c3        1 OFI     -0.152400
     14 O14        -1.0520   -0.7090   -4.2040 o         1 OFI     -0.547100
     15 C15         1.4680   -0.6680    4.7440 ca        1 OFI     -0.079000
     16 C16         3.2640    0.7100    3.8880 ca        1 OFI     -0.079000
     17 C17        -3.5950   -0.2530   -5.1480 c3        1 OFI     -0.075400
     18 C18         2.0640   -0.6890    5.9990 ca        1 OFI     -0.186500
     19 C19         3.8740    0.7040    5.1380 ca        1 OFI     -0.186500
     20 C20        -5.0220    0.0850   -5.4930 c3        1 OFI     -0.095100
     21 C21         3.2720    0.0030    6.1930 ca        1 OFI      0.131100
     22 O22         3.8140   -0.0500    7.4560 oh        1 OFI     -0.495100
     23 H4         -1.7220    0.3560    0.9900 ha        1 OFI      0.132000
     24 H5          3.2920   -0.2330    1.2810 ha        1 OFI      0.145000
     25 HN8        -2.0980    0.5400   -1.4720 hn        1 OFI      0.323500
     26 H9         -0.5600    0.3250    3.1960 ha        1 OFI      0.139000
     27 H13        -3.9460   -0.3480   -3.0110 hc        1 OFI      0.063200
     28 H13A       -3.4150    1.2760   -3.6220 hc        1 OFI      0.063200
     29 H15         0.5240   -1.2120    4.5830 ha        1 OFI      0.139500
     30 H16         3.7300    1.2630    3.0580 ha        1 OFI      0.139500
     31 H17        -2.8930    0.2540   -5.8620 hc        1 OFI      0.060700
     32 H17A       -3.4220   -1.3570   -5.2550 hc        1 OFI      0.060700
     33 H18         1.6110   -1.2340    6.8380 ha        1 OFI      0.144500
     34 H19         4.8170    1.2450    5.2980 ha        1 OFI      0.144500
     35 H20        -5.2480   -0.2340   -6.5390 hc        1 OFI      0.034700
     36 H20A       -5.7310   -0.4350   -4.8050 hc        1 OFI      0.034700
     37 H20B       -5.1990    1.1850   -5.4150 hc        1 OFI      0.034700
     38 HO22        4.6360    0.4620    7.4500 ho        1 OFI      0.421000
     39 HN6         2.8530   -0.6530   -1.6040 hn        1 OFI      0.306700
@<TRIPOS>BOND
     1    1    2 ar  
     2    1    3 1   
     3    1    4 ar  
     4    2    5 ar  
     5    2    6 1   
     6    3    7 2   
     7    3    8 1   
     8    4    9 ar  
     9    4   23 1   
    10    5   10 ar  
    11    5   24 1   
    12    6    7 1   
    13    6   39 1   
    14    8   11 1   
    15    8   25 1   
    16    9   10 ar  
    17    9   26 1   
    18   10   12 1   
    19   11   13 1   
    20   11   14 2   
    21   12   15 ar  
    22   12   16 ar  
    23   13   17 1   
    24   13   27 1   
    25   13   28 1   
    26   15   18 ar  
    27   15   29 1   
    28   16   19 ar  
    29   16   30 1   
    30   17   20 1   
    31   17   31 1   
    32   17   32 1   
    33   18   21 ar  
    34   18   33 1   
    35   19   21 ar  
    36   19   34 1   
    37   20   35 1   
    38   20   36 1   
    39   20   37 1   
    40   21   22 1   
    41   22   38 1   
@<TRIPOS>SUBSTRUCTURE
     1 OFI         1 TEMP              0 ****  ****    0 ROOT
