@<TRIPOS>MOLECULE
OFI
   40    42     1     0     0
SMALL
bcc


@<TRIPOS>ATOM
      1 C1         -0.9950    0.2770    0.4120 ca        1 OFI     -0.186900
      2 C2          0.1100    1.2040    0.4040 ca        1 OFI     -0.042200
      3 C3         -1.7940    0.6980   -0.7290 cc        1 OFI      0.307800
      4 C4         -1.0620   -0.7120    1.3970 ca        1 OFI     -0.093000
      5 C5          1.1270    1.1450    1.3660 ca        1 OFI     -0.121000
      6 N6         -0.1040    2.0620   -0.6970 na        1 OFI      0.044900
      7 N7         -1.2080    1.7790   -1.3550 nd        1 OFI     -0.460100
      8 N8         -3.0330    0.0860   -1.1490 n4        1 OFI     -0.582800
      9 C9         -0.0550   -0.7630    2.3420 ca        1 OFI     -0.101000
     10 C10         1.0350    0.1510    2.3390 cp        1 OFI      0.048000
     11 C11        -2.8430   -0.8060   -2.3810 c         1 OFI      0.564100
     12 C12         2.0630    0.0400    3.3680 cp        1 OFI     -0.128000
     13 C13        -2.4710   -0.1110   -3.6520 c3        1 OFI     -0.145400
     14 O14        -3.0230   -1.9910   -2.1620 o         1 OFI     -0.407100
     15 C15         1.7070   -0.2510    4.6970 ca        1 OFI     -0.065500
     16 C16         3.4150    0.2240    3.0450 ca        1 OFI     -0.065500
     17 C17        -2.9940   -0.8840   -4.8510 c3        1 OFI     -0.082400
     18 C18         2.6740   -0.3550    5.6850 ca        1 OFI     -0.185500
     19 C19         4.3990    0.1160    4.0210 ca        1 OFI     -0.185500
     20 C20        -2.5220   -0.2430   -6.1310 c3        1 OFI     -0.101100
     21 C21         4.0280   -0.1720    5.3430 ca        1 OFI      0.161100
     22 O22         4.9340   -0.2920    6.3630 oh        1 OFI     -0.480100
     23 H4         -1.8900   -1.4360    1.4180 ha        1 OFI      0.144000
     24 H5          1.9610    1.8620    1.3610 ha        1 OFI      0.167000
     25 HN8        -3.3740   -0.4840   -0.3610 hn        1 OFI      0.468300
     26 H9         -0.0810   -1.5420    3.1230 ha        1 OFI      0.165000
     27 H13        -2.8560    0.9440   -3.6760 hc        1 OFI      0.108700
     28 H13A       -1.3450   -0.0620   -3.6880 hc        1 OFI      0.108700
     29 H15         0.6470   -0.3860    4.9630 ha        1 OFI      0.137000
     30 H16         3.7060    0.4420    2.0060 ha        1 OFI      0.137000
     31 H17        -2.6370   -1.9470   -4.7990 hc        1 OFI      0.068200
     32 H17A       -4.1160   -0.9050   -4.8270 hc        1 OFI      0.068200
     33 H18         2.4050   -0.5760    6.7290 ha        1 OFI      0.157000
     34 H19         5.4580    0.2540    3.7590 ha        1 OFI      0.157000
     35 H20        -2.8810    0.8120   -6.2070 hc        1 OFI      0.054700
     36 H20A       -1.4070   -0.2440   -6.1900 hc        1 OFI      0.054700
     37 H20B       -2.9210   -0.8150   -7.0060 hc        1 OFI      0.054700
     38 HO22        5.8230   -0.1480    6.0040 ho        1 OFI      0.432000
     39 HN6         0.4580    2.8420   -0.9720 hn        1 OFI      0.359700
     40 H82        -3.7260    0.8140   -1.3640 hn        1 OFI      0.468300
@<TRIPOS>BOND
     1    1    2 ar  
     2    1    3 1   
     3    1    4 ar  
     4    2    5 ar  
     5    2    6 1   
     6    3    7 2   
     7    3    8 1   
     8    4    9 ar  
     9    4   23 1   
    10    5   10 ar  
    11    5   24 1   
    12    6    7 1   
    13    6   39 1   
    14    8   11 1   
    15    8   25 1   
    16    8   40 1   
    17    9   10 ar  
    18    9   26 1   
    19   10   12 1   
    20   11   13 1   
    21   11   14 2   
    22   12   15 ar  
    23   12   16 ar  
    24   13   17 1   
    25   13   27 1   
    26   13   28 1   
    27   15   18 ar  
    28   15   29 1   
    29   16   19 ar  
    30   16   30 1   
    31   17   20 1   
    32   17   31 1   
    33   17   32 1   
    34   18   21 ar  
    35   18   33 1   
    36   19   21 ar  
    37   19   34 1   
    38   20   35 1   
    39   20   36 1   
    40   20   37 1   
    41   21   22 1   
    42   22   38 1   
@<TRIPOS>SUBSTRUCTURE
     1 OFI         1 TEMP              0 ****  ****    0 ROOT
