@<TRIPOS>MOLECULE
OFL
   30    30     1     0     0
SMALL
bcc


@<TRIPOS>ATOM
      1 C1'        -0.3220   -0.7010    0.1960 c2        1 OFL     -0.429000
      2 C2'         0.9990   -0.1500    0.0190 c2        1 OFL     -0.098000
      3 C3'         1.8610    0.0520    1.0550 c2        1 OFL      0.033000
      4 C4'         1.4420   -0.2250    2.4430 c2        1 OFL     -0.175000
      5 C5'         0.3560    0.3140    3.0130 c2        1 OFL     -0.102000
      6 C6'        -1.0230   -0.7020    1.3180 c1        1 OFL      0.182000
      7 C7'         2.3460   -1.1830    3.2270 c3        1 OFL      0.461000
      8 N           3.1590    0.5610    0.8980 nh        1 OFL     -0.281000
      9 C1          4.8400   -1.5090   -1.6890 ca        1 OFL     -0.021000
     10 C2          6.0590   -0.7630   -1.3520 ca        1 OFL     -0.216000
     11 C3          5.8810    0.5940   -1.5260 ca        1 OFL     -0.073000
     12 C4          5.1390    1.0890   -0.3710 ca        1 OFL     -0.277000
     13 C5          4.0450    0.2460   -0.1130 ca        1 OFL      0.178000
     14 C6          3.8250   -0.9870   -0.9480 ca        1 OFL     -0.202000
     15 O1          6.5230    2.6610    0.8380 o         1 OFL     -0.282000
     16 O2          4.4500    3.2440    0.5510 oh        1 OFL     -0.312000
     17 F1          1.8000   -1.6520    4.3960 f         1 OFL     -0.158667
     18 F2          2.7090   -2.3160    2.5440 f         1 OFL     -0.158667
     19 F3          3.5360   -0.6150    3.6130 f         1 OFL     -0.158667
     20 H1'         1.2880    0.0900   -1.0190 ha        1 OFL      0.151000
     21 H2'        -0.7800   -1.1510   -0.7100 ha        1 OFL      0.195000
     22 H5'        -0.2570    1.0870    2.5180 ha        1 OFL      0.157000
     23 H6'         0.0370    0.0430    4.0320 ha        1 OFL      0.157000
     24 HN1         3.7020    3.0520   -0.0280 ho        1 OFL      0.223000
     25 H1          2.8340   -1.4580   -0.9100 ha        1 OFL      0.153000
     26 H2          4.7760   -2.3780   -2.3470 ha        1 OFL      0.156000
     27 H3          6.5630   -1.1370   -0.4410 ha        1 OFL      0.139000
     28 H6          5.8240    1.1270   -2.4790 ha        1 OFL      0.144000
     29 HN3         3.4940    1.1500    1.6340 hn        1 OFL      0.261000
     30 C7          5.4490    2.3180    0.3470 c2        1 OFL      0.354000
@<TRIPOS>BOND
     1    1    2 1   
     2    1    6 1   
     3    1   21 1   
     4    2    3 1   
     5    2   20 1   
     6    3    4 1   
     7    3    8 1   
     8    4    5 1   
     9    4    7 1   
    10    5   22 1   
    11    5   23 1   
    12    7   17 1   
    13    7   18 1   
    14    7   19 1   
    15    8   13 1   
    16    8   29 1   
    17    9   10 1   
    18    9   14 1   
    19    9   26 1   
    20   10   11 1   
    21   10   27 1   
    22   11   12 1   
    23   11   28 1   
    24   12   13 1   
    25   12   30 1   
    26   13   14 1   
    27   14   25 1   
    28   15   30 1   
    29   16   24 1   
    30   16   30 1   
@<TRIPOS>SUBSTRUCTURE
     1 OFL         1 TEMP              0 ****  ****    0 ROOT
