@<TRIPOS>MOLECULE
OFL
   29    30     1     0     0
SMALL
bcc


@<TRIPOS>ATOM
      1 C1'         1.1030   -0.7400   -0.3140 c2        1 OFL     -0.435000
      2 C2'         1.9070    0.4810   -0.0990 c3        1 OFL     -0.046000
      3 C3'         2.1330    0.8600    1.4190 c3        1 OFL     -0.038000
      4 C4'         1.4540   -0.0910    2.3580 c2        1 OFL     -0.136000
      5 C5'         0.1120   -0.1330    2.4550 c2        1 OFL     -0.142000
      6 C6'         0.3640   -1.4010    0.5520 c1        1 OFL      0.083000
      7 C7'         2.3050   -0.9650    3.2880 c3        1 OFL      0.469000
      8 N           3.5750    1.0330    1.6450 n2        1 OFL     -0.150000
      9 C1          3.8050   -0.7680   -1.4500 c3        1 OFL     -0.105000
     10 C2          5.1900   -1.1920   -1.0260 c2        1 OFL     -0.173000
     11 C3          5.8930   -0.2310   -0.4600 c1        1 OFL     -0.151000
     12 C4          5.6200    0.9450    0.0970 c2        1 OFL     -0.016000
     13 C5          4.2030    0.8670    0.5260 c2        1 OFL      0.065000
     14 C6          3.3240    0.4840   -0.7050 c3        1 OFL     -0.138000
     15 O1          7.5010    2.3240    0.5980 o         1 OFL     -0.540500
     16 O2          5.7660    3.2250   -0.5020 o         1 OFL     -0.540500
     17 F1          1.5740   -1.8840    4.0140 f         1 OFL     -0.162667
     18 F2          3.2560   -1.7360    2.6750 f         1 OFL     -0.162667
     19 F3          2.9740   -0.2680    4.2610 f         1 OFL     -0.162667
     20 H1'         1.3330    1.3320   -0.5680 hc        1 OFL      0.094000
     21 H2'         1.1090   -1.1070   -1.3630 ha        1 OFL      0.182000
     22 H5'        -0.5340    0.5430    1.8770 ha        1 OFL      0.139000
     23 H6'        -0.4080   -0.8220    3.1360 ha        1 OFL      0.139000
     24 HN1         1.6640    1.8770    1.5890 h1        1 OFL      0.120000
     25 H1          3.1370   -1.6400   -1.2220 hc        1 OFL      0.079000
     26 H2          3.7570   -0.5770   -2.5520 hc        1 OFL      0.079000
     27 H3          5.4670   -2.2430   -1.1270 ha        1 OFL      0.130000
     28 H6          3.4060    1.3540   -1.4170 hc        1 OFL      0.132000
     29 C7          6.3630    2.2710    0.0700 c2        1 OFL      0.387000
@<TRIPOS>BOND
     1    1    2 1   
     2    1    6 1   
     3    1   21 1   
     4    2    3 1   
     5    2   14 1   
     6    2   20 1   
     7    3    4 1   
     8    3    8 1   
     9    3   24 1   
    10    4    5 1   
    11    4    7 1   
    12    5   22 1   
    13    5   23 1   
    14    7   17 1   
    15    7   18 1   
    16    7   19 1   
    17    8   13 1   
    18    9   10 1   
    19    9   14 1   
    20    9   25 1   
    21    9   26 1   
    22   10   11 1   
    23   10   27 1   
    24   11   12 1   
    25   12   13 1   
    26   12   29 1   
    27   13   14 1   
    28   14   28 1   
    29   15   29 1   
    30   16   29 1   
@<TRIPOS>SUBSTRUCTURE
     1 OFL         1 TEMP              0 ****  ****    0 ROOT
