@<TRIPOS>MOLECULE
OFL
   29    30     1     0     0
SMALL
bcc


@<TRIPOS>ATOM
      1 C1'        -2.7930    1.2310    1.7250 ca        1 OFL     -0.071000
      2 C2'        -2.0380    0.7780    0.6610 ca        1 OFL     -0.211000
      3 C3'        -0.7600    0.1750    0.8630 ca        1 OFL      0.256600
      4 C4'        -0.3000    0.0760    2.2070 ca        1 OFL     -0.257300
      5 C5'        -1.0800    0.5480    3.2650 ca        1 OFL     -0.049000
      6 C6'        -2.3240    1.1190    3.0390 ca        1 OFL     -0.216000
      7 C7'         1.0440   -0.5580    2.5200 c3        1 OFL      0.693200
      8 N          -0.0080   -0.3450   -0.1730 nh        1 OFL     -0.621000
      9 C1         -2.1910   -1.1640   -3.0720 ca        1 OFL     -0.141000
     10 C2         -1.4290   -0.6870   -4.1370 ca        1 OFL     -0.171000
     11 C3         -0.2060   -0.0730   -3.8840 ca        1 OFL     -0.092000
     12 C4          0.2820    0.0790   -2.5820 ca        1 OFL     -0.145600
     13 C5         -0.4940   -0.4010   -1.5000 ca        1 OFL      0.138600
     14 C6         -1.7350   -1.0260   -1.7670 ca        1 OFL     -0.176000
     15 O1          2.0160    1.5220   -3.3490 o         1 OFL     -0.821300
     16 O2          2.3260    0.5160   -1.3850 o         1 OFL     -0.821300
     17 F1          1.3630   -0.6020    3.8620 f         1 OFL     -0.242300
     18 F2          1.1670   -1.8720    2.1330 f         1 OFL     -0.242300
     19 F3          2.1300    0.0640    1.9570 f         1 OFL     -0.242300
     20 H1'        -3.7720    1.6960    1.5370 ha        1 OFL      0.119000
     21 H2'        -2.4150    0.9010   -0.3670 ha        1 OFL      0.152000
     22 H5'        -0.6960    0.4610    4.2950 ha        1 OFL      0.133000
     23 H6'        -2.9290    1.4840    3.8780 ha        1 OFL      0.122000
     24 HN1         1.0030   -0.2480   -0.1090 hn        1 OFL      0.500800
     25 H1         -3.1560   -1.6550   -3.2600 ha        1 OFL      0.107000
     26 H2         -1.7920   -0.7950   -5.1680 ha        1 OFL      0.110000
     27 H3          0.4090    0.3280   -4.7080 ha        1 OFL      0.156000
     28 H6         -2.3430   -1.4170   -0.9370 ha        1 OFL      0.122000
     29 C7          1.6370    0.7580   -2.4200 c         1 OFL      0.910200
@<TRIPOS>BOND
     1    1    2 ar  
     2    1    6 ar  
     3    1   20 1   
     4    2    3 ar  
     5    2   21 1   
     6    3    4 ar  
     7    3    8 1   
     8    4    5 ar  
     9    4    7 1   
    10    5    6 ar  
    11    5   22 1   
    12    6   23 1   
    13    7   17 1   
    14    7   18 1   
    15    7   19 1   
    16    8   13 1   
    17    8   24 1   
    18    9   10 ar  
    19    9   14 ar  
    20    9   25 1   
    21   10   11 ar  
    22   10   26 1   
    23   11   12 ar  
    24   11   27 1   
    25   12   13 ar  
    26   12   29 1   
    27   13   14 ar  
    28   14   28 1   
    29   15   29 1   
    30   16   29 1   
@<TRIPOS>SUBSTRUCTURE
     1 OFL         1 TEMP              0 ****  ****    0 ROOT
