@<TRIPOS>MOLECULE
OFL
   29    24     1     0     0
SMALL
bcc


@<TRIPOS>ATOM
      1 C1'        -2.9130    1.1560   -0.2890 c1        1 OFL     -0.092250
      2 C2'        -1.5280    1.1150   -0.2790 c1        1 OFL     -0.136000
      3 C3'        -0.8630    0.3790    0.6890 c1        1 OFL      0.171800
      4 C4'        -1.5840   -0.3170    1.6470 c1        1 OFL     -0.223100
      5 C5'        -2.9690   -0.2770    1.6360 c1        1 OFL      0.008500
      6 C6'        -3.6340    0.4590    0.6690 c1        1 OFL     -0.092250
      7 C7'        -0.8580   -1.0770    2.7350 c3        1 OFL      0.659000
      8 N           0.5550    0.3820    0.7320 n3        1 OFL     -0.569400
      9 C1          2.3270    1.5930   -2.2780 c1        1 OFL     -0.092250
     10 C2          2.8580    0.4100   -2.7670 c1        1 OFL     -0.092250
     11 C3          2.6110   -0.7850   -2.1100 c1        1 OFL     -0.034500
     12 C4          1.8330   -0.7970   -0.9630 cg        1 OFL     -0.094200
     13 C5          1.3010    0.3860   -0.4730 c1        1 OFL      0.171800
     14 C6          1.5490    1.5810   -1.1310 c1        1 OFL     -0.136000
     15 C7          1.6120   -2.0920   -0.2130 c         1 OFL      0.858800
     16 O1          2.4600   -2.4830    0.6310 o         1 OFL     -0.821300
     17 O2          0.5940   -2.7930   -0.4530 o         1 OFL     -0.821300
     18 F1         -1.7510   -1.6400    3.5580 f         1 OFL     -0.242300
     19 F2         -0.0970   -2.0300    2.1820 f         1 OFL     -0.242300
     20 F3         -0.0820   -0.2330    3.4270 f         1 OFL     -0.242300
     21 H1'        -3.3810    1.6910   -0.9580 ha        1 OFL      0.057000
     22 H2'        -1.0210    1.6050   -0.9540 ha        1 OFL      0.079500
     23 H5'        -3.4770   -0.7670    2.3110 ha        1 OFL      0.075500
     24 H6'        -4.6090    0.4880    0.6610 ha        1 OFL      0.057000
     25 HN1         0.9860    0.3950    1.5360 hn        1 OFL      0.500800
     26 H1          2.5010    2.4340   -2.7410 ha        1 OFL      0.057000
     27 H2          3.4060    0.4190   -3.5740 ha        1 OFL      0.057000
     28 H3          2.9850   -1.6180   -2.4540 ha        1 OFL      0.098500
     29 H6          1.1890    2.4160   -0.7770 ha        1 OFL      0.079500
@<TRIPOS>BOND
     1    1    6 3   
     2    1   21 1   
     3    2    3 3   
     4    2   22 1   
     5    3    8 1   
     6    4    5 3   
     7    4    7 1   
     8    5   23 1   
     9    6   24 1   
    10    7   18 1   
    11    7   19 1   
    12    7   20 1   
    13    8   13 1   
    14    8   25 1   
    15    9   10 3   
    16    9   26 1   
    17   10   27 1   
    18   11   12 3   
    19   11   28 1   
    20   12   15 1   
    21   13   14 3   
    22   14   29 1   
    23   15   16 1   
    24   15   17 1   
@<TRIPOS>SUBSTRUCTURE
     1 OFL         1 TEMP              0 ****  ****    0 ROOT
