@<TRIPOS>MOLECULE
OFT
   50    52     1     0     0
SMALL
bcc


@<TRIPOS>ATOM
      1 C1         -0.1770   -0.5170    0.3190 ca        1 OFT     -0.041000
      2 C2          1.1800   -0.2970    0.1730 ca        1 OFT     -0.217900
      3 C3          1.9540    0.2160    1.2640 ca        1 OFT      0.000800
      4 C4          1.3670    0.5030    2.4910 ca        1 OFT     -0.136000
      5 C5         -0.0110    0.2710    2.6160 ca        1 OFT     -0.076000
      6 C6         -0.7670   -0.2260    1.5580 ca        1 OFT     -0.145000
      7 C7          2.0990   -0.4990   -0.9640 cc        1 OFT      0.440200
      8 C8          3.4620   -0.0520   -0.4610 cc        1 OFT      0.130300
      9 N9          3.2970    0.3630    0.8510 na        1 OFT     -0.211400
     10 C10         4.6780   -0.0500   -1.1010 cd        1 OFT     -0.274400
     11 C11         5.0860   -0.3090   -2.4770 ca        1 OFT     -0.062800
     12 C12         6.5540   -0.2890   -2.4950 ca        1 OFT      0.190600
     13 N13         7.0370    0.0090   -1.2520 ns        1 OFT     -0.432100
     14 C14         5.9380    0.2020   -0.3420 c         1 OFT      0.716700
     15 C15         4.4240   -0.4920   -3.6570 ca        1 OFT      0.030000
     16 C16         5.1290   -0.7420   -4.8790 ca        1 OFT     -0.663500
     17 C17         6.5500   -0.7640   -4.8420 ca        1 OFT      0.057000
     18 C18         7.2650   -0.5350   -3.6900 ca        1 OFT     -0.209000
     19 O19         6.1240    0.5090    0.8390 o         1 OFT     -0.577500
     20 N20         1.8970   -0.9960   -2.1550 n2        1 OFT     -0.413200
     21 O21         0.6810   -1.3730   -2.4410 oh        1 OFT     -0.317500
     22 S22         4.3470   -1.0460   -6.1820 s4        1 OFT      1.670300
     23 O23         5.0580   -1.5620   -7.2290 o         1 OFT     -0.460400
     24 O24         2.9910   -1.1990   -6.0920 o         1 OFT     -0.460400
     25 N25         4.3350    1.0990   -6.9680 n7        1 OFT     -0.916200
     26 C26         4.5440    1.0790   -8.4240 c3        1 OFT      0.114300
     27 C27         3.3980    0.4740   -9.2160 c3        1 OFT     -0.115600
     28 C28         3.1140    1.8200   -6.5800 c3        1 OFT      0.114300
     29 C29         3.2080    2.5200   -5.2370 c3        1 OFT     -0.115600
     30 H1         -0.7770   -0.9140   -0.5140 ha        1 OFT      0.161000
     31 H4          1.9500    0.8950    3.3370 ha        1 OFT      0.158000
     32 H5         -0.4990    0.4910    3.5800 ha        1 OFT      0.154000
     33 H6         -1.8470   -0.3970    1.6920 ha        1 OFT      0.154000
     34 HN9         4.0440    0.6220    1.4570 hn        1 OFT      0.343700
     35 HN13        7.9930    0.0840   -0.9990 hn        1 OFT      0.365500
     36 H15         3.3210   -0.4540   -3.7120 ha        1 OFT      0.181000
     37 H17         7.0970   -0.9820   -5.7800 ha        1 OFT      0.164000
     38 H18         8.3660   -0.5500   -3.6940 ha        1 OFT      0.175000
     39 H10         0.7390   -1.7420   -3.3500 ho        1 OFT      0.456000
     40 H26         5.4790    0.4730   -8.6130 h1        1 OFT      0.079200
     41 H12         4.7300    2.1260   -8.8010 h1        1 OFT      0.079200
     42 H27         3.6850    0.4640  -10.2960 hc        1 OFT      0.059533
     43 H27A        2.4620    1.0710   -9.1040 hc        1 OFT      0.059533
     44 H151        3.1960   -0.5780   -8.8970 hc        1 OFT      0.059533
     45 H28         2.8500    2.5910   -7.3620 h1        1 OFT      0.079200
     46 H28A        2.2750    1.0630   -6.5600 h1        1 OFT      0.079200
     47 H29         3.9960    3.3120   -5.2460 hc        1 OFT      0.059533
     48 H29A        3.4340    1.8010   -4.4120 hc        1 OFT      0.059533
     49 H29B        2.2250    3.0060   -5.0210 hc        1 OFT      0.059533
     50 H251        5.1320    1.5520   -6.5430 hn        1 OFT      0.396800
@<TRIPOS>BOND
     1    1    2 ar  
     2    1    6 ar  
     3    1   30 1   
     4    2    3 ar  
     5    2    7 1   
     6    3    4 ar  
     7    3    9 1   
     8    4    5 ar  
     9    4   31 1   
    10    5    6 ar  
    11    5   32 1   
    12    6   33 1   
    13    7    8 1   
    14    7   20 2   
    15    8    9 1   
    16    8   10 2   
    17    9   34 1   
    18   10   11 1   
    19   10   14 1   
    20   11   12 ar  
    21   11   15 ar  
    22   12   13 1   
    23   12   18 ar  
    24   13   14 1   
    25   13   35 1   
    26   14   19 2   
    27   15   16 ar  
    28   15   36 1   
    29   16   17 ar  
    30   16   22 1   
    31   17   18 ar  
    32   17   37 1   
    33   18   38 1   
    34   20   21 1   
    35   21   39 1   
    36   22   23 1   
    37   22   24 1   
    38   25   26 1   
    39   25   28 1   
    40   25   50 1   
    41   26   27 1   
    42   26   40 1   
    43   26   41 1   
    44   27   42 1   
    45   27   43 1   
    46   27   44 1   
    47   28   29 1   
    48   28   45 1   
    49   28   46 1   
    50   29   47 1   
    51   29   48 1   
    52   29   49 1   
@<TRIPOS>SUBSTRUCTURE
     1 OFT         1 TEMP              0 ****  ****    0 ROOT
