@<TRIPOS>MOLECULE
OFT
   50    52     1     0     0
SMALL
bcc


@<TRIPOS>ATOM
      1 C1         -0.1840   -0.5150    0.3120 ca        1 OFT     -0.041000
      2 C2          1.1730   -0.2990    0.1680 ca        1 OFT     -0.217900
      3 C3          1.9480    0.2080    1.2620 ca        1 OFT      0.000800
      4 C4          1.3610    0.4940    2.4890 ca        1 OFT     -0.136000
      5 C5         -0.0180    0.2670    2.6120 ca        1 OFT     -0.076000
      6 C6         -0.7750   -0.2250    1.5510 ca        1 OFT     -0.145000
      7 C7          2.0940   -0.5010   -0.9690 cc        1 OFT      0.440200
      8 C8          3.4570   -0.0600   -0.4620 cc        1 OFT      0.130300
      9 N9          3.2930    0.3520    0.8510 na        1 OFT     -0.211400
     10 C10         4.6740   -0.0600   -1.1010 cd        1 OFT     -0.274400
     11 C11         5.0830   -0.3160   -2.4770 ca        1 OFT     -0.062800
     12 C12         6.5510   -0.3010   -2.4930 ca        1 OFT      0.190600
     13 N13         7.0340   -0.0080   -1.2480 n         1 OFT     -0.432100
     14 C14         5.9340    0.1860   -0.3390 c         1 OFT      0.716700
     15 C15         4.4220   -0.4950   -3.6580 ca        1 OFT      0.030000
     16 C16         5.1280   -0.7430   -4.8800 ca        1 OFT     -0.663500
     17 C17         6.5490   -0.7690   -4.8410 ca        1 OFT      0.057000
     18 C18         7.2630   -0.5460   -3.6880 ca        1 OFT     -0.209000
     19 O19         6.1190    0.4880    0.8430 o         1 OFT     -0.577500
     20 N20         1.8920   -0.9930   -2.1600 n2        1 OFT     -0.413200
     21 O21         0.6750   -1.3650   -2.4500 oh        1 OFT     -0.317500
     22 S22         4.3460   -1.0410   -6.1850 s4        1 OFT      1.670300
     23 O23         5.0570   -1.5560   -7.2320 o         1 OFT     -0.460400
     24 O24         2.9900   -1.1900   -6.0970 o         1 OFT     -0.460400
     25 N25         4.3420    1.1060   -6.9640 n3        1 OFT     -0.916200
     26 C26         4.5600    1.0910   -8.4190 c3        1 OFT      0.114300
     27 C27         3.4180    0.4920   -9.2190 c3        1 OFT     -0.115600
     28 C28         3.1200    1.8280   -6.5800 c3        1 OFT      0.114300
     29 C29         3.2090    2.5240   -5.2340 c3        1 OFT     -0.115600
     30 H1         -0.7850   -0.9070   -0.5240 ha        1 OFT      0.161000
     31 H4          1.9440    0.8810    3.3370 ha        1 OFT      0.158000
     32 H5         -0.5070    0.4850    3.5760 ha        1 OFT      0.154000
     33 H6         -1.8550   -0.3920    1.6830 ha        1 OFT      0.154000
     34 HN9         4.0400    0.6060    1.4590 hn        1 OFT      0.343700
     35 HN13        7.9900    0.0630   -0.9940 hn        1 OFT      0.365500
     36 H15         3.3200   -0.4530   -3.7140 ha        1 OFT      0.181000
     37 H17         7.0960   -0.9870   -5.7790 ha        1 OFT      0.164000
     38 H18         8.3640   -0.5640   -3.6900 ha        1 OFT      0.175000
     39 H10         0.7320   -1.7320   -3.3600 ho        1 OFT      0.456000
     40 H26         4.7500    2.1400   -8.7910 h1        1 OFT      0.079200
     41 H12         5.4950    0.4840   -8.6040 h1        1 OFT      0.079200
     42 H27         3.2120   -0.5610   -8.9060 hc        1 OFT      0.059533
     43 H27A        3.7100    0.4860  -10.2990 hc        1 OFT      0.059533
     44 H151        2.4810    1.0890   -9.1090 hc        1 OFT      0.059533
     45 H28         2.8620    2.6020   -7.3610 h1        1 OFT      0.079200
     46 H28A        2.2800    1.0730   -6.5680 h1        1 OFT      0.079200
     47 H29         3.9980    3.3140   -5.2360 hc        1 OFT      0.059533
     48 H29A        2.2250    3.0100   -5.0210 hc        1 OFT      0.059533
     49 H29B        3.4290    1.8010   -4.4100 hc        1 OFT      0.059533
     50 H251        5.1380    1.5570   -6.5330 hn        1 OFT      0.396800
@<TRIPOS>BOND
     1    1    2 ar  
     2    1    6 ar  
     3    1   30 1   
     4    2    3 ar  
     5    2    7 1   
     6    3    4 ar  
     7    3    9 1   
     8    4    5 ar  
     9    4   31 1   
    10    5    6 ar  
    11    5   32 1   
    12    6   33 1   
    13    7    8 1   
    14    7   20 2   
    15    8    9 1   
    16    8   10 2   
    17    9   34 1   
    18   10   11 1   
    19   10   14 1   
    20   11   12 ar  
    21   11   15 ar  
    22   12   13 1   
    23   12   18 ar  
    24   13   14 1   
    25   13   35 1   
    26   14   19 2   
    27   15   16 ar  
    28   15   36 1   
    29   16   17 ar  
    30   16   22 1   
    31   17   18 ar  
    32   17   37 1   
    33   18   38 1   
    34   20   21 1   
    35   21   39 1   
    36   22   23 1   
    37   22   24 1   
    38   25   26 1   
    39   25   28 1   
    40   25   50 1   
    41   26   27 1   
    42   26   40 1   
    43   26   41 1   
    44   27   42 1   
    45   27   43 1   
    46   27   44 1   
    47   28   29 1   
    48   28   45 1   
    49   28   46 1   
    50   29   47 1   
    51   29   48 1   
    52   29   49 1   
@<TRIPOS>SUBSTRUCTURE
     1 OFT         1 TEMP              0 ****  ****    0 ROOT
