@<TRIPOS>MOLECULE
OFT
   49    44     1     0     0
SMALL
bcc


@<TRIPOS>ATOM
      1 C1         -3.9880    3.3610    2.3800 c1        1 OFT     -0.106500
      2 C2         -2.6470    2.9870    2.3020 c1        1 OFT     -0.118000
      3 C3         -2.0740    2.2210    3.3220 c1        1 OFT      0.041000
      4 C4         -2.8470    1.8320    4.4180 c2        1 OFT     -0.151000
      5 C5         -4.1820    2.2050    4.4940 c1        1 OFT     -0.090000
      6 C6         -4.7550    2.9720    3.4730 c1        1 OFT     -0.106500
      7 C7         -1.6100    3.2050    1.2530 c2        1 OFT     -0.039000
      8 C8         -0.4000    2.5100    1.6690 c2        1 OFT      0.171000
      9 N9         -0.6520    1.9110    2.9340 n2        1 OFT     -0.238000
     10 C10         0.7980    2.5200    1.0100 c1        1 OFT     -0.177000
     11 C11         1.3860    1.3830    0.2460 c1        1 OFT     -0.109000
     12 C12         2.5600    1.8390   -0.3740 c2        1 OFT      0.137000
     13 N13         2.7460    3.2840   -0.0160 n         1 OFT     -0.337000
     14 C14         1.6630    3.6750    0.8270 c2        1 OFT      0.367000
     15 C15         0.9620    0.0670    0.0520 c1        1 OFT      0.014000
     16 C16         1.7060   -0.7950   -0.7590 c1        1 OFT     -0.870000
     17 C17         2.8760   -0.3400   -1.3770 c1        1 OFT      0.030000
     18 C18         3.3020    0.9770   -1.1830 c1        1 OFT     -0.209000
     19 O19         1.5400    4.7520    1.3760 o         1 OFT     -0.301000
     20 N20        -1.7360    3.9690    0.1900 n1        1 OFT      0.030000
     21 O21        -2.9340    4.5640   -0.0840 o         1 OFT     -0.237000
     22 S22         1.8650   -2.5780   -0.6120 s4        1 OFT      2.065800
     23 O23         3.2380   -2.9660   -0.4470 o         1 OFT     -0.545900
     24 O24         1.2920   -3.0520    0.6130 o         1 OFT     -0.545900
     25 N25         1.1730   -3.3360   -1.9420 n2        1 OFT     -0.831000
     26 C26        -0.0830   -4.0740   -1.7890 c3        1 OFT     -0.014000
     27 C27         0.2230   -5.5430   -1.4120 c3        1 OFT     -0.234500
     28 C28         1.9020   -3.4050   -3.1940 c3        1 OFT     -0.014000
     29 C29         0.9370   -3.2400   -4.3540 c3        1 OFT     -0.234500
     30 H1         -4.3920    3.9010    1.6610 ha        1 OFT      0.147000
     31 H4         -2.4450    1.2930    5.1350 ha        1 OFT      0.149000
     32 H5         -4.7230    1.9320    5.2640 ha        1 OFT      0.138000
     33 H6         -5.7010    3.2360    3.5280 ha        1 OFT      0.147000
     34 HN9        -0.0570    1.4130    3.4220 hn        1 OFT      0.244000
     35 HN13        3.4320    3.8190   -0.2890 hn        1 OFT      0.258000
     36 H15         0.1450   -0.2500    0.4830 ha        1 OFT      0.154000
     37 H17         3.3930   -0.9410   -1.9420 ha        1 OFT      0.152000
     38 H18         4.1190    1.2950   -1.6150 ha        1 OFT      0.148000
     39 H10        -2.8060    5.2450   -0.6500 ho        1 OFT      0.254000
     40 H26        -0.5810   -4.0510   -2.6320 h1        1 OFT      0.092500
     41 H12        -0.6210   -3.6610   -1.0800 h1        1 OFT      0.092500
     42 H27         0.3490   -6.0710   -2.2310 hc        1 OFT      0.082667
     43 H27A        1.0380   -5.5790   -0.8720 hc        1 OFT      0.082667
     44 H151       -0.5290   -5.9130   -0.8960 hc        1 OFT      0.082667
     45 H28         2.5710   -2.6890   -3.2210 h1        1 OFT      0.092500
     46 H28A        2.3490   -4.2690   -3.2630 h1        1 OFT      0.092500
     47 H29         1.4200   -2.8830   -5.1330 hc        1 OFT      0.082667
     48 H29A        0.5510   -4.1070   -4.5810 hc        1 OFT      0.082667
     49 H29B        0.2260   -2.6230   -4.1010 hc        1 OFT      0.082667
@<TRIPOS>BOND
     1    1    6 1   
     2    1   30 1   
     3    2    3 1   
     4    2    7 1   
     5    3    4 1   
     6    4    5 1   
     7    4   31 1   
     8    5   32 1   
     9    6   33 1   
    10    7    8 1   
    11    7   20 1   
    12    8    9 1   
    13    8   10 1   
    14    9   34 1   
    15   10   14 1   
    16   11   12 1   
    17   11   15 1   
    18   12   13 1   
    19   12   18 1   
    20   13   14 1   
    21   13   35 1   
    22   14   19 1   
    23   15   36 1   
    24   16   17 1   
    25   16   22 1   
    26   17   37 1   
    27   18   38 1   
    28   21   39 1   
    29   22   23 1   
    30   22   24 1   
    31   25   26 1   
    32   25   28 1   
    33   26   27 1   
    34   26   40 1   
    35   26   41 1   
    36   27   42 1   
    37   27   43 1   
    38   27   44 1   
    39   28   29 1   
    40   28   45 1   
    41   28   46 1   
    42   29   47 1   
    43   29   48 1   
    44   29   49 1   
@<TRIPOS>SUBSTRUCTURE
     1 OFT         1 TEMP              0 ****  ****    0 ROOT
