@<TRIPOS>MOLECULE
OFT
   50    52     1     0     0
SMALL
bcc


@<TRIPOS>ATOM
      1 C1         -0.1750   -0.5320    0.3180 ca        1 OFT     -0.041000
      2 C2          1.1810   -0.3050    0.1720 ca        1 OFT     -0.217900
      3 C3          1.9510    0.2140    1.2640 ca        1 OFT      0.000800
      4 C4          1.3630    0.4990    2.4900 ca        1 OFT     -0.136000
      5 C5         -0.0140    0.2610    2.6150 ca        1 OFT     -0.076000
      6 C6         -0.7670   -0.2420    1.5570 ca        1 OFT     -0.145000
      7 C7          2.1020   -0.5030   -0.9640 cc        1 OFT      0.440200
      8 C8          3.4620   -0.0480   -0.4600 cc        1 OFT      0.130300
      9 N9          3.2940    0.3680    0.8510 na        1 OFT     -0.211400
     10 C10         4.6780   -0.0400   -1.1000 cd        1 OFT     -0.274400
     11 C11         5.0880   -0.2990   -2.4750 ca        1 OFT     -0.062800
     12 C12         6.5560   -0.2710   -2.4920 ca        1 OFT      0.190600
     13 N13         7.0370    0.0320   -1.2490 n         1 OFT     -0.432100
     14 C14         5.9360    0.2200   -0.3400 c         1 OFT      0.716700
     15 C15         4.4280   -0.4880   -3.6550 ca        1 OFT      0.030000
     16 C16         5.1350   -0.7360   -4.8760 ca        1 OFT     -0.663500
     17 C17         6.5570   -0.7490   -4.8380 ca        1 OFT      0.057000
     18 C18         7.2690   -0.5150   -3.6860 ca        1 OFT     -0.209000
     19 O19         6.1200    0.5290    0.8400 o         1 OFT     -0.577500
     20 N20         1.9030   -1.0020   -2.1540 n2        1 OFT     -0.413200
     21 O21         0.6890   -1.3860   -2.4410 oh        1 OFT     -0.317500
     22 S22         4.3560   -1.0460   -6.1790 s4        1 OFT      1.670300
     23 O23         5.0700   -1.5590   -7.2260 o         1 OFT     -0.460400
     24 O24         3.0010   -1.2060   -6.0900 o         1 OFT     -0.460400
     25 N25         4.3320    1.0980   -6.9680 n3        1 OFT     -0.916200
     26 C26         4.5450    1.0780   -8.4240 c3        1 OFT      0.114300
     27 C27         3.4050    0.4650   -9.2170 c3        1 OFT     -0.115600
     28 C28         3.1050    1.8120   -6.5830 c3        1 OFT      0.114300
     29 C29         3.1920    2.5140   -5.2410 c3        1 OFT     -0.115600
     30 H1         -0.7720   -0.9330   -0.5150 ha        1 OFT      0.161000
     31 H4          1.9430    0.8960    3.3350 ha        1 OFT      0.158000
     32 H5         -0.5040    0.4780    3.5780 ha        1 OFT      0.154000
     33 H6         -1.8460   -0.4190    1.6900 ha        1 OFT      0.154000
     34 HN9         4.0400    0.6310    1.4570 hn        1 OFT      0.343700
     35 HN13        7.9930    0.1130   -0.9960 hn        1 OFT      0.365500
     36 H15         3.3250   -0.4560   -3.7110 ha        1 OFT      0.181000
     37 H17         7.1050   -0.9650   -5.7760 ha        1 OFT      0.164000
     38 H18         8.3700   -0.5230   -3.6900 ha        1 OFT      0.175000
     39 H10         0.7490   -1.7570   -3.3490 ho        1 OFT      0.456000
     40 H26         5.4840    0.4780   -8.6090 h1        1 OFT      0.079200
     41 H12         4.7250    2.1260   -8.8010 h1        1 OFT      0.079200
     42 H27         3.6940    0.4560  -10.2970 hc        1 OFT      0.059533
     43 H27A        2.4640    1.0560   -9.1080 hc        1 OFT      0.059533
     44 H151        3.2080   -0.5880   -8.8980 hc        1 OFT      0.059533
     45 H28         2.8390    2.5800   -7.3670 h1        1 OFT      0.079200
     46 H28A        2.2710    1.0500   -6.5650 h1        1 OFT      0.079200
     47 H29         3.9750    3.3110   -5.2490 hc        1 OFT      0.059533
     48 H29A        3.4210    1.7980   -4.4150 hc        1 OFT      0.059533
     49 H29B        2.2050    2.9940   -5.0280 hc        1 OFT      0.059533
     50 H251        5.1250    1.5570   -6.5420 hn        1 OFT      0.396800
@<TRIPOS>BOND
     1    1    2 ar  
     2    1    6 ar  
     3    1   30 1   
     4    2    3 ar  
     5    2    7 1   
     6    3    4 ar  
     7    3    9 1   
     8    4    5 ar  
     9    4   31 1   
    10    5    6 ar  
    11    5   32 1   
    12    6   33 1   
    13    7    8 1   
    14    7   20 2   
    15    8    9 1   
    16    8   10 2   
    17    9   34 1   
    18   10   11 1   
    19   10   14 1   
    20   11   12 ar  
    21   11   15 ar  
    22   12   13 1   
    23   12   18 ar  
    24   13   14 1   
    25   13   35 1   
    26   14   19 2   
    27   15   16 ar  
    28   15   36 1   
    29   16   17 ar  
    30   16   22 1   
    31   17   18 ar  
    32   17   37 1   
    33   18   38 1   
    34   20   21 1   
    35   21   39 1   
    36   22   23 1   
    37   22   24 1   
    38   25   26 1   
    39   25   28 1   
    40   25   50 1   
    41   26   27 1   
    42   26   40 1   
    43   26   41 1   
    44   27   42 1   
    45   27   43 1   
    46   27   44 1   
    47   28   29 1   
    48   28   45 1   
    49   28   46 1   
    50   29   47 1   
    51   29   48 1   
    52   29   49 1   
@<TRIPOS>SUBSTRUCTURE
     1 OFT         1 TEMP              0 ****  ****    0 ROOT
