@<TRIPOS>MOLECULE
OFT
   49    52     1     0     0
SMALL
bcc


@<TRIPOS>ATOM
      1 C1         -4.4040    2.5660   -0.6530 ca        1 OFT     -0.047000
      2 C2         -3.8020    1.3630   -0.3410 ca        1 OFT     -0.214900
      3 C3         -4.5700    0.2860    0.2150 ca        1 OFT      0.022800
      4 C4         -5.9360    0.4280    0.4450 ca        1 OFT     -0.163000
      5 C5         -6.5240    1.6570    0.1180 ca        1 OFT     -0.083000
      6 C6         -5.7790    2.7050   -0.4180 ca        1 OFT     -0.167000
      7 C7         -2.4090    0.8920   -0.4690 cc        1 OFT      0.430200
      8 C8         -2.4180   -0.5310    0.0550 cc        1 OFT      0.079300
      9 N9         -3.7250   -0.8060    0.4820 na        1 OFT     -0.234400
     10 C10        -1.4060   -1.4430    0.1100 cd        1 OFT     -0.205400
     11 C11         0.0340   -1.3550   -0.1280 ca        1 OFT     -0.086800
     12 C12         0.5560   -2.7090   -0.1020 ca        1 OFT      0.113600
     13 N13        -0.4700   -3.6070    0.1940 n         1 OFT     -0.470100
     14 C14        -1.6790   -2.8970    0.3810 c         1 OFT      0.713700
     15 C15         0.9220   -0.3150   -0.2960 ca        1 OFT      0.026000
     16 C16         2.2880   -0.5670   -0.5320 ca        1 OFT     -0.423500
     17 C17         2.7520   -1.8840   -0.5650 ca        1 OFT      0.022000
     18 C18         1.9070   -2.9690   -0.3340 ca        1 OFT     -0.203000
     19 O19        -2.7440   -3.4560    0.6860 o         1 OFT     -0.635500
     20 N20        -1.3430    1.4570   -0.9640 n2        1 OFT     -0.389200
     21 O21        -1.4530    2.6710   -1.4270 oh        1 OFT     -0.336500
     22 S22         3.3210    0.7280   -0.8220 sy        1 OFT      1.511200
     23 O23         4.3770    0.2790   -1.6480 o         1 OFT     -0.660800
     24 O24         2.5560    1.8150   -1.3150 o         1 OFT     -0.660800
     25 N25         3.9030    1.0970    0.6570 n3        1 OFT     -0.811500
     26 C26         5.0420    0.4050    1.2040 c3        1 OFT      0.224300
     27 C27         6.3690    1.1360    1.0640 c3        1 OFT     -0.117100
     28 C28         3.3080    2.1130    1.4860 c3        1 OFT      0.224300
     29 C29         2.3840    1.6000    2.5820 c3        1 OFT     -0.117100
     30 H1         -3.8150    3.3930   -1.0800 ha        1 OFT      0.155000
     31 H4         -6.5370   -0.3880    0.8670 ha        1 OFT      0.146000
     32 H5         -7.6030    1.7900    0.2920 ha        1 OFT      0.137000
     33 H6         -6.2730    3.6570   -0.6630 ha        1 OFT      0.139000
     34 HN9        -4.0460   -1.7270    0.6800 hn        1 OFT      0.333700
     35 HN13       -0.3600   -4.5810    0.3000 hn        1 OFT      0.345500
     36 H15         0.6000    0.7390   -0.2490 ha        1 OFT      0.169000
     37 H17         3.8190   -2.0720   -0.7860 ha        1 OFT      0.151000
     38 H18         2.2990   -3.9950   -0.3410 ha        1 OFT      0.146000
     39 H10        -0.5470    2.8930   -1.7450 ho        1 OFT      0.466000
     40 H26         4.8560    0.1970    2.2980 h1        1 OFT      0.051700
     41 H12         5.1270   -0.5920    0.6780 h1        1 OFT      0.051700
     42 H27         6.6250    1.2950   -0.0120 hc        1 OFT      0.043533
     43 H27A        6.3400    2.1280    1.5740 hc        1 OFT      0.043533
     44 H151        7.1700    0.5160    1.5340 hc        1 OFT      0.043533
     45 H28         4.1320    2.7160    1.9670 h1        1 OFT      0.051700
     46 H28A        2.7230    2.8140    0.8190 h1        1 OFT      0.051700
     47 H29         1.5230    1.0330    2.1510 hc        1 OFT      0.043533
     48 H29A        2.9270    0.9300    3.2910 hc        1 OFT      0.043533
     49 H29B        1.9850    2.4740    3.1520 hc        1 OFT      0.043533
@<TRIPOS>BOND
     1    1    2 ar  
     2    1    6 ar  
     3    1   30 1   
     4    2    3 ar  
     5    2    7 1   
     6    3    4 ar  
     7    3    9 1   
     8    4    5 ar  
     9    4   31 1   
    10    5    6 ar  
    11    5   32 1   
    12    6   33 1   
    13    7    8 1   
    14    7   20 2   
    15    8    9 1   
    16    8   10 2   
    17    9   34 1   
    18   10   11 1   
    19   10   14 1   
    20   11   12 ar  
    21   11   15 ar  
    22   12   13 1   
    23   12   18 ar  
    24   13   14 1   
    25   13   35 1   
    26   14   19 2   
    27   15   16 ar  
    28   15   36 1   
    29   16   17 ar  
    30   16   22 1   
    31   17   18 ar  
    32   17   37 1   
    33   18   38 1   
    34   20   21 1   
    35   21   39 1   
    36   22   23 2   
    37   22   24 2   
    38   22   25 1   
    39   25   26 1   
    40   25   28 1   
    41   26   27 1   
    42   26   40 1   
    43   26   41 1   
    44   27   42 1   
    45   27   43 1   
    46   27   44 1   
    47   28   29 1   
    48   28   45 1   
    49   28   46 1   
    50   29   47 1   
    51   29   48 1   
    52   29   49 1   
@<TRIPOS>SUBSTRUCTURE
     1 OFT         1 TEMP              0 ****  ****    0 ROOT
