@<TRIPOS>MOLECULE
OGA
   13    12     1     0     0
SMALL
bcc


@<TRIPOS>ATOM
      1 C1         -0.0650   -0.0000   -0.0410 c         1 OGA      0.862600
      2 C2          1.4910   -0.0000   -0.0660 c         1 OGA      0.525100
      3 C4          3.5920    0.0000    1.2240 c3        1 OGA     -0.015000
      4 C5          4.1840   -0.0000    2.6520 c         1 OGA      0.900600
      5 O1         -0.6570   -0.0000    1.0750 o         1 OGA     -0.831800
      6 O2         -0.6660   -0.0000   -1.1490 o         1 OGA     -0.831800
      7 O2'         2.1330   -0.0000   -1.1460 o         1 OGA     -0.699100
      8 O3          5.4520   -0.0000    2.7310 o         1 OGA     -0.865800
      9 N1          2.1630    0.0000    1.1310 n         1 OGA     -0.545900
     10 O4          3.4350   -0.0000    3.6700 o         1 OGA     -0.865800
     11 H4C1        3.9990    0.9040    0.6860 h1        1 OGA      0.015700
     12 H4C2        3.9990   -0.9040    0.6860 h1        1 OGA      0.015700
     13 H1          1.6480    0.0000    1.9820 hn        1 OGA      0.334500
@<TRIPOS>BOND
     1    1    2 1   
     2    1    5 1   
     3    1    6 1   
     4    2    7 2   
     5    2    9 1   
     6    3    4 1   
     7    3    9 1   
     8    3   11 1   
     9    3   12 1   
    10    4    8 1   
    11    4   10 1   
    12    9   13 1   
@<TRIPOS>SUBSTRUCTURE
     1 OGA         1 TEMP              0 ****  ****    0 ROOT
