@<TRIPOS>MOLECULE
OGA
   13    12     1     0     0
SMALL
bcc


@<TRIPOS>ATOM
      1 C1          0.3590    0.0000   -2.3880 c         1 OGA      0.862600
      2 C2         -0.5470    0.0000   -1.1230 c         1 OGA      0.525100
      3 C4         -0.6820   -0.0000    1.3390 c3        1 OGA     -0.015000
      4 C5          0.1550   -0.0000    2.6390 c         1 OGA      0.900600
      5 O1          1.6140    0.0000   -2.2400 o         1 OGA     -0.831800
      6 O2         -0.2090    0.0000   -3.5130 o         1 OGA     -0.831800
      7 O2'        -1.8010    0.0000   -1.2100 o         1 OGA     -0.699100
      8 O3         -0.5020    0.0000    3.7250 o         1 OGA     -0.865800
      9 N1          0.0550   -0.0000    0.1110 n         1 OGA     -0.545900
     10 O4          1.4180   -0.0000    2.6020 o         1 OGA     -0.865800
     11 H4C1       -1.3570   -0.9040    1.3670 h1        1 OGA      0.015700
     12 H4C2       -1.3570    0.9040    1.3670 h1        1 OGA      0.015700
     13 H1          1.0480   -0.0000    0.1720 hn        1 OGA      0.334500
@<TRIPOS>BOND
     1    1    2 1   
     2    1    5 1   
     3    1    6 1   
     4    2    7 2   
     5    2    9 1   
     6    3    4 1   
     7    3    9 1   
     8    3   11 1   
     9    3   12 1   
    10    4    8 1   
    11    4   10 1   
    12    9   13 1   
@<TRIPOS>SUBSTRUCTURE
     1 OGA         1 TEMP              0 ****  ****    0 ROOT
