@<TRIPOS>MOLECULE
OGG
   24    23     1     0     0
SMALL
bcc


@<TRIPOS>ATOM
      1 NB         -0.1370    0.1760    4.2630 n         1 OGG     -0.652000
      2 CC          0.5900    0.4590    3.1380 c         1 OGG      0.657100
      3 OL          1.6510    1.1130    3.2000 o         1 OGG     -0.611100
      4 CD          0.1380   -0.1060    1.7940 c3        1 OGG      0.047400
      5 OE         -1.2840   -0.1630    1.7620 os        1 OGG     -0.429600
      6 CF         -1.8050   -0.5900    0.5090 c3        1 OGG      0.096400
      7 CG         -1.8220    0.5490   -0.5080 c3        1 OGG      0.096400
      8 OH         -1.2890    0.1380   -1.7610 os        1 OGG     -0.429600
      9 CI          0.1340    0.1210   -1.7940 c3        1 OGG      0.047400
     10 CJ          0.6020   -0.4300   -3.1390 c         1 OGG      0.657100
     11 OM          1.6810   -1.0540   -3.2010 o         1 OGG     -0.611100
     12 NK         -0.1340   -0.1690   -4.2630 n         1 OGG     -0.652000
     13 HNB1        0.1260    0.5870    5.1250 hn        1 OGG      0.316500
     14 HNB2       -1.0400   -0.2180    4.1780 hn        1 OGG      0.316500
     15 HD1         0.5660   -1.1370    1.6690 h1        1 OGG      0.063200
     16 HD2         0.5220    0.5640    0.9790 h1        1 OGG      0.063200
     17 HF1        -2.8540   -0.9060    0.7600 h1        1 OGG      0.066200
     18 HF2        -1.2340   -1.4700    0.1140 h1        1 OGG      0.066200
     19 HG1        -1.2760    1.4460   -0.1140 h1        1 OGG      0.066200
     20 HG2        -2.8790    0.8360   -0.7590 h1        1 OGG      0.066200
     21 HI1         0.5370   -0.5370   -0.9790 h1        1 OGG      0.063200
     22 HI2         0.5320    1.1640   -1.6690 h1        1 OGG      0.063200
     23 HNK1        0.1400   -0.5720   -5.1250 hn        1 OGG      0.316500
     24 HNK2       -1.0480    0.2000   -4.1780 hn        1 OGG      0.316500
@<TRIPOS>BOND
     1    1    2 1   
     2    1   13 1   
     3    1   14 1   
     4    2    3 2   
     5    2    4 1   
     6    4    5 1   
     7    4   15 1   
     8    4   16 1   
     9    5    6 1   
    10    6    7 1   
    11    6   17 1   
    12    6   18 1   
    13    7    8 1   
    14    7   19 1   
    15    7   20 1   
    16    8    9 1   
    17    9   10 1   
    18    9   21 1   
    19    9   22 1   
    20   10   11 2   
    21   10   12 1   
    22   12   23 1   
    23   12   24 1   
@<TRIPOS>SUBSTRUCTURE
     1 OGG         1 TEMP              0 ****  ****    0 ROOT
