@<TRIPOS>MOLECULE
OGG
   26    25     1     0     0
SMALL
bcc


@<TRIPOS>ATOM
      1 NB         -0.2070    0.7910   -0.8450 n4        1 OGG     -0.762400
      2 CC          1.0850    0.0330   -0.6260 c         1 OGG      0.498100
      3 OL          1.1870   -0.5230    0.4520 o         1 OGG     -0.379100
      4 CD          2.0970    0.0540   -1.7680 c3        1 OGG      0.086400
      5 OE          3.3900    0.1550   -1.2350 os        1 OGG     -0.383600
      6 CF          3.9860   -1.0950   -0.8410 c3        1 OGG      0.109400
      7 CG          5.4130   -0.7610   -0.4230 c3        1 OGG      0.109400
      8 OH          6.2360   -1.0560   -1.5660 os        1 OGG     -0.383600
      9 CI          7.5870   -0.7090   -1.4300 c3        1 OGG      0.086400
     10 CJ          8.3250   -1.8390   -0.7190 c         1 OGG      0.498100
     11 OM          7.9280   -2.5270    0.2040 o         1 OGG     -0.379100
     12 NK          9.7220   -2.1560   -1.2080 n4        1 OGG     -0.762400
     13 HNB1       -0.0110    1.7940   -0.9390 hn        1 OGG      0.476800
     14 HNB2       -0.8420    0.6530   -0.0450 hn        1 OGG      0.476800
     15 HD1         1.9780    0.9730   -2.4100 h1        1 OGG      0.116700
     16 HD2         1.9410   -0.8810   -2.3750 h1        1 OGG      0.116700
     17 HF1         3.4150   -1.5110    0.0320 h1        1 OGG      0.082700
     18 HF2         3.9730   -1.8110   -1.7050 h1        1 OGG      0.082700
     19 HG1         5.7280   -1.4190    0.4310 h1        1 OGG      0.082700
     20 HG2         5.5130    0.3230   -0.1510 h1        1 OGG      0.082700
     21 HI1         7.7440    0.2290   -0.8270 h1        1 OGG      0.116700
     22 HI2         7.9570   -0.5720   -2.4860 h1        1 OGG      0.116700
     23 HNK1       10.3090   -1.3170   -1.1800 hn        1 OGG      0.476800
     24 HNK2        9.6830   -2.5010   -2.1750 hn        1 OGG      0.476800
     25 HB3        -0.6720    0.4630   -1.6980 hn        1 OGG      0.476800
     26 HK3        10.1510   -2.8840   -0.6170 hn        1 OGG      0.476800
@<TRIPOS>BOND
     1    1    2 1   
     2    1   13 1   
     3    1   14 1   
     4    1   25 1   
     5    2    3 2   
     6    2    4 1   
     7    4    5 1   
     8    4   15 1   
     9    4   16 1   
    10    5    6 1   
    11    6    7 1   
    12    6   17 1   
    13    6   18 1   
    14    7    8 1   
    15    7   19 1   
    16    7   20 1   
    17    8    9 1   
    18    9   10 1   
    19    9   21 1   
    20    9   22 1   
    21   10   11 2   
    22   10   12 1   
    23   12   23 1   
    24   12   24 1   
    25   12   26 1   
@<TRIPOS>SUBSTRUCTURE
     1 OGG         1 TEMP              0 ****  ****    0 ROOT
