@<TRIPOS>MOLECULE
OGG
   26    25     1     0     0
SMALL
bcc


@<TRIPOS>ATOM
      1 NB         -0.2470    0.6520   -0.8790 nz        1 OGG     -0.762400
      2 CC          1.0630   -0.0720   -0.6540 c         1 OGG      0.498100
      3 OL          1.1700   -0.6340    0.4200 o         1 OGG     -0.379100
      4 CD          2.0840   -0.0130   -1.7870 c3        1 OGG      0.086400
      5 OE          3.3690    0.1190   -1.2410 os        1 OGG     -0.383600
      6 CF          3.9950   -1.1170   -0.8520 c3        1 OGG      0.109400
      7 CG          5.4090   -0.7470   -0.4180 c3        1 OGG      0.109400
      8 OH          6.2500   -1.0110   -1.5550 os        1 OGG     -0.383600
      9 CI          7.5900   -0.6280   -1.4050 c3        1 OGG      0.086400
     10 CJ          8.3530   -1.7420   -0.6930 c         1 OGG      0.498100
     11 OM          7.9660   -2.4460    0.2220 o         1 OGG     -0.379100
     12 NK          9.7620   -2.0180   -1.1730 nz        1 OGG     -0.762400
     13 HNB1       -0.0780    1.6610   -0.9630 hn        1 OGG      0.476800
     14 HNB2       -0.8850    0.4900   -0.0860 hn        1 OGG      0.476800
     15 HD1         1.9460    0.9070   -2.4220 h1        1 OGG      0.117200
     16 HD2         1.9600   -0.9470   -2.4030 h1        1 OGG      0.117200
     17 HF1         3.4290   -1.5550    0.0130 h1        1 OGG      0.082700
     18 HF2         4.0110   -1.8260   -1.7210 h1        1 OGG      0.082700
     19 HG1         5.7350   -1.4010    0.4350 h1        1 OGG      0.082700
     20 HG2         5.4770    0.3380   -0.1380 h1        1 OGG      0.082700
     21 HI1         7.7150    0.3100   -0.7940 h1        1 OGG      0.117200
     22 HI2         7.9660   -0.4740   -2.4560 h1        1 OGG      0.117200
     23 HNK1       10.3250   -1.1630   -1.1350 hn        1 OGG      0.476800
     24 HNK2        9.7400   -2.3570   -2.1420 hn        1 OGG      0.476800
     25 HB3        -0.6960    0.3190   -1.7390 hn        1 OGG      0.476800
     26 HK3        10.2060   -2.7370   -0.5820 hn        1 OGG      0.476800
@<TRIPOS>BOND
     1    1    2 1   
     2    1   13 1   
     3    1   14 1   
     4    1   25 1   
     5    2    3 2   
     6    2    4 1   
     7    4    5 1   
     8    4   15 1   
     9    4   16 1   
    10    5    6 1   
    11    6    7 1   
    12    6   17 1   
    13    6   18 1   
    14    7    8 1   
    15    7   19 1   
    16    7   20 1   
    17    8    9 1   
    18    9   10 1   
    19    9   21 1   
    20    9   22 1   
    21   10   11 2   
    22   10   12 1   
    23   12   23 1   
    24   12   24 1   
    25   12   26 1   
@<TRIPOS>SUBSTRUCTURE
     1 OGG         1 TEMP              0 ****  ****    0 ROOT
