@<TRIPOS>MOLECULE
OGG
   26    25     1     0     0
SMALL
bcc


@<TRIPOS>ATOM
      1 NB         -0.2310    0.7110   -0.9030 n4        1 OGG     -0.762400
      2 CC          1.0700   -0.0250   -0.6680 c         1 OGG      0.498100
      3 OL          1.1690   -0.5760    0.4140 o         1 OGG     -0.379100
      4 CD          2.0930    0.0080   -1.7990 c3        1 OGG      0.086400
      5 OE          3.3780    0.1320   -1.2530 os        1 OGG     -0.383600
      6 CF          3.9910   -1.1060   -0.8470 c3        1 OGG      0.109400
      7 CG          5.4080   -0.7470   -0.4160 c3        1 OGG      0.109400
      8 OH          6.2470   -1.0360   -1.5490 os        1 OGG     -0.383600
      9 CI          7.5920   -0.6660   -1.4020 c3        1 OGG      0.086400
     10 CJ          8.3400   -1.7790   -0.6750 c         1 OGG      0.498100
     11 OM          7.9440   -2.4660    0.2490 o         1 OGG     -0.379100
     12 NK          9.7460   -2.0780   -1.1490 n4        1 OGG     -0.762400
     13 HNB1       -0.0510    1.7170   -0.9990 hn        1 OGG      0.476800
     14 HNB2       -0.8730    0.5660   -0.1090 hn        1 OGG      0.476800
     15 HD1         1.9660    0.9210   -2.4470 h1        1 OGG      0.117200
     16 HD2         1.9590   -0.9330   -2.4040 h1        1 OGG      0.117200
     17 HF1         3.9990   -1.8260   -1.7080 h1        1 OGG      0.082700
     18 HF2         3.4180   -1.5260    0.0220 h1        1 OGG      0.082700
     19 HG1         5.7250   -1.3930    0.4450 h1        1 OGG      0.082700
     20 HG2         5.4880    0.3410   -0.1510 h1        1 OGG      0.082700
     21 HI1         7.9700   -0.5310   -2.4550 h1        1 OGG      0.117200
     22 HI2         7.7270    0.2790   -0.8050 h1        1 OGG      0.117200
     23 HNK1       10.1810   -2.7940   -0.5470 hn        1 OGG      0.476800
     24 HNK2        9.7220   -2.4310   -2.1120 hn        1 OGG      0.476800
     25 HB3        -0.6820    0.3730   -1.7600 hn        1 OGG      0.476800
     26 HK3        10.3200   -1.2290   -1.1220 hn        1 OGG      0.476800
@<TRIPOS>BOND
     1    1    2 1   
     2    1   13 1   
     3    1   14 1   
     4    1   25 1   
     5    2    3 2   
     6    2    4 1   
     7    4    5 1   
     8    4   15 1   
     9    4   16 1   
    10    5    6 1   
    11    6    7 1   
    12    6   17 1   
    13    6   18 1   
    14    7    8 1   
    15    7   19 1   
    16    7   20 1   
    17    8    9 1   
    18    9   10 1   
    19    9   21 1   
    20    9   22 1   
    21   10   11 2   
    22   10   12 1   
    23   12   23 1   
    24   12   24 1   
    25   12   26 1   
@<TRIPOS>SUBSTRUCTURE
     1 OGG         1 TEMP              0 ****  ****    0 ROOT
