@<TRIPOS>MOLECULE
OGG
   24    23     1     0     0
SMALL
bcc


@<TRIPOS>ATOM
      1 NB         -5.0680    0.8870    2.0370 n         1 OGG     -0.652500
      2 CC         -3.7260    0.3460    1.9330 c         1 OGG      0.657100
      3 OL         -3.2420   -0.2920    2.8800 o         1 OGG     -0.615600
      4 CD         -2.8640    0.6900    0.7360 c3        1 OGG      0.049400
      5 OE         -1.6510   -0.0000    0.8300 os        1 OGG     -0.423600
      6 CF         -0.6960    0.3410   -0.1950 c3        1 OGG      0.096900
      7 CG          0.5640   -0.5000   -0.0060 c3        1 OGG      0.096900
      8 OH          1.6240    0.0060   -0.8640 os        1 OGG     -0.423600
      9 CI          2.8090   -0.8010   -0.8600 c3        1 OGG      0.049400
     10 CJ          3.8610   -0.1500   -1.7160 c         1 OGG      0.657100
     11 OM          3.6400    0.9470   -2.2380 o         1 OGG     -0.615600
     12 NK          5.1640   -0.7690   -1.8540 n         1 OGG     -0.652500
     13 HNB1       -5.4160    1.4000    1.3450 hn        1 OGG      0.318250
     14 HNB2       -5.5340    0.8100    2.8320 hn        1 OGG      0.318250
     15 HD1        -3.3420    0.4200   -0.1150 h1        1 OGG      0.063700
     16 HD2        -2.6910    1.6540    0.7240 h1        1 OGG      0.063700
     17 HF1        -0.4690    1.2810   -0.1280 h1        1 OGG      0.062450
     18 HF2        -1.0810    0.1600   -1.0730 h1        1 OGG      0.062450
     19 HG1         0.8460   -0.4510    0.9150 h1        1 OGG      0.062450
     20 HG2         0.3730   -1.4240   -0.2370 h1        1 OGG      0.062450
     21 HI1         3.1450   -0.8880    0.0650 h1        1 OGG      0.063700
     22 HI2         2.5970   -1.7010   -1.2220 h1        1 OGG      0.063700
     23 HNK1        5.3340   -1.6200   -1.4520 hn        1 OGG      0.318250
     24 HNK2        5.8260   -0.3460   -2.3370 hn        1 OGG      0.318250
@<TRIPOS>BOND
     1    1    2 1   
     2    1   13 1   
     3    1   14 1   
     4    2    3 2   
     5    2    4 1   
     6    4    5 1   
     7    4   15 1   
     8    4   16 1   
     9    5    6 1   
    10    6    7 1   
    11    6   17 1   
    12    6   18 1   
    13    7    8 1   
    14    7   19 1   
    15    7   20 1   
    16    8    9 1   
    17    9   10 1   
    18    9   21 1   
    19    9   22 1   
    20   10   11 2   
    21   10   12 1   
    22   12   23 1   
    23   12   24 1   
@<TRIPOS>SUBSTRUCTURE
     1 OGG         1 TEMP              0 ****  ****    0 ROOT
