@<TRIPOS>MOLECULE
OGK
   50    52     1     0     0
SMALL
bcc


@<TRIPOS>ATOM
      1 C01        -0.2070    0.2440    0.2570 c3        1 OGK     -0.113100
      2 C02         1.2820    0.0450    0.1360 c3        1 OGK     -0.070400
      3 C03         1.9660    0.0010    1.4950 c3        1 OGK     -0.086700
      4 C04         1.7080   -1.3280    2.1890 c3        1 OGK     -0.089400
      5 C05         2.2630   -1.3510    3.6000 c3        1 OGK     -0.115700
      6 C06         1.5140   -0.4930    4.6140 c         1 OGK      0.543100
      7 O07         2.0000   -0.1060    5.6690 o         1 OGK     -0.438100
      8 N08         0.0850   -0.1880    4.3140 n4        1 OGK     -0.633800
      9 C09        -0.5700    0.9040    5.0730 cx        1 OGK     -0.114800
     10 C10        -0.7360    2.1790    4.1520 c         1 OGK      0.963600
     11 O11        -0.2250    2.0690    3.0000 o         1 OGK     -0.768800
     12 O12        -1.3860    3.1310    4.6160 o         1 OGK     -0.768800
     13 C13        -1.7270    0.5770    5.9960 cx        1 OGK     -0.122400
     14 C14        -0.4170    1.0150    6.5840 cx        1 OGK     -0.051700
     15 C15        -0.2530    2.3590    7.2190 c3        1 OGK     -0.071400
     16 C16        -0.4020    2.2790    8.7170 c3        1 OGK     -0.089100
     17 C17         3.7450   -0.9890    3.6310 c3        1 OGK     -0.066700
     18 C18         4.6440   -2.1920    3.3160 c3        1 OGK     -0.076400
     19 C19         5.9550   -1.6060    2.8130 c3        1 OGK     -0.189400
     20 C20         5.6600   -0.1800    2.4160 c         1 OGK      0.573100
     21 O21         6.4760    0.6110    1.9530 o         1 OGK     -0.505100
     22 C22         4.1910    0.1280    2.6750 c3        1 OGK     -0.166700
     23 C23         3.4670    0.1790    1.3400 c3        1 OGK     -0.063400
     24 H01        -0.6970   -0.6550    0.7040 hc        1 OGK      0.046367
     25 H01A       -0.6530    0.4140   -0.7520 hc        1 OGK      0.046367
     26 H02         1.7170    0.8970   -0.4530 hc        1 OGK      0.043700
     27 H03         1.5650    0.8580    2.1140 hc        1 OGK      0.098700
     28 H04         2.2240   -2.1430    1.6090 hc        1 OGK      0.054200
     29 H04A        0.6170   -1.5830    2.1700 hc        1 OGK      0.054200
     30 H05         2.1590   -2.4040    4.0050 hc        1 OGK      0.084700
     31 HN08       -0.4570   -1.0490    4.3970 hn        1 OGK      0.466800
     32 H13        -2.0570   -0.4670    6.1390 hc        1 OGK      0.090200
     33 H13A       -2.5720    1.2950    5.9720 hc        1 OGK      0.090200
     34 H14         0.1870    0.2370    7.0980 hc        1 OGK      0.075700
     35 H15        -1.0040    3.0810    6.7920 hc        1 OGK      0.079200
     36 H15A        0.7660    2.7540    6.9590 hc        1 OGK      0.079200
     37 H16        -0.2740    3.2950    9.1640 hc        1 OGK      0.031700
     38 H16A        0.3650    1.5990    9.1620 hc        1 OGK      0.031700
     39 H16B       -1.4140    1.8970    8.9950 hc        1 OGK      0.031700
     40 H17         4.0010   -0.6490    4.6780 hc        1 OGK      0.080700
     41 H18         4.1770   -2.8350    2.5290 hc        1 OGK      0.051200
     42 H18A        4.7990   -2.8200    4.2270 hc        1 OGK      0.051200
     43 H19         6.3540   -2.1760    1.9370 hc        1 OGK      0.082700
     44 H19A        6.7400   -1.6150    3.6120 hc        1 OGK      0.082700
     45 H22         4.0890    1.1240    3.1840 hc        1 OGK      0.095700
     46 H23         3.6820    1.1680    0.8550 hc        1 OGK      0.058700
     47 H23A        3.8630   -0.6220    0.6600 hc        1 OGK      0.058700
     48 H26        -0.4370    1.1310    0.9030 hc        1 OGK      0.046367
     49 H27         1.5030   -0.8980   -0.4290 hc        1 OGK      0.043700
     50 H082        0.0500    0.1560    3.3100 hn        1 OGK      0.466800
@<TRIPOS>BOND
     1    1    2 1   
     2    1   24 1   
     3    1   25 1   
     4    1   48 1   
     5    2    3 1   
     6    2   26 1   
     7    2   49 1   
     8    3    4 1   
     9    3   23 1   
    10    3   27 1   
    11    4    5 1   
    12    4   28 1   
    13    4   29 1   
    14    5    6 1   
    15    5   17 1   
    16    5   30 1   
    17    6    7 2   
    18    6    8 1   
    19    8    9 1   
    20    8   31 1   
    21    8   50 1   
    22    9   10 1   
    23    9   13 1   
    24    9   14 1   
    25   10   11 1   
    26   10   12 1   
    27   13   14 1   
    28   13   32 1   
    29   13   33 1   
    30   14   15 1   
    31   14   34 1   
    32   15   16 1   
    33   15   35 1   
    34   15   36 1   
    35   16   37 1   
    36   16   38 1   
    37   16   39 1   
    38   17   18 1   
    39   17   22 1   
    40   17   40 1   
    41   18   19 1   
    42   18   41 1   
    43   18   42 1   
    44   19   20 1   
    45   19   43 1   
    46   19   44 1   
    47   20   21 2   
    48   20   22 1   
    49   22   23 1   
    50   22   45 1   
    51   23   46 1   
    52   23   47 1   
@<TRIPOS>SUBSTRUCTURE
     1 OGK         1 TEMP              0 ****  ****    0 ROOT
