@<TRIPOS>MOLECULE
OGK
   49    51     1     0     0
SMALL
bcc


@<TRIPOS>ATOM
      1 C01        -0.6470    3.7870   -0.4090 c3        1 OGK     -0.116100
      2 C02        -1.8310    2.9150   -0.7400 c3        1 OGK     -0.067400
      3 C03        -1.6210    1.4710   -0.3110 c3        1 OGK     -0.071700
      4 C04        -1.5780    1.3410    1.2030 c3        1 OGK     -0.074400
      5 C05        -1.2200   -0.0640    1.6470 c3        1 OGK     -0.121700
      6 C06         0.2570   -0.4800    1.4870 c         1 OGK      0.644100
      7 O07         0.5620   -1.6530    1.8170 o         1 OGK     -0.668100
      8 N08         1.1670    0.4500    1.0840 n         1 OGK     -0.487900
      9 C09         2.5480    0.2440    0.7690 cx        1 OGK     -0.066600
     10 C10         3.2000    1.5440    0.1950 c         1 OGK      0.945600
     11 O11         4.4450    1.6750    0.3130 o         1 OGK     -0.828300
     12 O12         2.4340    2.3930   -0.3470 o         1 OGK     -0.828300
     13 C13         3.4380   -0.6430    1.6160 cx        1 OGK     -0.123400
     14 C14         3.0500   -1.0980    0.2360 cx        1 OGK     -0.126700
     15 C15         4.0500   -1.1310   -0.8740 c3        1 OGK     -0.065400
     16 C16         4.7300   -2.4740   -0.9720 c3        1 OGK     -0.080100
     17 C17        -2.1100   -1.1160    0.9980 c3        1 OGK     -0.058700
     18 C18        -3.4260   -1.3240    1.7590 c3        1 OGK     -0.078400
     19 C19        -4.4050   -1.9130    0.7530 c3        1 OGK     -0.190400
     20 C20        -3.8340   -1.6130   -0.6130 c         1 OGK      0.575100
     21 O21        -4.3650   -1.9270   -1.6780 o         1 OGK     -0.544100
     22 C22        -2.5180   -0.8700   -0.4640 c3        1 OGK     -0.158700
     23 C23        -2.7370    0.5860   -0.8410 c3        1 OGK     -0.059400
     24 H01        -0.6310    4.0390    0.6790 hc        1 OGK      0.050700
     25 H01A        0.3230    3.2780   -0.6570 hc        1 OGK      0.050700
     26 H02        -2.7570    3.3200   -0.2530 hc        1 OGK      0.024700
     27 H03        -0.6490    1.1170   -0.7570 hc        1 OGK      0.082700
     28 H04        -0.8670    2.0900    1.6400 hc        1 OGK      0.045700
     29 H04A       -2.5940    1.5910    1.6150 hc        1 OGK      0.045700
     30 H05        -1.3910   -0.1200    2.7630 hc        1 OGK      0.063700
     31 HN08        0.8410    1.3390    0.7500 hn        1 OGK      0.340500
     32 H13         4.4660   -0.2740    1.7890 hc        1 OGK      0.073200
     33 H13A        3.0120   -1.1840    2.4790 hc        1 OGK      0.073200
     34 H14         2.3170   -1.9290    0.1770 hc        1 OGK      0.072700
     35 H15         3.5270   -0.9050   -1.8410 hc        1 OGK      0.060700
     36 H15A        4.8160   -0.3210   -0.7140 hc        1 OGK      0.060700
     37 H16         5.4690   -2.4730   -1.8100 hc        1 OGK      0.016700
     38 H16A        5.2710   -2.7090   -0.0240 hc        1 OGK      0.016700
     39 H16B        3.9860   -3.2850   -1.1590 hc        1 OGK      0.016700
     40 H17        -1.5480   -2.0970    1.0260 hc        1 OGK      0.086700
     41 H18        -3.2730   -2.0060    2.6300 hc        1 OGK      0.045700
     42 H18A       -3.8080   -0.3470    2.1490 hc        1 OGK      0.045700
     43 H19        -4.5020   -3.0210    0.8800 hc        1 OGK      0.066700
     44 H19A       -5.4240   -1.4660    0.8530 hc        1 OGK      0.066700
     45 H22        -1.7430   -1.3100   -1.1480 hc        1 OGK      0.088700
     46 H23        -3.7180    0.9430   -0.4300 hc        1 OGK      0.040200
     47 H23A       -2.7920    0.6650   -1.9580 hc        1 OGK      0.040200
     48 H26        -0.7030    4.7430   -0.9830 hc        1 OGK      0.050700
     49 H27        -2.0060    2.9330   -1.8490 hc        1 OGK      0.024700
@<TRIPOS>BOND
     1    1    2 1   
     2    1   24 1   
     3    1   25 1   
     4    1   48 1   
     5    2    3 1   
     6    2   26 1   
     7    2   49 1   
     8    3    4 1   
     9    3   23 1   
    10    3   27 1   
    11    4    5 1   
    12    4   28 1   
    13    4   29 1   
    14    5    6 1   
    15    5   17 1   
    16    5   30 1   
    17    6    7 2   
    18    6    8 1   
    19    8    9 1   
    20    8   31 1   
    21    9   10 1   
    22    9   13 1   
    23    9   14 1   
    24   10   11 1   
    25   10   12 1   
    26   13   14 1   
    27   13   32 1   
    28   13   33 1   
    29   14   15 1   
    30   14   34 1   
    31   15   16 1   
    32   15   35 1   
    33   15   36 1   
    34   16   37 1   
    35   16   38 1   
    36   16   39 1   
    37   17   18 1   
    38   17   22 1   
    39   17   40 1   
    40   18   19 1   
    41   18   41 1   
    42   18   42 1   
    43   19   20 1   
    44   19   43 1   
    45   19   44 1   
    46   20   21 2   
    47   20   22 1   
    48   22   23 1   
    49   22   45 1   
    50   23   46 1   
    51   23   47 1   
@<TRIPOS>SUBSTRUCTURE
     1 OGK         1 TEMP              0 ****  ****    0 ROOT
