@<TRIPOS>MOLECULE
OGK
   49    51     1     0     0
SMALL
bcc


@<TRIPOS>ATOM
      1 C01        -0.0380    0.5990    0.2650 c3        1 OGK     -0.116100
      2 C02         1.4650    0.4850    0.2270 c3        1 OGK     -0.067400
      3 C03         2.0530    0.1510    1.5900 c3        1 OGK     -0.071700
      4 C04         1.6650   -1.2500    2.0350 c3        1 OGK     -0.074400
      5 C05         2.1150   -1.5440    3.4520 c3        1 OGK     -0.121700
      6 C06         1.3070   -0.8740    4.5830 c         1 OGK      0.644100
      7 O07         1.6890   -1.0800    5.7620 o         1 OGK     -0.668100
      8 N08         0.1840   -0.1700    4.2670 n         1 OGK     -0.487900
      9 C09        -0.6340    0.6120    5.1430 cx        1 OGK     -0.066600
     10 C10        -1.7360    1.3860    4.3500 c         1 OGK      0.945600
     11 O11        -2.7790    1.7170    4.9700 o         1 OGK     -0.828300
     12 O12        -1.5200    1.6260    3.1270 o         1 OGK     -0.828300
     13 C13        -1.0080    0.1310    6.5310 cx        1 OGK     -0.123400
     14 C14        -0.0510    1.2820    6.3880 cx        1 OGK     -0.126700
     15 C15        -0.4610    2.6740    6.7450 c3        1 OGK     -0.065400
     16 C16        -0.1350    3.0000    8.1810 c3        1 OGK     -0.080100
     17 C17         3.5970   -1.2580    3.6580 c3        1 OGK     -0.058700
     18 C18         4.4860   -2.4370    3.2430 c3        1 OGK     -0.078400
     19 C19         5.8590   -1.8450    2.9530 c3        1 OGK     -0.190400
     20 C20         5.6430   -0.3640    2.7480 c         1 OGK      0.575100
     21 O21         6.5330    0.4420    2.4780 o         1 OGK     -0.544100
     22 C22         4.1710   -0.0340    2.9260 c3        1 OGK     -0.158700
     23 C23         3.5680    0.2480    1.5590 c3        1 OGK     -0.059400
     24 H01        -0.5120   -0.4120    0.3010 hc        1 OGK      0.050700
     25 H01A       -0.3850    1.1720    1.1660 hc        1 OGK      0.050700
     26 H02         1.9020    1.4600   -0.1180 hc        1 OGK      0.024700
     27 H03         1.6660    0.9110    2.3270 hc        1 OGK      0.082700
     28 H04         0.5600   -1.4030    1.9270 hc        1 OGK      0.045700
     29 H04A        2.1560   -1.9940    1.3490 hc        1 OGK      0.045700
     30 H05         1.9570   -2.6500    3.6340 hc        1 OGK      0.063700
     31 HN08       -0.0110    0.0310    3.3030 hn        1 OGK      0.340500
     32 H13        -2.0470    0.3350    6.8500 hc        1 OGK      0.073200
     33 H13A       -0.6120   -0.8290    6.9040 hc        1 OGK      0.073200
     34 H14         1.0130    1.0740    6.6280 hc        1 OGK      0.072700
     35 H15        -1.5650    2.7990    6.5610 hc        1 OGK      0.060700
     36 H15A        0.0710    3.3940    6.0670 hc        1 OGK      0.060700
     37 H16         0.9620    2.9080    8.3720 hc        1 OGK      0.016700
     38 H16A       -0.6690    2.3040    8.8710 hc        1 OGK      0.016700
     39 H16B       -0.4480    4.0450    8.4210 hc        1 OGK      0.016700
     40 H17         3.7570   -1.0900    4.7640 hc        1 OGK      0.086700
     41 H18         4.5330   -3.2000    4.0560 hc        1 OGK      0.045700
     42 H18A        4.0740   -2.9320    2.3280 hc        1 OGK      0.045700
     43 H19         6.3230   -2.2970    2.0420 hc        1 OGK      0.066700
     44 H19A        6.5600   -2.0030    3.8100 hc        1 OGK      0.066700
     45 H22         4.0520    0.8780    3.5700 hc        1 OGK      0.088700
     46 H23         3.8810    1.2740    1.2310 hc        1 OGK      0.040200
     47 H23A        3.9700   -0.4820    0.8070 hc        1 OGK      0.040200
     48 H26        -0.4060    1.1210   -0.6500 hc        1 OGK      0.050700
     49 H27         1.7740   -0.2970   -0.5160 hc        1 OGK      0.024700
@<TRIPOS>BOND
     1    1    2 1   
     2    1   24 1   
     3    1   25 1   
     4    1   48 1   
     5    2    3 1   
     6    2   26 1   
     7    2   49 1   
     8    3    4 1   
     9    3   23 1   
    10    3   27 1   
    11    4    5 1   
    12    4   28 1   
    13    4   29 1   
    14    5    6 1   
    15    5   17 1   
    16    5   30 1   
    17    6    7 2   
    18    6    8 1   
    19    8    9 1   
    20    8   31 1   
    21    9   10 1   
    22    9   13 1   
    23    9   14 1   
    24   10   11 1   
    25   10   12 1   
    26   13   14 1   
    27   13   32 1   
    28   13   33 1   
    29   14   15 1   
    30   14   34 1   
    31   15   16 1   
    32   15   35 1   
    33   15   36 1   
    34   16   37 1   
    35   16   38 1   
    36   16   39 1   
    37   17   18 1   
    38   17   22 1   
    39   17   40 1   
    40   18   19 1   
    41   18   41 1   
    42   18   42 1   
    43   19   20 1   
    44   19   43 1   
    45   19   44 1   
    46   20   21 2   
    47   20   22 1   
    48   22   23 1   
    49   22   45 1   
    50   23   46 1   
    51   23   47 1   
@<TRIPOS>SUBSTRUCTURE
     1 OGK         1 TEMP              0 ****  ****    0 ROOT
