@<TRIPOS>MOLECULE
OGN
   45    46     1     0     0
SMALL
bcc


@<TRIPOS>ATOM
      1 CAA        -0.5760    0.8760   -0.2450 c2        1 OGN      0.560600
      2 CAB        -0.0960    2.2610   -0.5460 c3        1 OGN     -0.154700
      3 CAC         1.3110    2.4980   -0.0020 c3        1 OGN      0.109100
      4 CAD         2.1270    1.1940    0.0760 c3        1 OGN      0.146100
      5 CAE         1.3610    0.1430    0.9330 c3        1 OGN      0.286600
      6 CAF         1.8020    0.0850    2.4090 c3        1 OGN      0.124400
      7 CAH         1.4110   -3.3010   -0.5980 c3        1 OGN     -0.186400
      8 NAI         0.0160   -2.4850    1.2910 nv        1 OGN     -0.398100
      9 OAJ         1.2840    3.0080    1.3230 oh        1 OGN     -0.616800
     10 OAK         3.4160    1.4030    0.5860 oh        1 OGN     -0.559800
     11 OAL        -0.0380    0.2780    0.9110 os        1 OGN     -0.470400
     12 OAM         0.8140   -0.5190    3.2050 oh        1 OGN     -0.599800
     13 OAN         1.6210   -1.1010    0.2230 os        1 OGN     -0.431400
     14 NAO        -3.2120   -1.6320   -2.2580 ns        1 OGN     -0.407100
     15 CAP        -2.3030   -1.9740   -1.3060 c         1 OGN      0.776100
     16 OAQ        -1.7510   -0.9820   -0.4340 os        1 OGN     -0.231600
     17 OAR        -1.8500   -3.0740   -0.9430 o         1 OGN     -0.579000
     18 CAS        -3.7710   -2.5580   -3.1480 c2        1 OGN     -0.028700
     19 CAT        -3.9580   -4.0240   -2.8180 c3        1 OGN     -0.016000
     20 CAU        -5.3240   -4.4550   -3.2850 c2        1 OGN     -0.148200
     21 CAV        -6.0090   -3.8400   -4.2750 ce        1 OGN     -0.149000
     22 CAW        -5.2860   -2.8140   -5.0450 ce        1 OGN     -0.082100
     23 CAX        -4.3450   -2.2270   -4.3150 c1        1 OGN     -0.109800
     24 NAY        -1.4940    0.2250   -0.9150 n2        1 OGN     -0.419200
     25 HAB        -0.1060    2.4360   -1.6560 hc        1 OGN      0.106700
     26 HAC        -0.8100    2.9920   -0.0750 hc        1 OGN      0.106700
     27 HAD         1.8570    3.2170   -0.6780 h1        1 OGN      0.090700
     28 HAE         2.2850    0.7780   -0.9620 h1        1 OGN      0.119700
     29 HAF         2.7200   -0.5570    2.4970 h1        1 OGN      0.101700
     30 HAFA        2.0190    1.1350    2.7460 h1        1 OGN      0.101700
     31 HAH         0.5290   -3.6440   -1.2030 hc        1 OGN      0.115033
     32 HAHA        2.1880   -2.8710   -1.2800 hc        1 OGN      0.115033
     33 HAHB        1.8480   -4.1730   -0.0490 hc        1 OGN      0.115033
     34 HNAI       -0.5200   -3.3320    1.2430 hn        1 OGN      0.342700
     35 HOAJ        1.0030    3.9310    1.2780 ho        1 OGN      0.438000
     36 HOAK        3.3610    2.0390    1.3150 ho        1 OGN      0.433000
     37 HOAM        0.1500    0.1540    3.4140 ho        1 OGN      0.435000
     38 HNAO       -3.4320   -0.6680   -2.4120 hn        1 OGN      0.363500
     39 HAT        -3.8690   -4.1740   -1.7080 hc        1 OGN      0.090700
     40 HAU        -3.1810   -4.6700   -3.3090 hc        1 OGN      0.090700
     41 HAV        -5.7230   -5.3450   -2.7750 ha        1 OGN      0.150000
     42 HAW        -7.0150   -4.1400   -4.5930 ha        1 OGN      0.158000
     43 HAX        -5.4710   -2.6870   -6.1160 ha        1 OGN      0.172000
     44 CAG         0.9530   -2.2590    0.3850 c2        1 OGN      0.596600
     45 HAI2       -0.2940   -1.7660    1.9240 hn        1 OGN      0.342700
@<TRIPOS>BOND
     1    1    2 1   
     2    1   11 1   
     3    1   24 2   
     4    2    3 1   
     5    2   25 1   
     6    2   26 1   
     7    3    4 1   
     8    3    9 1   
     9    3   27 1   
    10    4    5 1   
    11    4   10 1   
    12    4   28 1   
    13    5    6 1   
    14    5   11 1   
    15    5   13 1   
    16    6   12 1   
    17    6   29 1   
    18    6   30 1   
    19    7   31 1   
    20    7   32 1   
    21    7   33 1   
    22    7   44 1   
    23    8   34 1   
    24    8   44 2   
    25    8   45 1   
    26    9   35 1   
    27   10   36 1   
    28   12   37 1   
    29   13   44 1   
    30   14   15 1   
    31   14   18 1   
    32   14   38 1   
    33   15   16 1   
    34   15   17 2   
    35   16   24 1   
    36   18   19 1   
    37   18   23 2   
    38   19   20 1   
    39   19   39 1   
    40   19   40 1   
    41   20   21 2   
    42   20   41 1   
    43   21   22 1   
    44   21   42 1   
    45   22   23 2   
    46   22   43 1   
@<TRIPOS>SUBSTRUCTURE
     1 OGN         1 TEMP              0 ****  ****    0 ROOT
