@<TRIPOS>MOLECULE
OGN
   44    45     1     0     0
SMALL
bcc


@<TRIPOS>ATOM
      1 CAA        -1.3690    0.3960   -0.1970 c2        1 OGN      0.533600
      2 CAB        -2.3070   -0.7500    0.1970 c3        1 OGN      0.038400
      3 CAC        -3.5600   -0.6670   -0.7250 c3        1 OGN      0.101100
      4 CAD        -4.1630    0.7500   -0.6660 c3        1 OGN      0.080100
      5 CAE        -3.0970    1.7750   -1.0480 c3        1 OGN      0.066100
      6 CAF        -3.5880    3.2160   -0.8720 c3        1 OGN      0.143400
      7 CAH        -0.7500   -4.0880    1.1980 c3        1 OGN     -0.173100
      8 NAI        -1.7040   -2.0480    0.1870 n         1 OGN     -0.560900
      9 OAJ        -4.5190   -1.6300   -0.3540 oh        1 OGN     -0.577800
     10 OAK        -4.7230    0.9860    0.6110 oh        1 OGN     -0.589800
     11 OAL        -1.9640    1.6570   -0.1670 os        1 OGN     -0.448400
     12 OAM        -2.7190    4.1270   -1.5020 oh        1 OGN     -0.589800
     13 OAN        -1.5450   -2.1970    2.4670 o         1 OGN     -0.603100
     14 NAO         2.6870    0.2840   -0.2180 n         1 OGN     -0.457100
     15 CAP         1.9880    1.2950   -0.8350 c         1 OGN      0.765100
     16 OAQ         0.5650    1.3270   -0.8120 os        1 OGN     -0.174600
     17 OAR         2.3900    2.2940   -1.4420 o         1 OGN     -0.509000
     18 CAS         4.0920    0.1930   -0.1630 ca        1 OGN      0.069600
     19 CAT         4.9490    1.1000   -0.8180 ca        1 OGN     -0.167000
     20 CAU         6.3290    0.9420   -0.7230 ca        1 OGN     -0.102000
     21 CAV         6.8820   -0.1050    0.0110 ca        1 OGN     -0.152000
     22 CAW         6.0400   -1.0060    0.6620 ca        1 OGN     -0.102000
     23 CAX         4.6590   -0.8690    0.5840 ca        1 OGN     -0.167000
     24 NAY        -0.0980    0.2390   -0.4530 n2        1 OGN     -0.462200
     25 HAB        -2.6320   -0.5220    1.2630 h1        1 OGN      0.114700
     26 HAC        -3.2880   -0.9240   -1.7870 h1        1 OGN      0.088700
     27 HAD        -5.0400    0.8080   -1.3730 h1        1 OGN      0.105700
     28 HAE        -2.7560    1.6070   -2.1060 h1        1 OGN      0.081700
     29 HAF        -4.5760    3.3390   -1.3890 h1        1 OGN      0.064700
     30 HAFA       -3.6930    3.4490    0.2210 h1        1 OGN      0.064700
     31 HAH         0.1700   -4.0480    0.5650 hc        1 OGN      0.070700
     32 HAHA       -0.4790   -4.4740    2.2110 hc        1 OGN      0.070700
     33 HAHB       -1.4860   -4.7850    0.7290 hc        1 OGN      0.070700
     34 HNAI       -1.5440   -2.4740   -0.6930 hn        1 OGN      0.321500
     35 HOAJ       -4.9120   -1.3400    0.4830 ho        1 OGN      0.423000
     36 HOAK       -4.0000    1.2220    1.2090 ho        1 OGN      0.416000
     37 HOAM       -1.8530    4.0390   -1.0800 ho        1 OGN      0.421000
     38 HNAO        2.1800   -0.4330    0.2520 hn        1 OGN      0.344500
     39 HAT         4.5410    1.9400   -1.4040 ha        1 OGN      0.152500
     40 HAU         6.9860    1.6590   -1.2390 ha        1 OGN      0.136000
     41 HAV         7.9730   -0.2200    0.0790 ha        1 OGN      0.136000
     42 HAW         6.4680   -1.8350    1.2460 ha        1 OGN      0.136000
     43 HAX         4.0160   -1.5910    1.1090 ha        1 OGN      0.152500
     44 CAG        -1.3540   -2.7150    1.3510 c         1 OGN      0.669100
@<TRIPOS>BOND
     1    1    2 1   
     2    1   11 1   
     3    1   24 2   
     4    2    3 1   
     5    2    8 1   
     6    2   25 1   
     7    3    4 1   
     8    3    9 1   
     9    3   26 1   
    10    4    5 1   
    11    4   10 1   
    12    4   27 1   
    13    5    6 1   
    14    5   11 1   
    15    5   28 1   
    16    6   12 1   
    17    6   29 1   
    18    6   30 1   
    19    7   31 1   
    20    7   32 1   
    21    7   33 1   
    22    7   44 1   
    23    8   34 1   
    24    8   44 1   
    25    9   35 1   
    26   10   36 1   
    27   12   37 1   
    28   13   44 2   
    29   14   15 1   
    30   14   18 1   
    31   14   38 1   
    32   15   16 1   
    33   15   17 2   
    34   16   24 1   
    35   18   19 ar  
    36   18   23 ar  
    37   19   20 ar  
    38   19   39 1   
    39   20   21 ar  
    40   20   40 1   
    41   21   22 ar  
    42   21   41 1   
    43   22   23 ar  
    44   22   42 1   
    45   23   43 1   
@<TRIPOS>SUBSTRUCTURE
     1 OGN         1 TEMP              0 ****  ****    0 ROOT
