@<TRIPOS>MOLECULE
OGN
   44    41     1     0     0
SMALL
bcc


@<TRIPOS>ATOM
      1 CAA         0.5610   -1.1030   -0.2120 c1        1 OGN      0.076500
      2 CAB         1.6350   -0.4230    0.1710 c2        1 OGN      0.016300
      3 CAC         1.5130    1.0690    0.4700 c3        1 OGN      0.159300
      4 CAD         0.2860    1.7370   -0.1820 c3        1 OGN     -0.008900
      5 CAE        -1.0090    1.2390    0.4110 c         1 OGN      0.552900
      6 CAF        -0.1520    0.2700    4.5110 c         1 OGN      0.583700
      7 CAH         4.5980   -2.7740    0.4840 c3        1 OGN     -0.173100
      8 NAI         2.8790   -1.0050    0.4100 n         1 OGN     -0.478100
      9 OAJ         2.6850    1.7540    0.0710 oh        1 OGN     -0.596800
     10 OAK         0.3530    1.6450   -1.5890 oh        1 OGN     -0.582800
     11 OAL        -1.9330    0.8250   -0.2900 o         1 OGN     -0.540100
     12 OAM         0.0500    0.8830    3.4650 o         1 OGN     -0.555100
     13 OAN         2.2760   -3.1780   -0.0330 o         1 OGN     -0.551100
     14 NAO        -3.1460   -1.8000   -1.3800 n         1 OGN     -0.386700
     15 CAP        -2.0790   -2.3230   -2.1040 c         1 OGN      0.765100
     16 OAQ        -0.7540   -1.9880   -1.7490 os        1 OGN     -0.192600
     17 OAR        -2.1070   -3.0400   -3.1060 o         1 OGN     -0.491000
     18 CAS        -4.4120   -2.0390   -1.7540 c1        1 OGN     -0.051800
     19 CAT        -5.2240   -4.2580   -4.4180 c2        1 OGN     -0.178000
     20 CAU        -6.5530   -4.1960   -4.2960 ce        1 OGN     -0.161000
     21 CAV        -7.3120   -3.3550   -3.4010 ce        1 OGN     -0.106000
     22 CAW        -6.8700   -2.5220   -2.4410 cf        1 OGN     -0.022700
     23 CAX        -5.5420   -2.2780   -2.0900 ch        1 OGN     -0.145300
     24 NAY        -0.4790   -1.7690   -0.4540 n2        1 OGN     -0.239900
     25 HAB         1.8380    3.3850   -2.3610 ha        1 OGN      0.002500
     26 HAC         1.7850    3.6390   -1.7340 ha        1 OGN      0.002500
     27 HAD         1.4610    1.2060    1.5920 h1        1 OGN      0.118700
     28 HAE         0.3640    2.8490    0.0250 h1        1 OGN      0.113700
     29 HAF        -1.0710    1.2920    1.5220 h4        1 OGN      0.044200
     30 HAFA        0.6780   -0.0450    5.1780 h4        1 OGN     -0.012800
     31 HAH         4.9310   -2.4980    1.5140 hc        1 OGN      0.072033
     32 HAHA        5.2670   -2.2810   -0.2620 hc        1 OGN      0.072033
     33 HAHB        4.6730   -3.8830    0.3620 hc        1 OGN      0.072033
     34 HNAI        3.6190   -0.3710    0.6220 hn        1 OGN      0.337500
     35 HOAJ        2.6550    1.8410   -0.8950 ho        1 OGN      0.429000
     36 HOAK       -0.0580    0.8090   -1.8550 ho        1 OGN      0.426000
     37 HOAM       -1.1750   -0.0040    4.8450 h4        1 OGN     -0.012800
     38 HNAO       -2.9890   -1.1010   -0.6810 hn        1 OGN      0.367500
     39 HAT        -4.5210   -3.6530   -3.8270 ha        1 OGN      0.125500
     40 HAU        -4.7470   -4.9370   -5.1380 ha        1 OGN      0.125500
     41 HAV        -7.1820   -4.8420   -4.9380 ha        1 OGN      0.114000
     42 HAW        -8.4080   -3.4260   -3.5420 ha        1 OGN      0.120000
     43 HAX        -7.6050   -1.9490   -1.8420 ha        1 OGN      0.135000
     44 CAG         3.1650   -2.3640    0.2590 c         1 OGN      0.654100
@<TRIPOS>BOND
     1    1    2 2   
     2    1   24 2   
     3    2    3 1   
     4    2    8 1   
     5    3    4 1   
     6    3    9 1   
     7    3   27 1   
     8    4    5 1   
     9    4   10 1   
    10    4   28 1   
    11    5   11 2   
    12    5   29 1   
    13    6   12 2   
    14    6   30 1   
    15    6   37 1   
    16    7   31 1   
    17    7   32 1   
    18    7   33 1   
    19    7   44 1   
    20    8   34 1   
    21    8   44 1   
    22    9   35 1   
    23   10   36 1   
    24   13   44 2   
    25   14   15 1   
    26   14   18 1   
    27   14   38 1   
    28   15   16 1   
    29   15   17 2   
    30   16   24 1   
    31   18   23 3   
    32   19   20 2   
    33   19   39 1   
    34   19   40 1   
    35   20   21 1   
    36   20   41 1   
    37   21   22 2   
    38   21   42 1   
    39   22   23 1   
    40   22   43 1   
    41   25   26 1   
@<TRIPOS>SUBSTRUCTURE
     1 OGN         1 TEMP              0 ****  ****    0 ROOT
