@<TRIPOS>MOLECULE
OGN
   44    41     1     0     0
SMALL
bcc


@<TRIPOS>ATOM
      1 CAA         0.8370   -0.6130    0.6060 c1        1 OGN      0.025000
      2 CAB         2.3870   -0.6370    0.6150 c2        1 OGN      0.035000
      3 CAC         2.8620   -0.6850    2.0560 c3        1 OGN     -0.017000
      4 CAD         2.2070   -1.7700    2.8430 c3        1 OGN      0.024000
      5 CAE         0.6970   -1.7210    2.7540 c3        1 OGN      0.008000
      6 CAF         0.2000   -0.4920    3.5020 c3        1 OGN     -0.057000
      7 CAG         4.0790   -1.4930   -1.0350 c1        1 OGN      0.308000
      8 CAH         4.7150   -2.6530   -1.7970 c2        1 OGN     -0.241000
      9 NAI         2.9350   -1.7270   -0.1940 n3        1 OGN     -0.381000
     10 OAJ         2.5780    0.5720    2.6770 oh        1 OGN     -0.331000
     11 OAK         2.5950   -1.6420    4.2170 oh        1 OGN     -0.303000
     12 OAL         0.2110   -1.6650    1.3960 os        1 OGN     -0.229000
     13 OAM        -1.0600   -0.7960    4.1450 oh        1 OGN     -0.328000
     14 OAN         4.5880   -0.3900   -1.0740 o         1 OGN     -0.362000
     15 NAO        -3.0240    1.7230   -0.9430 n         1 OGN     -0.289000
     16 CAP        -1.7730    1.0090   -1.1050 c2        1 OGN      0.388000
     17 OAQ        -1.2460    0.2540   -0.0260 os        1 OGN     -0.203000
     18 OAR        -1.2320    0.9750   -2.1890 o         1 OGN     -0.344000
     19 CAS        -3.8070    2.0830   -2.1040 c2        1 OGN      0.071000
     20 CAT        -4.8080    1.2190   -2.5700 c2        1 OGN     -0.174000
     21 CAU        -5.6110    1.5980   -3.6370 c1        1 OGN     -0.104000
     22 CAV        -5.4230    2.8400   -4.2460 c1        1 OGN     -0.126500
     23 CAW        -4.4320    3.6960   -3.7860 c1        1 OGN     -0.126500
     24 CAX        -3.6210    3.3150   -2.7090 c1        1 OGN     -0.153000
     25 NAY         0.1420    0.2860   -0.0590 n2        1 OGN      0.001000
     26 HAB         2.7500    0.1400    0.1550 h4        1 OGN      0.156000
     27 HAC         3.8330   -0.8300    2.0650 h1        1 OGN      0.114000
     28 HAD         2.5170   -2.6380    2.5050 h1        1 OGN      0.127000
     29 HAE         0.3340   -2.5130    3.1820 h1        1 OGN      0.149000
     30 HAF         0.0750    0.2500    2.8680 h1        1 OGN      0.090500
     31 HAFA        0.8590   -0.2340    4.1810 h1        1 OGN      0.090500
     32 HAH         4.9040   -3.3870   -1.1750 ha        1 OGN      0.110667
     33 HAHA        4.0970   -2.9660   -2.4940 ha        1 OGN      0.110667
     34 HAHB        5.5520   -2.3530   -2.2140 ha        1 OGN      0.110667
     35 HNAI        2.5100   -2.5260   -0.2230 hn        1 OGN      0.237000
     36 HOAJ        3.2310    1.1540    2.4860 ho        1 OGN      0.217000
     37 HOAK        3.3540   -2.1000    4.3580 ho        1 OGN      0.229000
     38 HOAM       -1.2350   -0.1750    4.7720 ho        1 OGN      0.209000
     39 HNAO       -3.3100    1.9640   -0.1020 hn        1 OGN      0.251000
     40 HAT        -4.9410    0.3470   -2.1420 ha        1 OGN      0.133000
     41 HAU        -6.3150    0.9890   -3.9650 ha        1 OGN      0.135000
     42 HAV        -5.9870    3.1060   -4.9970 ha        1 OGN      0.136500
     43 HAW        -4.3000    4.5700   -4.2150 ha        1 OGN      0.136500
     44 HAX        -2.9240    3.9180   -2.3840 ha        1 OGN      0.171000
@<TRIPOS>BOND
     1    1   12 1   
     2    1   25 1   
     3    2    3 1   
     4    2    9 1   
     5    2   26 1   
     6    3    4 1   
     7    3   10 1   
     8    3   27 1   
     9    4    5 1   
    10    4   11 1   
    11    4   28 1   
    12    5    6 1   
    13    5   12 1   
    14    5   29 1   
    15    6   13 1   
    16    6   30 1   
    17    6   31 1   
    18    7    9 1   
    19    7   14 1   
    20    8   32 1   
    21    8   33 1   
    22    8   34 1   
    23    9   35 1   
    24   10   36 1   
    25   11   37 1   
    26   13   38 1   
    27   15   16 1   
    28   15   19 1   
    29   15   39 1   
    30   16   17 1   
    31   16   18 1   
    32   17   25 1   
    33   19   20 1   
    34   19   24 1   
    35   20   21 1   
    36   20   40 1   
    37   21   41 1   
    38   22   23 1   
    39   22   42 1   
    40   23   43 1   
    41   24   44 1   
@<TRIPOS>SUBSTRUCTURE
     1 OGN         1 TEMP              0 ****  ****    0 ROOT
