@<TRIPOS>MOLECULE
OGN
   45    45     1     0     0
SMALL
bcc


@<TRIPOS>ATOM
      1 CAA        -0.3190    0.3290    0.6270 c2        1 OGN     -0.085000
      2 CAB         1.0840    0.8420    0.2900 c3        1 OGN      0.018000
      3 CAC         1.9970    0.6950    1.5460 c3        1 OGN      0.000000
      4 CAD         1.2270    0.2950    2.8240 c3        1 OGN     -0.009000
      5 CAE        -0.1190    0.9690    2.8690 c2        1 OGN      0.235000
      6 CAF        -0.6430    1.6370    4.1030 c3        1 OGN     -0.032000
      7 CAH         1.7320   -2.6430   -4.3060 c3        1 OGN     -0.294000
      8 NAI         1.7010    0.2790   -0.8700 n3        1 OGN     -0.325000
      9 OAJ         2.5620    1.9620    1.8350 oh        1 OGN     -0.345000
     10 OAK         1.9440    0.5330    4.0040 oh        1 OGN     -0.282000
     11 OAL        -0.8840    0.9570    1.8130 os        1 OGN     -0.050000
     12 OAM        -2.0200    1.8560    4.0690 oh        1 OGN     -0.263000
     13 OAN         0.3770   -1.6230   -2.6080 o         1 OGN     -0.381000
     14 NAO        -2.5590   -2.0970   -1.7900 n         1 OGN     -0.275000
     15 CAP        -2.9760   -1.7780   -0.5280 c2        1 OGN      0.420000
     16 OAQ        -2.2050   -0.8410    0.2910 os        1 OGN     -0.196000
     17 OAR        -3.9600   -2.0830    0.1400 o         1 OGN     -0.267000
     18 CAS        -3.2130   -3.0440   -2.5840 c2        1 OGN      0.085000
     19 CAT        -4.6480   -3.4670   -2.3700 c3        1 OGN     -0.122000
     20 CAU        -5.3250   -3.6000   -3.7070 c2        1 OGN     -0.128000
     21 CAV        -4.6630   -3.8190   -4.8650 c2        1 OGN     -0.162000
     22 CAW        -3.2310   -4.1250   -4.7630 c2        1 OGN      0.000000
     23 CAX        -2.6610   -3.5840   -3.6890 c1        1 OGN     -0.323000
     24 NAY        -1.0170   -0.4920   -0.0880 n2        1 OGN      0.060000
     25 HAB         1.2270    0.5380   -1.7150 hn        1 OGN      0.195500
     26 HAC         0.9500    1.9570    0.1030 h1        1 OGN      0.152000
     27 HAD         2.8070   -0.0720    1.3810 h1        1 OGN      0.151000
     28 HAE         1.0300   -0.8260    2.8120 h1        1 OGN      0.191000
     29 HAF        -0.4620    0.9360    4.9770 h1        1 OGN      0.180500
     30 HAFA       -0.0370    2.5770    4.2550 h1        1 OGN      0.180500
     31 HAH         2.5730   -2.0280   -3.9050 hc        1 OGN      0.115333
     32 HAHA        2.0110   -3.7250   -4.2450 hc        1 OGN      0.115333
     33 HAHB        1.5770   -2.3840   -5.3840 hc        1 OGN      0.115333
     34 HNAI       -0.4220   -3.0040   -3.8940 h4        1 OGN      0.135000
     35 HOAJ        3.2970    2.1030    1.2220 ho        1 OGN      0.260000
     36 HOAK        2.5140    1.3120    3.8820 ho        1 OGN      0.254000
     37 HOAM       -2.2030    2.6370    3.5250 ho        1 OGN      0.232000
     38 HNAO       -1.6840   -1.7480   -2.1380 hn        1 OGN      0.290000
     39 HAT        -5.1850   -2.6970   -1.7500 hc        1 OGN      0.142500
     40 HAU        -4.7230   -4.4460   -1.8220 hc        1 OGN      0.142500
     41 HAV        -6.4240   -3.5420   -3.6720 ha        1 OGN      0.153000
     42 HAW        -5.1600   -3.8840   -5.8400 ha        1 OGN      0.156000
     43 HAX        -2.7630   -4.8190   -5.4700 ha        1 OGN      0.163000
     44 CAG         0.4690   -2.4160   -3.5580 c2        1 OGN      0.200000
     45 HAI2        1.7860   -0.7190   -0.8290 hn        1 OGN      0.195500
@<TRIPOS>BOND
     1    1    2 1   
     2    1   11 1   
     3    1   24 1   
     4    2    3 1   
     5    2    8 1   
     6    2   26 1   
     7    3    4 1   
     8    3    9 1   
     9    3   27 1   
    10    4    5 1   
    11    4   10 1   
    12    4   28 1   
    13    5    6 1   
    14    5   11 1   
    15    6   12 1   
    16    6   29 1   
    17    6   30 1   
    18    7   31 1   
    19    7   32 1   
    20    7   33 1   
    21    7   44 1   
    22    8   25 1   
    23    8   45 1   
    24    9   35 1   
    25   10   36 1   
    26   12   37 1   
    27   13   44 1   
    28   14   15 1   
    29   14   18 1   
    30   14   38 1   
    31   15   16 1   
    32   15   17 1   
    33   16   24 1   
    34   18   19 1   
    35   18   23 1   
    36   19   20 1   
    37   19   39 1   
    38   19   40 1   
    39   20   21 1   
    40   20   41 1   
    41   21   22 1   
    42   21   42 1   
    43   22   23 1   
    44   22   43 1   
    45   34   44 1   
@<TRIPOS>SUBSTRUCTURE
     1 OGN         1 TEMP              0 ****  ****    0 ROOT
