@<TRIPOS>MOLECULE
OGX
   45    44     1     0     0
SMALL
bcc


@<TRIPOS>ATOM
      1 OP2        -1.7510    2.2330    2.8130 o         1 OGX     -1.177000
      2 P          -0.5220    1.6830    3.5110 p3        1 OGX      2.607000
      3 S          -2.8190    3.0690    8.1610 sh        1 OGX     -0.087000
      4 N1          0.2840   -1.0510   -6.7750 n         1 OGX     -0.329000
      5 C2          1.3640   -1.4970   -6.0030 c2        1 OGX      0.203000
      6 N2          2.5110   -2.1290   -6.6510 n3        1 OGX     -0.315000
      7 N3          1.3100   -1.3970   -4.5510 n1        1 OGX     -0.206000
      8 C4          0.1290   -0.8310   -3.8990 c1        1 OGX      0.133000
      9 N4         -0.8910    1.3530    5.1260 n3        1 OGX     -0.875000
     10 C5         -0.8990   -0.4040   -4.6350 c1        1 OGX     -0.238000
     11 C6         -0.8450   -0.5110   -6.1530 c2        1 OGX      0.379000
     12 O6         -1.8240   -0.2030   -6.8230 o         1 OGX     -0.367000
     13 N7         -1.9430    0.1030   -3.8990 n2        1 OGX     -0.216000
     14 C8         -1.4660   -0.0400   -2.4280 c2        1 OGX      0.347000
     15 O8         -2.1880   -0.0630   -1.4350 o         1 OGX     -0.319000
     16 N9         -0.0520   -0.6780   -2.5460 n         1 OGX     -0.225000
     17 C1'         0.6280   -1.3800   -1.5340 c3        1 OGX      0.153000
     18 C2'         1.7100   -0.7400   -1.1920 c3        1 OGX     -0.199000
     19 C3'         1.9070   -0.9980    0.3850 c3        1 OGX      0.037000
     20 O3'         2.5440   -2.2600    0.6030 oh        1 OGX     -0.366000
     21 C4'         0.6650   -1.0020    0.9260 c3        1 OGX     -0.043000
     22 O4'        -0.2620   -1.4420   -0.2010 os        1 OGX     -0.292000
     23 C5'         0.2910    0.3930    1.4060 c3        1 OGX      0.050000
     24 O5'        -0.0580    0.3390    2.7880 o         1 OGX     -0.752000
     25 C7'        -1.3100    2.4130    5.9990 c3        1 OGX     -0.015000
     26 C8'        -1.8890    1.8150    7.2810 c3        1 OGX     -0.269000
     27 OP1         0.6010    2.7080    3.4440 o         1 OGX     -1.177000
     28 HS         -3.3780    2.5730    9.0860 hs        1 OGX      0.046000
     29 HN1         0.3190   -1.1120   -7.6940 hn        1 OGX      0.246000
     30 HN2         2.5420   -2.1940   -7.5710 hn        1 OGX      0.202000
     31 HN2A        3.2070   -2.4500   -6.1430 hn        1 OGX      0.202000
     32 HN4        -0.8720    0.4810    5.4350 hn        1 OGX      0.204000
     33 HN7        -2.8070    0.1730   -4.1770 hn        1 OGX      0.239000
     34 H1'         0.8490   -2.2790   -1.8340 h2        1 OGX      0.124000
     35 H2'         1.6040    0.2200   -1.3660 hc        1 OGX      0.119000
     36 H2'A        2.4640   -1.0830   -1.6800 hc        1 OGX      0.119000
     37 H3'         2.4470   -0.2700    0.7830 h1        1 OGX      0.120000
     38 HO3'        3.3730   -2.1250    0.9330 ho        1 OGX      0.272000
     39 H4'         0.6210   -1.6410    1.6690 h1        1 OGX      0.123000
     40 H5'        -0.4810    0.7270    0.8820 h1        1 OGX      0.068500
     41 H5'A        1.0580    0.9980    1.2850 h1        1 OGX      0.068500
     42 H7'        -0.5430    2.9760    6.2190 h1        1 OGX      0.091000
     43 H7'A       -1.9940    2.9520    5.5530 h1        1 OGX      0.091000
     44 H8'        -1.1630    1.4940    7.8460 h1        1 OGX      0.111000
     45 H8'A       -2.4750    1.0750    7.0570 h1        1 OGX      0.111000
@<TRIPOS>BOND
     1    1    2 1   
     2    2    9 1   
     3    2   27 1   
     4    3   26 1   
     5    3   28 1   
     6    4    5 1   
     7    4   11 1   
     8    4   29 1   
     9    5    6 1   
    10    5    7 1   
    11    6   30 1   
    12    6   31 1   
    13    8   10 1   
    14    8   16 1   
    15    9   25 1   
    16    9   32 1   
    17   10   11 1   
    18   11   12 1   
    19   13   14 1   
    20   13   33 1   
    21   14   15 1   
    22   14   16 1   
    23   16   17 1   
    24   17   18 1   
    25   17   22 1   
    26   17   34 1   
    27   18   19 1   
    28   18   35 1   
    29   18   36 1   
    30   19   20 1   
    31   19   21 1   
    32   19   37 1   
    33   20   38 1   
    34   21   22 1   
    35   21   23 1   
    36   21   39 1   
    37   23   24 1   
    38   23   40 1   
    39   23   41 1   
    40   25   26 1   
    41   25   42 1   
    42   25   43 1   
    43   26   44 1   
    44   26   45 1   
@<TRIPOS>SUBSTRUCTURE
     1 OGX         1 TEMP              0 ****  ****    0 ROOT
