@<TRIPOS>MOLECULE
OGX
   45    47     1     0     0
SMALL
bcc


@<TRIPOS>ATOM
      1 OP2         1.7470   -2.3640   -0.4280 o         1 OGX     -0.836500
      2 P           2.8130   -1.4010   -0.8130 p5        1 OGX      1.416700
      3 S           6.8750    1.4480    0.6930 sh        1 OGX     -0.434900
      4 N1         -5.4030   -0.6530   -1.2330 n         1 OGX     -0.489400
      5 C2         -5.0600    0.7100   -1.3030 cc        1 OGX      0.650800
      6 N2         -5.8250    1.5220   -2.1890 nh        1 OGX     -0.877800
      7 N3         -4.1040    1.2980   -0.5470 nd        1 OGX     -0.638300
      8 C4         -3.4650    0.4620    0.3490 cd        1 OGX      0.270200
      9 N4          3.5620   -0.8690    0.5260 n3        1 OGX     -0.953300
     10 C5         -3.7640   -0.9190    0.4940 cc        1 OGX     -0.243600
     11 C6         -4.7810   -1.5410   -0.3190 c         1 OGX      0.741700
     12 O6         -5.1520   -2.7280   -0.3070 o         1 OGX     -0.633500
     13 N7         -2.9760   -1.4810    1.5250 n         1 OGX     -0.364100
     14 C8         -2.0610   -0.4360    1.9200 c         1 OGX      0.758500
     15 O8         -1.2110   -0.5510    2.8140 o         1 OGX     -0.597500
     16 N9         -2.4450    0.8130    1.2740 n         1 OGX     -0.340000
     17 C1'        -1.5420    1.9200    0.9720 c3        1 OGX      0.299500
     18 C2'        -0.3710    2.0950    1.9580 c3        1 OGX     -0.110400
     19 C3'         0.8240    1.4650    1.2340 c3        1 OGX      0.119100
     20 O3'         1.9590    2.2840    1.4540 oh        1 OGX     -0.611800
     21 C4'         0.4240    1.4330   -0.2550 c3        1 OGX      0.064100
     22 O4'        -0.9710    1.7860   -0.3350 os        1 OGX     -0.425600
     23 C5'         0.6340    0.0730   -0.9380 c3        1 OGX      0.177400
     24 O5'         1.9600   -0.0380   -1.3230 os        1 OGX     -0.579200
     25 C7'         4.9140   -0.4580    0.4780 c3        1 OGX      0.217800
     26 C8'         5.1510    1.0380    0.7090 c3        1 OGX     -0.012300
     27 OP1         3.7890   -1.6370   -1.9060 o         1 OGX     -0.836500
     28 HS          7.2280    0.8590   -0.4390 hs        1 OGX      0.215800
     29 HN2        -5.9400    1.1170   -3.0950 hn        1 OGX      0.406800
     30 HN2A       -5.4960    2.4660   -2.2350 hn        1 OGX      0.406800
     31 HN4         3.1560   -0.9070    1.4220 hn        1 OGX      0.404800
     32 H1'        -2.2010    2.8370    0.9150 h2        1 OGX      0.092700
     33 H2'        -0.1940    3.1870    2.1180 hc        1 OGX      0.082700
     34 H2'A       -0.5470    1.6120    2.9480 hc        1 OGX      0.082700
     35 H3'         1.0200    0.4290    1.6250 h1        1 OGX      0.072700
     36 HO3'        2.6820    1.8780    0.9550 ho        1 OGX      0.424000
     37 H4'         0.9730    2.2300   -0.8270 h1        1 OGX      0.079700
     38 H5'         0.3310   -0.7690   -0.2560 h1        1 OGX      0.042700
     39 H5'A       -0.0200    0.0540   -1.8560 h1        1 OGX      0.042700
     40 H7'         5.5380   -1.0050    1.2490 h1        1 OGX      0.053200
     41 H7'A        5.3130   -0.7280   -0.5490 h1        1 OGX      0.053200
     42 H8'         4.7890    1.3520    1.7190 h1        1 OGX      0.068700
     43 H8'A        4.6170    1.6430   -0.0630 h1        1 OGX      0.068700
     44 HN1        -6.1310   -1.0200   -1.8050 hn        1 OGX      0.333500
     45 HN7        -2.6070   -2.3990    1.3950 hn        1 OGX      0.335500
@<TRIPOS>BOND
     1    1    2 1   
     2    2    9 1   
     3    2   24 1   
     4    2   27 1   
     5    3   26 1   
     6    3   28 1   
     7    4    5 1   
     8    4   11 1   
     9    4   44 1   
    10    5    6 1   
    11    5    7 2   
    12    6   29 1   
    13    6   30 1   
    14    7    8 1   
    15    8   10 2   
    16    8   16 1   
    17    9   25 1   
    18    9   31 1   
    19   10   11 1   
    20   10   13 1   
    21   11   12 2   
    22   13   14 1   
    23   13   45 1   
    24   14   15 2   
    25   14   16 1   
    26   16   17 1   
    27   17   18 1   
    28   17   22 1   
    29   17   32 1   
    30   18   19 1   
    31   18   33 1   
    32   18   34 1   
    33   19   20 1   
    34   19   21 1   
    35   19   35 1   
    36   20   36 1   
    37   21   22 1   
    38   21   23 1   
    39   21   37 1   
    40   23   24 1   
    41   23   38 1   
    42   23   39 1   
    43   25   26 1   
    44   25   40 1   
    45   25   41 1   
    46   26   42 1   
    47   26   43 1   
@<TRIPOS>SUBSTRUCTURE
     1 OGX         1 TEMP              0 ****  ****    0 ROOT
