@<TRIPOS>MOLECULE
OHA
   48    47     1     0     0
SMALL
bcc


@<TRIPOS>ATOM
      1 O2          0.6660    0.6010    0.3900 o         1 OHA     -0.853300
      2 C16         1.7650    0.0250    0.1420 c         1 OHA      0.907600
      3 O3          2.5130   -0.4750    1.0310 o         1 OHA     -0.853300
      4 C15         2.1970   -0.0880   -1.3310 c3        1 OHA     -0.194400
      5 C14         3.6530    0.2700   -1.5040 c3        1 OHA     -0.065400
      6 C13         4.1470   -0.0230   -2.9050 c3        1 OHA     -0.078400
      7 C12         5.6070    0.3460   -3.0630 c3        1 OHA     -0.079400
      8 C11         6.1150    0.0330   -4.4540 c3        1 OHA     -0.078400
      9 C10         7.5800    0.3880   -4.5950 c3        1 OHA     -0.079400
     10 C9          8.0990    0.0600   -5.9780 c3        1 OHA     -0.074400
     11 C8          9.5750    0.3770   -6.0890 c3        1 OHA     -0.181400
     12 C7         10.1240    0.1300   -7.4650 c         1 OHA      0.565100
     13 O1          9.4310    0.1600   -8.4860 o         1 OHA     -0.533100
     14 C6         11.6020   -0.1490   -7.4970 c3        1 OHA     -0.184400
     15 C5         12.1820   -0.0700   -8.8920 c3        1 OHA     -0.075400
     16 C4         13.6560   -0.4130   -8.8920 c3        1 OHA     -0.078400
     17 C3         14.2380   -0.3230  -10.2870 c3        1 OHA     -0.079400
     18 C2         15.7120   -0.6680  -10.2920 c3        1 OHA     -0.080400
     19 C1         16.2950   -0.5800  -11.6780 c3        1 OHA     -0.092100
     20 H151        2.0220   -1.1440   -1.6580 hc        1 OHA      0.019200
     21 H152        1.5540    0.5780   -1.9590 hc        1 OHA      0.019200
     22 H141        4.2560   -0.3080   -0.7530 hc        1 OHA      0.043700
     23 H142        3.7990    1.3580   -1.2760 hc        1 OHA      0.043700
     24 H131        3.5320    0.5470   -3.6500 hc        1 OHA      0.026700
     25 H132        4.0100   -1.1140   -3.1310 hc        1 OHA      0.026700
     26 H121        6.2160   -0.2130   -2.3050 hc        1 OHA      0.035700
     27 H122        5.7410    1.4390   -2.8510 hc        1 OHA      0.035700
     28 H111        5.5150    0.6020   -5.2120 hc        1 OHA      0.036700
     29 H112        5.9700   -1.0590   -4.6700 hc        1 OHA      0.036700
     30 H101        7.7210    1.4810   -4.3880 hc        1 OHA      0.036200
     31 H102        8.1750   -0.1730   -3.8260 hc        1 OHA      0.036200
     32 H91         7.5330    0.6430   -6.7510 hc        1 OHA      0.052200
     33 H92         7.9320   -1.0260   -6.1990 hc        1 OHA      0.052200
     34 H81         9.7490    1.4600   -5.8430 hc        1 OHA      0.062200
     35 H82        10.1520   -0.2320   -5.3430 hc        1 OHA      0.062200
     36 H61        12.1230    0.5800   -6.8220 hc        1 OHA      0.063200
     37 H62        11.7670   -1.1760   -7.0720 hc        1 OHA      0.063200
     38 H51        12.0300    0.9640   -9.3000 hc        1 OHA      0.053700
     39 H52        11.6230   -0.7710   -9.5670 hc        1 OHA      0.053700
     40 H41        13.8020   -1.4500   -8.4900 hc        1 OHA      0.037200
     41 H42        14.2070    0.2870   -8.2090 hc        1 OHA      0.037200
     42 H31        14.0930    0.7140  -10.6890 hc        1 OHA      0.041700
     43 H32        13.6860   -1.0220  -10.9690 hc        1 OHA      0.041700
     44 H21        16.2610    0.0300   -9.6070 hc        1 OHA      0.037200
     45 H22        15.8540   -1.7050   -9.8890 hc        1 OHA      0.037200
     46 H11        15.7760   -1.2870  -12.3700 hc        1 OHA      0.031367
     47 H12        17.3820   -0.8370  -11.6600 hc        1 OHA      0.031367
     48 H13        16.1840    0.4540  -12.0880 hc        1 OHA      0.031367
@<TRIPOS>BOND
     1    1    2 1   
     2    2    3 1   
     3    2    4 1   
     4    4    5 1   
     5    4   20 1   
     6    4   21 1   
     7    5    6 1   
     8    5   22 1   
     9    5   23 1   
    10    6    7 1   
    11    6   24 1   
    12    6   25 1   
    13    7    8 1   
    14    7   26 1   
    15    7   27 1   
    16    8    9 1   
    17    8   28 1   
    18    8   29 1   
    19    9   10 1   
    20    9   30 1   
    21    9   31 1   
    22   10   11 1   
    23   10   32 1   
    24   10   33 1   
    25   11   12 1   
    26   11   34 1   
    27   11   35 1   
    28   12   13 2   
    29   12   14 1   
    30   14   15 1   
    31   14   36 1   
    32   14   37 1   
    33   15   16 1   
    34   15   38 1   
    35   15   39 1   
    36   16   17 1   
    37   16   40 1   
    38   16   41 1   
    39   17   18 1   
    40   17   42 1   
    41   17   43 1   
    42   18   19 1   
    43   18   44 1   
    44   18   45 1   
    45   19   46 1   
    46   19   47 1   
    47   19   48 1   
@<TRIPOS>SUBSTRUCTURE
     1 OHA         1 TEMP              0 ****  ****    0 ROOT
