@<TRIPOS>MOLECULE
OHA
   48    47     1     0     0
SMALL
bcc


@<TRIPOS>ATOM
      1 O2          0.6690    0.5560    0.3950 o         1 OHA     -0.853300
      2 C16         1.7620   -0.0230    0.1310 c         1 OHA      0.907600
      3 O3          2.5030   -0.5580    1.0060 o         1 OHA     -0.853300
      4 C15         2.1940   -0.0980   -1.3450 c3        1 OHA     -0.194400
      5 C14         3.6540    0.2480   -1.5050 c3        1 OHA     -0.065400
      6 C13         4.1470   -0.0100   -2.9140 c3        1 OHA     -0.078400
      7 C12         5.6110    0.3470   -3.0600 c3        1 OHA     -0.079400
      8 C11         6.1170    0.0670   -4.4590 c3        1 OHA     -0.078400
      9 C10         7.5870    0.4070   -4.5870 c3        1 OHA     -0.079400
     10 C9          8.1050    0.1110   -5.9780 c3        1 OHA     -0.074400
     11 C8          9.5850    0.4090   -6.0770 c3        1 OHA     -0.181400
     12 C7         10.1330    0.1920   -7.4590 c         1 OHA      0.565100
     13 O1          9.4460    0.2850   -8.4810 o         1 OHA     -0.533100
     14 C6         11.6000   -0.1390   -7.4960 c3        1 OHA     -0.184400
     15 C5         12.1870   -0.0410   -8.8860 c3        1 OHA     -0.075400
     16 C4         13.6480   -0.4370   -8.8920 c3        1 OHA     -0.078400
     17 C3         14.2370   -0.3310  -10.2820 c3        1 OHA     -0.079400
     18 C2         15.6980   -0.7280  -10.2930 c3        1 OHA     -0.080400
     19 C1         16.2890   -0.6230  -11.6760 c3        1 OHA     -0.092100
     20 H151        2.0070   -1.1430   -1.7030 hc        1 OHA      0.019200
     21 H152        1.5600    0.5930   -1.9530 hc        1 OHA      0.019200
     22 H141        4.2490   -0.3580   -0.7710 hc        1 OHA      0.043700
     23 H142        3.8120    1.3280   -1.2460 hc        1 OHA      0.043700
     24 H131        3.5390    0.5890   -3.6430 hc        1 OHA      0.026700
     25 H132        3.9970   -1.0910   -3.1710 hc        1 OHA      0.026700
     26 H121        6.2120   -0.2400   -2.3170 hc        1 OHA      0.035700
     27 H122        5.7570    1.4330   -2.8180 hc        1 OHA      0.035700
     28 H111        5.5260    0.6640   -5.2010 hc        1 OHA      0.036700
     29 H112        5.9590   -1.0160   -4.7060 hc        1 OHA      0.036700
     30 H101        7.7410    1.4930   -4.3510 hc        1 OHA      0.036200
     31 H102        8.1730   -0.1810   -3.8330 hc        1 OHA      0.036200
     32 H91         7.5490    0.7230   -6.7360 hc        1 OHA      0.051700
     33 H92         7.9230   -0.9670   -6.2290 hc        1 OHA      0.051700
     34 H81         9.7740    1.4820   -5.8020 hc        1 OHA      0.062700
     35 H82        10.1510   -0.2280   -5.3470 hc        1 OHA      0.062700
     36 H61        12.1440    0.5510   -6.7980 hc        1 OHA      0.063200
     37 H62        11.7260   -1.1830   -7.1000 hc        1 OHA      0.063200
     38 H51        12.0740    1.0080   -9.2650 hc        1 OHA      0.053700
     39 H52        11.6060   -0.7030   -9.5820 hc        1 OHA      0.053700
     40 H41        13.7550   -1.4900   -8.5180 hc        1 OHA      0.037200
     41 H42        14.2210    0.2230   -8.1890 hc        1 OHA      0.037200
     42 H31        14.1310    0.7220  -10.6560 hc        1 OHA      0.041700
     43 H32        13.6630   -0.9890  -10.9850 hc        1 OHA      0.041700
     44 H21        16.2700   -0.0690   -9.5880 hc        1 OHA      0.037200
     45 H22        15.8010   -1.7810   -9.9190 hc        1 OHA      0.037200
     46 H11        15.7470   -1.2910  -12.3880 hc        1 OHA      0.031367
     47 H12        17.3650   -0.9200  -11.6620 hc        1 OHA      0.031367
     48 H13        16.2170    0.4250  -12.0560 hc        1 OHA      0.031367
@<TRIPOS>BOND
     1    1    2 1   
     2    2    3 1   
     3    2    4 1   
     4    4    5 1   
     5    4   20 1   
     6    4   21 1   
     7    5    6 1   
     8    5   22 1   
     9    5   23 1   
    10    6    7 1   
    11    6   24 1   
    12    6   25 1   
    13    7    8 1   
    14    7   26 1   
    15    7   27 1   
    16    8    9 1   
    17    8   28 1   
    18    8   29 1   
    19    9   10 1   
    20    9   30 1   
    21    9   31 1   
    22   10   11 1   
    23   10   32 1   
    24   10   33 1   
    25   11   12 1   
    26   11   34 1   
    27   11   35 1   
    28   12   13 2   
    29   12   14 1   
    30   14   15 1   
    31   14   36 1   
    32   14   37 1   
    33   15   16 1   
    34   15   38 1   
    35   15   39 1   
    36   16   17 1   
    37   16   40 1   
    38   16   41 1   
    39   17   18 1   
    40   17   42 1   
    41   17   43 1   
    42   18   19 1   
    43   18   44 1   
    44   18   45 1   
    45   19   46 1   
    46   19   47 1   
    47   19   48 1   
@<TRIPOS>SUBSTRUCTURE
     1 OHA         1 TEMP              0 ****  ****    0 ROOT
