@<TRIPOS>MOLECULE
OHA
   48    47     1     0     0
SMALL
bcc


@<TRIPOS>ATOM
      1 O2         -7.3720  -11.4180   -9.2290 o         1 OHA     -0.853300
      2 C16        -6.8200  -11.5820   -8.1030 c         1 OHA      0.907600
      3 O3         -7.3190  -12.2790   -7.1710 o         1 OHA     -0.853300
      4 C15        -5.4540  -10.9130   -7.8710 c3        1 OHA     -0.194400
      5 C14        -5.3990  -10.2360   -6.5240 c3        1 OHA     -0.065400
      6 C13        -4.0050   -9.7430   -6.1930 c3        1 OHA     -0.078400
      7 C12        -3.9670   -9.0620   -4.8420 c3        1 OHA     -0.079400
      8 C11        -2.5720   -8.5900   -4.4930 c3        1 OHA     -0.078400
      9 C10        -2.5420   -7.9310   -3.1310 c3        1 OHA     -0.079400
     10 C9         -1.1460   -7.4740   -2.7670 c3        1 OHA     -0.074400
     11 C8         -1.1210   -6.8620   -1.3830 c3        1 OHA     -0.181400
     12 C7          0.2320   -6.3320   -1.0020 c         1 OHA      0.565100
     13 O1          1.0640   -5.9470   -1.8280 o         1 OHA     -0.533100
     14 C6          0.4860   -6.2990    0.4800 c3        1 OHA     -0.184400
     15 C5          1.7040   -5.4820    0.8470 c3        1 OHA     -0.075400
     16 C4          1.9610   -5.5200    2.3380 c3        1 OHA     -0.078400
     17 C3          3.1750   -4.6940    2.7050 c3        1 OHA     -0.079400
     18 C2          3.4370   -4.7320    4.1960 c3        1 OHA     -0.080400
     19 C1          4.6440   -3.9100    4.5660 c3        1 OHA     -0.092100
     20 H151       -4.6690  -11.7080   -7.9320 hc        1 OHA      0.019200
     21 H152       -5.2590  -10.1740   -8.6880 hc        1 OHA      0.019200
     22 H141       -6.1130   -9.3710   -6.5100 hc        1 OHA      0.043700
     23 H142       -5.7460  -10.9630   -5.7420 hc        1 OHA      0.043700
     24 H131       -3.6600   -9.0260   -6.9840 hc        1 OHA      0.026700
     25 H132       -3.2910  -10.6070   -6.1980 hc        1 OHA      0.026700
     26 H121       -4.6700   -8.1880   -4.8430 hc        1 OHA      0.035700
     27 H122       -4.3300   -9.7760   -4.0560 hc        1 OHA      0.035700
     28 H111       -2.2130   -7.8650   -5.2700 hc        1 OHA      0.036700
     29 H112       -1.8660   -9.4620   -4.5040 hc        1 OHA      0.036700
     30 H101       -3.2390   -7.0520   -3.1250 hc        1 OHA      0.036200
     31 H102       -2.9150   -8.6530   -2.3580 hc        1 OHA      0.036200
     32 H91        -0.7780   -6.7220   -3.5140 hc        1 OHA      0.051700
     33 H92        -0.4390   -8.3440   -2.8030 hc        1 OHA      0.051700
     34 H81        -1.4520   -7.6210   -0.6260 hc        1 OHA      0.062200
     35 H82        -1.8460   -6.0040   -1.3360 hc        1 OHA      0.062200
     36 H61         0.6180   -7.3590    0.8300 hc        1 OHA      0.063200
     37 H62        -0.4220   -5.8880    0.9940 hc        1 OHA      0.063200
     38 H51         1.5560   -4.4210    0.5120 hc        1 OHA      0.053700
     39 H52         2.5970   -5.8760    0.2920 hc        1 OHA      0.053700
     40 H41         1.0620   -5.1320    2.8860 hc        1 OHA      0.037200
     41 H42         2.1160   -6.5820    2.6670 hc        1 OHA      0.037200
     42 H31         4.0730   -5.0810    2.1550 hc        1 OHA      0.041700
     43 H32         3.0200   -3.6320    2.3770 hc        1 OHA      0.041700
     44 H21         2.5370   -4.3460    4.7430 hc        1 OHA      0.037200
     45 H22         3.5910   -5.7950    4.5210 hc        1 OHA      0.037200
     46 H11         4.8200   -3.9510    5.6680 hc        1 OHA      0.031367
     47 H12         4.5000   -2.8420    4.2710 hc        1 OHA      0.031367
     48 H13         5.5570   -4.2940    4.0480 hc        1 OHA      0.031367
@<TRIPOS>BOND
     1    1    2 1   
     2    2    3 1   
     3    2    4 1   
     4    4    5 1   
     5    4   20 1   
     6    4   21 1   
     7    5    6 1   
     8    5   22 1   
     9    5   23 1   
    10    6    7 1   
    11    6   24 1   
    12    6   25 1   
    13    7    8 1   
    14    7   26 1   
    15    7   27 1   
    16    8    9 1   
    17    8   28 1   
    18    8   29 1   
    19    9   10 1   
    20    9   30 1   
    21    9   31 1   
    22   10   11 1   
    23   10   32 1   
    24   10   33 1   
    25   11   12 1   
    26   11   34 1   
    27   11   35 1   
    28   12   13 2   
    29   12   14 1   
    30   14   15 1   
    31   14   36 1   
    32   14   37 1   
    33   15   16 1   
    34   15   38 1   
    35   15   39 1   
    36   16   17 1   
    37   16   40 1   
    38   16   41 1   
    39   17   18 1   
    40   17   42 1   
    41   17   43 1   
    42   18   19 1   
    43   18   44 1   
    44   18   45 1   
    45   19   46 1   
    46   19   47 1   
    47   19   48 1   
@<TRIPOS>SUBSTRUCTURE
     1 OHA         1 TEMP              0 ****  ****    0 ROOT
