@<TRIPOS>MOLECULE
OHA
   48    47     1     0     0
SMALL
bcc


@<TRIPOS>ATOM
      1 O2         -6.3540    5.2290    5.4220 o         1 OHA     -0.853300
      2 C16        -5.2610    4.9260    5.9690 c         1 OHA      0.907600
      3 O3         -5.2150    4.7180    7.2100 o         1 OHA     -0.853300
      4 C15        -4.0030    4.8180    5.1370 c3        1 OHA     -0.194400
      5 C14        -3.8400    3.3950    4.6510 c3        1 OHA     -0.065400
      6 C13        -2.5620    3.2780    3.8500 c3        1 OHA     -0.078400
      7 C12        -2.4170    1.8630    3.3350 c3        1 OHA     -0.079400
      8 C11        -1.1880    1.7690    2.4570 c3        1 OHA     -0.078400
      9 C10        -1.1260    0.3970    1.8220 c3        1 OHA     -0.079400
     10 C9          0.0450    0.3370    0.8660 c3        1 OHA     -0.074400
     11 C8          0.0650   -1.0100    0.1780 c3        1 OHA     -0.181400
     12 C7          1.2500   -1.0790   -0.7610 c         1 OHA      0.565100
     13 O1          2.0330   -0.1520   -0.8200 o         1 OHA     -0.533100
     14 C6          1.4610   -2.3040   -1.6240 c3        1 OHA     -0.184400
     15 C5          2.4100   -1.9680   -2.7530 c3        1 OHA     -0.075400
     16 C4          2.5410   -3.1610   -3.6730 c3        1 OHA     -0.078400
     17 C3          3.4860   -2.8220   -4.8060 c3        1 OHA     -0.079400
     18 C2          3.5910   -4.0040   -5.7450 c3        1 OHA     -0.080400
     19 C1          4.4940   -3.6470   -6.9050 c3        1 OHA     -0.092100
     20 H151       -4.0680    5.4200    4.3680 hc        1 OHA      0.018700
     21 H152       -3.2290    5.0670    5.6810 hc        1 OHA      0.018700
     22 H141       -3.8000    2.7910    5.4190 hc        1 OHA      0.043700
     23 H142       -4.6020    3.1540    4.0860 hc        1 OHA      0.043700
     24 H131       -2.5930    3.8980    3.0950 hc        1 OHA      0.026700
     25 H132       -1.7980    3.4970    4.4210 hc        1 OHA      0.026700
     26 H121       -2.3260    1.2480    4.0910 hc        1 OHA      0.035700
     27 H122       -3.2090    1.6230    2.8140 hc        1 OHA      0.035700
     28 H111       -0.3880    1.9130    3.0010 hc        1 OHA      0.037200
     29 H112       -1.2350    2.4500    1.7570 hc        1 OHA      0.037200
     30 H101       -1.0130   -0.2800    2.5190 hc        1 OHA      0.036200
     31 H102       -1.9560    0.2260    1.3330 hc        1 OHA      0.036200
     32 H91         0.8780    0.4630    1.3620 hc        1 OHA      0.052200
     33 H92        -0.0450    1.0440    0.1960 hc        1 OHA      0.052200
     34 H81        -0.7610   -1.1300   -0.3300 hc        1 OHA      0.062700
     35 H82         0.1400   -1.7180    0.8500 hc        1 OHA      0.062700
     36 H61         1.8410   -3.0230   -1.0810 hc        1 OHA      0.062200
     37 H62         0.6030   -2.5930   -1.9940 hc        1 OHA      0.062200
     38 H51         3.2880   -1.7420   -2.3840 hc        1 OHA      0.053700
     39 H52         2.0610   -1.2050   -3.2560 hc        1 OHA      0.053700
     40 H41         2.8940   -3.9230   -3.1710 hc        1 OHA      0.037200
     41 H42         1.6630   -3.3890   -4.0380 hc        1 OHA      0.037200
     42 H31         4.3700   -2.6150   -4.4430 hc        1 OHA      0.041700
     43 H32         3.1440   -2.0470   -5.2950 hc        1 OHA      0.041700
     44 H21         2.7020   -4.2330   -6.0820 hc        1 OHA      0.037700
     45 H22         3.9650   -4.7700   -5.2640 hc        1 OHA      0.037700
     46 H11         4.1090   -2.8930   -7.3980 hc        1 OHA      0.031700
     47 H12         4.5780   -4.4190   -7.5030 hc        1 OHA      0.031700
     48 H13         5.3790   -3.3990   -6.5660 hc        1 OHA      0.031700
@<TRIPOS>BOND
     1    1    2 1   
     2    2    3 1   
     3    2    4 1   
     4    4    5 1   
     5    4   20 1   
     6    4   21 1   
     7    5    6 1   
     8    5   22 1   
     9    5   23 1   
    10    6    7 1   
    11    6   24 1   
    12    6   25 1   
    13    7    8 1   
    14    7   26 1   
    15    7   27 1   
    16    8    9 1   
    17    8   28 1   
    18    8   29 1   
    19    9   10 1   
    20    9   30 1   
    21    9   31 1   
    22   10   11 1   
    23   10   32 1   
    24   10   33 1   
    25   11   12 1   
    26   11   34 1   
    27   11   35 1   
    28   12   13 2   
    29   12   14 1   
    30   14   15 1   
    31   14   36 1   
    32   14   37 1   
    33   15   16 1   
    34   15   38 1   
    35   15   39 1   
    36   16   17 1   
    37   16   40 1   
    38   16   41 1   
    39   17   18 1   
    40   17   42 1   
    41   17   43 1   
    42   18   19 1   
    43   18   44 1   
    44   18   45 1   
    45   19   46 1   
    46   19   47 1   
    47   19   48 1   
@<TRIPOS>SUBSTRUCTURE
     1 OHA         1 TEMP              0 ****  ****    0 ROOT
