@<TRIPOS>MOLECULE
OHB
   17    17     1     0     0
SMALL
bcc


@<TRIPOS>ATOM
      1 O          -2.2380   -0.7260   -0.8080 o         1 OHB     -0.644100
      2 C          -1.6270    0.2380   -0.2860 c         1 OHB      0.682700
      3 N          -2.3500    1.2940    0.2070 n         1 OHB     -0.664000
      4 C1         -0.1470    0.2610   -0.1710 ca        1 OHB     -0.234600
      5 C6          0.5780   -0.9390   -0.0360 ca        1 OHB      0.200100
      6 O1          0.0240   -2.1870    0.0070 oh        1 OHB     -0.503100
      7 C5          1.9840   -0.9110    0.0970 ca        1 OHB     -0.174000
      8 C4          2.6530    0.3010    0.0640 ca        1 OHB     -0.072000
      9 C3          1.9440    1.4960   -0.1030 ca        1 OHB     -0.179000
     10 C2          0.5610    1.4730   -0.2200 ca        1 OHB     -0.068000
     11 H1         -3.3370    1.2790    0.1370 hn        1 OHB      0.316500
     12 H2         -1.9110    2.0460    0.6690 hn        1 OHB      0.316500
     13 H3         -0.9170   -2.1430   -0.2390 ho        1 OHB      0.462000
     14 H4          2.5220   -1.8620    0.2170 ha        1 OHB      0.156000
     15 H5          3.7490    0.3250    0.1630 ha        1 OHB      0.138000
     16 H6          2.4840    2.4530   -0.1460 ha        1 OHB      0.138000
     17 H7          0.0230    2.4210   -0.3710 ha        1 OHB      0.131000
@<TRIPOS>BOND
     1    1    2 2   
     2    2    3 1   
     3    2    4 1   
     4    3   11 1   
     5    3   12 1   
     6    4    5 ar  
     7    4   10 ar  
     8    5    6 1   
     9    5    7 ar  
    10    6   13 1   
    11    7    8 ar  
    12    7   14 1   
    13    8    9 ar  
    14    8   15 1   
    15    9   10 ar  
    16    9   16 1   
    17   10   17 1   
@<TRIPOS>SUBSTRUCTURE
     1 OHB         1 TEMP              0 ****  ****    0 ROOT
