@<TRIPOS>MOLECULE
OHB
   17    14     1     0     0
SMALL
bcc


@<TRIPOS>ATOM
      1 O          -2.2420   -0.3210    1.6170 o         1 OHB     -0.381000
      2 C          -1.1230    0.1480    1.5560 c1        1 OHB      0.350000
      3 N          -0.5390    0.7410    2.7050 n2        1 OHB     -0.411000
      4 C1         -0.3610    0.1190    0.2500 c2        1 OHB     -0.145000
      5 C6          0.4160   -0.9830   -0.0750 c1        1 OHB      0.107000
      6 O1          0.5090   -2.0650    0.8190 o         1 OHB     -0.267000
      7 C5          1.0760   -1.0300   -1.2930 c2        1 OHB     -0.222000
      8 C4          0.9600    0.0230   -2.1860 c1        1 OHB     -0.071000
      9 C3          0.1830    1.1240   -1.8610 c1        1 OHB     -0.172000
     10 C2         -0.4770    1.1720   -0.6440 c2        1 OHB     -0.046000
     11 H1         -0.7970    0.4710    3.5390 hn        1 OHB      0.226000
     12 H2          0.0840    1.4030    2.6110 hn        1 OHB      0.226000
     13 H3          0.1850   -2.7970    0.4320 ho        1 OHB      0.229000
     14 H4          1.6230   -1.8060   -1.5210 ha        1 OHB      0.137000
     15 H5          1.4250   -0.0110   -3.0430 ha        1 OHB      0.137000
     16 H6          0.1010    1.8660   -2.4910 ha        1 OHB      0.142000
     17 H7         -1.0240    1.9480   -0.4150 ha        1 OHB      0.162000
@<TRIPOS>BOND
     1    1    2 1   
     2    2    4 1   
     3    3   11 1   
     4    3   12 1   
     5    4    5 1   
     6    4   10 1   
     7    5    7 1   
     8    6   13 1   
     9    7    8 1   
    10    7   14 1   
    11    8   15 1   
    12    9   10 1   
    13    9   16 1   
    14   10   17 1   
@<TRIPOS>SUBSTRUCTURE
     1 OHB         1 TEMP              0 ****  ****    0 ROOT
