@<TRIPOS>MOLECULE
OHB
   18    18     1     0     0
SMALL
bcc


@<TRIPOS>ATOM
      1 O           0.1450   -0.8820    0.2180 o         1 OHB     -0.376100
      2 C           1.1770   -0.2930   -0.0400 c         1 OHB      0.602700
      3 N           1.7470    0.5120    1.1330 n4        1 OHB     -0.771400
      4 C1          1.9680   -0.1940   -1.2590 ca        1 OHB     -0.260600
      5 C6          1.3420    0.2250   -2.4520 ca        1 OHB      0.217100
      6 O1          0.0430    0.6310   -2.3480 oh        1 OHB     -0.492100
      7 C5          2.0640    0.2460   -3.6600 ca        1 OHB     -0.204000
      8 C4          3.3950   -0.1440   -3.6670 ca        1 OHB     -0.016000
      9 C3          4.0260   -0.5540   -2.4810 ca        1 OHB     -0.146000
     10 C2          3.3220   -0.5780   -1.2880 ca        1 OHB     -0.063000
     11 H1          1.6730    1.5100    0.9180 hn        1 OHB      0.464133
     12 H2          2.7330    0.2800    1.2720 hn        1 OHB      0.464133
     13 H3         -0.3100    0.8060   -3.2380 ho        1 OHB      0.464000
     14 H4          1.5650    0.5660   -4.5890 ha        1 OHB      0.172000
     15 H5          3.9650   -0.1360   -4.6130 ha        1 OHB      0.173000
     16 H6          5.0830   -0.8660   -2.5060 ha        1 OHB      0.172000
     17 H7          3.8170   -0.9330   -0.3710 ha        1 OHB      0.138000
     18 HN3         1.2220    0.3140    1.9920 hn        1 OHB      0.464133
@<TRIPOS>BOND
     1    1    2 2   
     2    2    3 1   
     3    2    4 1   
     4    3   11 1   
     5    3   12 1   
     6    3   18 1   
     7    4    5 ar  
     8    4   10 ar  
     9    5    6 1   
    10    5    7 ar  
    11    6   13 1   
    12    7    8 ar  
    13    7   14 1   
    14    8    9 ar  
    15    8   15 1   
    16    9   10 ar  
    17    9   16 1   
    18   10   17 1   
@<TRIPOS>SUBSTRUCTURE
     1 OHB         1 TEMP              0 ****  ****    0 ROOT
