@<TRIPOS>MOLECULE
OHB
   18    18     1     0     0
SMALL
bcc


@<TRIPOS>ATOM
      1 O           0.1600   -0.9020    0.2240 o         1 OHB     -0.376100
      2 C           1.1850   -0.3030   -0.0370 c         1 OHB      0.602700
      3 N           1.7510    0.5080    1.1340 nz        1 OHB     -0.771400
      4 C1          1.9710   -0.1970   -1.2590 ca        1 OHB     -0.260600
      5 C6          1.3370    0.2180   -2.4500 ca        1 OHB      0.216100
      6 O1          0.0350    0.6140   -2.3410 oh        1 OHB     -0.492100
      7 C5          2.0550    0.2460   -3.6600 ca        1 OHB     -0.204000
      8 C4          3.3890   -0.1340   -3.6720 ca        1 OHB     -0.016000
      9 C3          4.0270   -0.5390   -2.4880 ca        1 OHB     -0.146000
     10 C2          3.3280   -0.5700   -1.2930 ca        1 OHB     -0.063000
     11 H1          1.2320    0.3050    1.9950 hn        1 OHB      0.464133
     12 H2          1.6660    1.5060    0.9190 hn        1 OHB      0.464133
     13 H3         -0.3220    0.7860   -3.2290 ho        1 OHB      0.464000
     14 H4          1.5500    0.5620   -4.5870 ha        1 OHB      0.172000
     15 H5          3.9560   -0.1200   -4.6190 ha        1 OHB      0.173000
     16 H6          5.0870   -0.8420   -2.5160 ha        1 OHB      0.172000
     17 H7          3.8290   -0.9210   -0.3770 ha        1 OHB      0.139000
     18 HN3         2.7400    0.2850    1.2690 hn        1 OHB      0.464133
@<TRIPOS>BOND
     1    1    2 2   
     2    2    3 1   
     3    2    4 1   
     4    3   11 1   
     5    3   12 1   
     6    3   18 1   
     7    4    5 ar  
     8    4   10 ar  
     9    5    6 1   
    10    5    7 ar  
    11    6   13 1   
    12    7    8 ar  
    13    7   14 1   
    14    8    9 ar  
    15    8   15 1   
    16    9   10 ar  
    17    9   16 1   
    18   10   17 1   
@<TRIPOS>SUBSTRUCTURE
     1 OHB         1 TEMP              0 ****  ****    0 ROOT
