@<TRIPOS>MOLECULE
OHB
   18    18     1     0     0
SMALL
bcc


@<TRIPOS>ATOM
      1 O           0.2750   -1.1310    0.2160 o         1 OHB     -0.376100
      2 C           1.2400   -0.4360   -0.0370 c         1 OHB      0.602700
      3 N           1.7500    0.3820    1.1530 n4        1 OHB     -0.771400
      4 C1          1.9950   -0.2210   -1.2640 ca        1 OHB     -0.260600
      5 C6          1.3100    0.1770   -2.4320 ca        1 OHB      0.216100
      6 O1         -0.0200    0.4540   -2.2940 oh        1 OHB     -0.492100
      7 C5          2.0040    0.3070   -3.6500 ca        1 OHB     -0.204000
      8 C4          3.3650    0.0460   -3.6910 ca        1 OHB     -0.016000
      9 C3          4.0550   -0.3420   -2.5290 ca        1 OHB     -0.146000
     10 C2          3.3790   -0.4730   -1.3280 ca        1 OHB     -0.063000
     11 H1          1.2640    0.1060    2.0130 hn        1 OHB      0.464133
     12 H2          1.5740    1.3750    0.9740 hn        1 OHB      0.464133
     13 H3         -0.4040    0.6250   -3.1710 ho        1 OHB      0.464000
     14 H4          1.4600    0.6100   -4.5590 ha        1 OHB      0.172000
     15 H5          3.9150    0.1400   -4.6440 ha        1 OHB      0.173000
     16 H6          5.1360   -0.5500   -2.5810 ha        1 OHB      0.172000
     17 H7          3.9220   -0.8100   -0.4310 ha        1 OHB      0.139000
     18 HN3         2.7570    0.2440    1.2680 hn        1 OHB      0.464133
@<TRIPOS>BOND
     1    1    2 2   
     2    2    3 1   
     3    2    4 1   
     4    3   11 1   
     5    3   12 1   
     6    3   18 1   
     7    4    5 ar  
     8    4   10 ar  
     9    5    6 1   
    10    5    7 ar  
    11    6   13 1   
    12    7    8 ar  
    13    7   14 1   
    14    8    9 ar  
    15    8   15 1   
    16    9   10 ar  
    17    9   16 1   
    18   10   17 1   
@<TRIPOS>SUBSTRUCTURE
     1 OHB         1 TEMP              0 ****  ****    0 ROOT
