@<TRIPOS>MOLECULE
OHE
    9     8     1     0     0
SMALL
bcc


@<TRIPOS>ATOM
      1 C1         -1.0070    0.0000   -0.1930 c3        1 OHE     -0.097100
      2 C2          0.5050    0.0000   -0.1930 c3        1 OHE      0.131400
      3 O           0.9760    0.0000    1.1370 oh        1 OHE     -0.602800
      4 H11        -1.3330    0.0000   -1.1140 hc        1 OHE      0.044367
      5 H12        -1.3330   -0.7970    0.2670 hc        1 OHE      0.044367
      6 H13        -1.3330    0.7970    0.2670 hc        1 OHE      0.044367
      7 H21         0.8310    0.7970   -0.6530 h1        1 OHE      0.018700
      8 H22         0.8310   -0.7970   -0.6530 h1        1 OHE      0.018700
      9 HO          1.8630    0.0000    1.1370 ho        1 OHE      0.398000
@<TRIPOS>BOND
     1    1    2 1   
     2    1    4 1   
     3    1    5 1   
     4    1    6 1   
     5    2    3 1   
     6    2    7 1   
     7    2    8 1   
     8    3    9 1   
@<TRIPOS>SUBSTRUCTURE
     1 OHE         1 TEMP              0 ****  ****    0 ROOT
