@<TRIPOS>MOLECULE
OHE
    9     8     1     0     0
SMALL
bcc


@<TRIPOS>ATOM
      1 C1          1.2640   -0.2450   -0.0000 c3        1 OHE     -0.097100
      2 C2         -0.0050    0.5760   -0.0000 c3        1 OHE      0.131400
      3 O          -1.0960   -0.3330   -0.0000 oh        1 OHE     -0.602800
      4 H11         1.3030   -0.8970    0.9040 hc        1 OHE      0.044367
      5 H12         1.3030   -0.8970   -0.9040 hc        1 OHE      0.044367
      6 H13         2.1480    0.4360    0.0000 hc        1 OHE      0.044367
      7 H21        -0.0560    1.2300    0.9130 h1        1 OHE      0.018700
      8 H22        -0.0560    1.2300   -0.9130 h1        1 OHE      0.018700
      9 HO         -1.8990    0.2000    0.0000 ho        1 OHE      0.398000
@<TRIPOS>BOND
     1    1    2 1   
     2    1    4 1   
     3    1    5 1   
     4    1    6 1   
     5    2    3 1   
     6    2    7 1   
     7    2    8 1   
     8    3    9 1   
@<TRIPOS>SUBSTRUCTURE
     1 OHE         1 TEMP              0 ****  ****    0 ROOT
