@<TRIPOS>MOLECULE
OHH
   82    82     1     0     0
SMALL
bcc


@<TRIPOS>ATOM
      1 O6          0.9610   -0.2860   -0.4220 o         1 OHH     -0.514000
      2 P1         -0.6790    2.0890   -2.5240 p3        1 OHH      2.478000
      3 O1         -1.1090    1.1490   -3.5370 o         1 OHH     -1.004500
      4 O3         -1.4000    2.8650   -1.5390 o         1 OHH     -1.004500
      5 O2          0.8190    2.5750   -2.7020 os        1 OHH     -0.714000
      6 C9          2.4920    6.3190   -7.6270 cy        1 OHH     -0.149000
      7 O4          1.6160    4.5090   -6.0730 o         1 OHH     -0.346000
      8 C17         7.1780    8.9480   -5.7810 c3        1 OHH     -0.224000
      9 C16         7.2840    9.6180   -7.0610 c1        1 OHH     -0.087000
     10 C15         7.3220    8.6580   -3.1560 c1        1 OHH      0.095000
     11 C14         6.7550    7.4830   -3.3340 c2        1 OHH     -0.403000
     12 C4B         6.3700    6.9060   -4.6230 c2        1 OHH     -0.010000
     13 C8B         6.5820    7.5930   -5.7630 c2        1 OHH     -0.201000
     14 C18         4.0210    6.3990   -7.3000 cv        1 OHH      0.139000
     15 C11         3.9110    5.5510   -6.1960 cv        1 OHH     -0.300000
     16 C12         4.7640    5.0180   -5.1940 c2        1 OHH      0.038000
     17 C13         5.8110    5.5700   -4.5430 c2        1 OHH     -0.168000
     18 O5          4.9320    2.6260   -5.4080 o         1 OHH     -0.377000
     19 C1          1.5590    5.3040  -11.1770 c2        1 OHH     -0.383000
     20 C2          0.7920    4.9070  -12.1590 c1        1 OHH      0.087000
     21 C3          1.1540    5.4040   -9.7170 c3        1 OHH     -0.027000
     22 C4          2.3720    5.9480   -9.0430 c2        1 OHH     -0.156000
     23 C4A         3.4000    6.1530   -9.9270 c2        1 OHH     -0.068000
     24 C8A         3.0030    5.7480  -11.3150 c3        1 OHH     -0.040000
     25 C8         -1.0110    4.1950  -14.8450 c1        1 OHH     -0.231250
     26 C7         -1.6290    3.9850  -15.8470 c1        1 OHH     -0.231250
     27 C6          4.8930    6.9230   -8.2310 c1        1 OHH     -0.376000
     28 C5          4.6420    6.7990   -9.5460 c2        1 OHH     -0.151000
     29 N1          3.6260    3.4010   -3.6770 n         1 OHH     -0.309000
     30 C20         2.9480    4.5240   -3.0880 c3        1 OHH     -0.084000
     31 C24        -0.1270   -3.1790    0.9480 c1        1 OHH     -0.294000
     32 N2          0.7570   -2.4490    0.3830 n2        1 OHH     -0.354000
     33 C23         4.7970    1.2940   -1.7240 c3        1 OHH     -0.204000
     34 C22         3.3420    1.5940   -1.9690 c3        1 OHH     -0.175000
     35 C21         3.0870    2.0770   -3.4050 c3        1 OHH      0.022000
     36 C25         1.5810    1.9550   -3.7240 c3        1 OHH     -0.013000
     37 C26         1.0890   -1.1400    0.5050 c2        1 OHH      0.316000
     38 C29         3.6190    0.7010    2.6660 ca        1 OHH     -0.151000
     39 C28         2.8730    0.2870    1.5630 ca        1 OHH     -0.098000
     40 C27         1.9260   -0.7330    1.6980 ca        1 OHH     -0.080000
     41 C34         1.7210   -1.3290    2.9460 ca        1 OHH     -0.095000
     42 C8C         2.4660   -0.9100    4.0590 ca        1 OHH     -0.041000
     43 C4C         3.4220    0.1070    3.9090 ca        1 OHH     -0.155000
     44 C30         5.7890   -2.1300    5.3540 c1        1 OHH     -0.231250
     45 C31         6.7380   -2.4840    5.9900 c1        1 OHH     -0.231250
     46 C32         1.3480   -2.3850    5.7340 c1        1 OHH      0.174000
     47 C33         2.2630   -1.5130    5.3630 c2        1 OHH     -0.423000
     48 H9          1.8720    7.2090   -7.3770 hc        1 OHH      0.110000
     49 H17         6.5700    9.6560   -5.1270 hc        1 OHH      0.145500
     50 H16         8.2140    8.9310   -5.3180 hc        1 OHH      0.145500
     51 H15         6.8320    9.1060   -7.9260 ha        1 OHH      0.076000
     52 H14         6.5240    6.8590   -2.4460 ha        1 OHH      0.186000
     53 H18         6.2890    7.1750   -6.7550 ha        1 OHH      0.223000
     54 H13         6.3290    4.9350   -3.7960 ha        1 OHH      0.114000
     55 H1          3.6390    4.9040  -11.6840 hc        1 OHH      0.091000
     56 H2          0.8830    4.3950   -9.3130 hc        1 OHH      0.097000
     57 H3          0.2750    6.0860   -9.5960 hc        1 OHH      0.097000
     58 H8         -0.4560    4.3830  -13.9460 ha        1 OHH      0.228000
     59 H7          3.0890    6.6040  -12.0300 hc        1 OHH      0.091000
     60 H6         -2.1780    3.7980  -16.7330 ha        1 OHH      0.228000
     61 H5          5.2910    7.1930  -10.3340 ha        1 OHH      0.106000
     62 H201        2.4740    4.2110   -2.1210 h1        1 OHH      0.084667
     63 H202        2.1420    4.9110   -3.7710 h1        1 OHH      0.084667
     64 H203        3.6860    5.3470   -2.8930 h1        1 OHH      0.084667
     65 H241       -0.0400   -4.2560    0.6550 ha        1 OHH     -0.008000
     66 H242        1.3380    2.4690   -4.6960 h1        1 OHH      0.109500
     67 H231        5.1730    0.5390   -2.4560 hc        1 OHH      0.067000
     68 H232        1.2970    0.8680   -3.7760 h1        1 OHH      0.109500
     69 H221        4.9320    0.8830   -0.6930 hc        1 OHH      0.067000
     70 H222        5.4200    2.2150   -1.8220 hc        1 OHH      0.067000
     71 H21         2.9770    2.3570   -1.2330 hc        1 OHH      0.107000
     72 H251        2.7260    0.6670   -1.8000 hc        1 OHH      0.107000
     73 H252        3.6060    1.3520   -4.1090 h1        1 OHH      0.129000
     74 H29         4.3650    1.5010    2.5550 ha        1 OHH      0.117000
     75 H28         3.0080    0.7600    0.5750 ha        1 OHH      0.157000
     76 H34         0.9600   -2.1230    3.0480 ha        1 OHH      0.169000
     77 H30         4.9430   -1.8160    4.7830 ha        1 OHH      0.228000
     78 H31         4.0080    0.4420    4.7770 ha        1 OHH      0.107000
     79 H32         7.5800   -2.7990    6.5500 ha        1 OHH      0.228000
     80 H33         2.9770   -1.1830    6.1510 ha        1 OHH      0.175000
     81 C19         4.4340    3.5930   -4.7970 c2        1 OHH      0.333000
     82 C10         2.4850    5.2730   -6.4820 cv        1 OHH      0.291000
@<TRIPOS>BOND
     1    1   37 1   
     2    2    3 1   
     3    2    4 1   
     4    2    5 1   
     5    5   36 1   
     6    6   14 1   
     7    6   22 1   
     8    6   48 1   
     9    6   82 1   
    10    7   82 1   
    11    8    9 1   
    12    8   13 1   
    13    8   49 1   
    14    8   50 1   
    15    9   51 1   
    16   10   11 1   
    17   11   12 1   
    18   11   52 1   
    19   12   13 1   
    20   12   17 1   
    21   13   53 1   
    22   14   15 1   
    23   14   27 1   
    24   15   16 1   
    25   15   82 1   
    26   16   17 1   
    27   16   81 1   
    28   17   54 1   
    29   18   81 1   
    30   19   20 1   
    31   19   21 1   
    32   19   24 1   
    33   21   22 1   
    34   21   56 1   
    35   21   57 1   
    36   22   23 1   
    37   23   24 1   
    38   23   28 1   
    39   24   55 1   
    40   24   59 1   
    41   25   26 1   
    42   25   58 1   
    43   26   60 1   
    44   27   28 1   
    45   28   61 1   
    46   29   30 1   
    47   29   35 1   
    48   29   81 1   
    49   30   62 1   
    50   30   63 1   
    51   30   64 1   
    52   31   32 1   
    53   31   65 1   
    54   32   37 1   
    55   33   34 1   
    56   33   67 1   
    57   33   69 1   
    58   33   70 1   
    59   34   35 1   
    60   34   71 1   
    61   34   72 1   
    62   35   36 1   
    63   35   73 1   
    64   36   66 1   
    65   36   68 1   
    66   37   40 1   
    67   38   39 1   
    68   38   43 1   
    69   38   74 1   
    70   39   40 1   
    71   39   75 1   
    72   40   41 1   
    73   41   42 1   
    74   41   76 1   
    75   42   43 1   
    76   42   47 1   
    77   43   78 1   
    78   44   45 1   
    79   44   77 1   
    80   45   79 1   
    81   46   47 1   
    82   47   80 1   
@<TRIPOS>SUBSTRUCTURE
     1 OHH         1 TEMP              0 ****  ****    0 ROOT
