@<TRIPOS>MOLECULE
OHH
   82    87     1     0     0
SMALL
bcc


@<TRIPOS>ATOM
      1 O6        -44.2910  -93.7030   10.2870 o         1 OHH     -0.362000
      2 P1        812.6800    0.7080 -125.9600 p3        1 OHH      2.361000
      3 O1        813.6780    0.4940 -126.7070 o         1 OHH     -1.120000
      4 O3        811.2700    0.7090 -126.3890 o         1 OHH     -1.120000
      5 O2        813.0920    0.9190 -124.7850 o         1 OHH     -1.120000
      6 C9        -40.5060 -100.8640    6.6410 c2        1 OHH     -0.463000
      7 O4        -42.0110  -98.9950    6.7860 o         1 OHH     -0.478000
      8 C17       -41.0900 -101.3110    1.4390 ca        1 OHH     -0.113000
      9 C16       -40.9120 -101.0680    0.1010 ca        1 OHH     -0.142000
     10 C15       -40.5890  -99.7650   -0.3530 ca        1 OHH     -0.147000
     11 C14       -40.4530  -98.7340    0.5420 ca        1 OHH     -0.114000
     12 C4B       -40.6330  -98.9580    1.9350 ca        1 OHH     -0.050000
     13 C8B       -40.9550 -100.2620    2.3910 ca        1 OHH     -0.031000
     14 C18       -41.1300 -100.4860    3.7810 ca        1 OHH     -0.119000
     15 C11       -41.0020  -99.4620    4.6980 ca        1 OHH     -0.048000
     16 C12       -40.6870  -98.1560    4.2290 ca        1 OHH     -0.069000
     17 C13       -40.5000  -97.9130    2.8850 ca        1 OHH     -0.113000
     18 O5        -39.3560  -96.7360    5.6160 o         1 OHH     -0.361000
     19 C1        -40.7150 -102.4980   10.5770 ca        1 OHH     -0.254000
     20 C2        -41.4670 -101.3950   10.2200 ca        1 OHH     -0.070000
     21 C3        -41.3910 -100.8530    8.9380 ca        1 OHH     -0.246000
     22 C4        -40.5530 -101.3960    7.9470 ca        1 OHH      0.137000
     23 C4A       -39.7460 -102.5400    8.3140 ca        1 OHH     -0.088000
     24 C8A       -39.8460 -103.0810    9.6290 ca        1 OHH      0.008000
     25 C8        -39.0580 -104.2150    9.9810 ca        1 OHH     -0.154000
     26 C7        -38.2000 -104.7890    9.0790 ca        1 OHH     -0.134000
     27 C6        -38.0880 -104.2510    7.7780 ca        1 OHH     -0.200000
     28 C5        -38.8410 -103.1580    7.4140 ca        1 OHH     -0.077000
     29 N1        -41.6020  -96.2370    5.5190 n         1 OHH     -0.295000
     30 C20       -42.9110  -96.6560    5.0860 c3        1 OHH     -0.099000
     31 C24       -42.2450  -95.1830    9.1460 c3        1 OHH     -0.036500
     32 N2        -42.4080  -93.7490    8.9640 n         1 OHH     -0.307000
     33 C23       -41.6900  -93.2070    7.8310 c3        1 OHH     -0.036500
     34 C22       -41.8880  -93.9810    6.5260 c3        1 OHH     -0.198000
     35 C21       -41.5430  -95.4630    6.7520 c3        1 OHH      0.018000
     36 C25       -42.4410  -96.0050    7.8750 c3        1 OHH     -0.198000
     37 C26       -43.5100  -93.1090    9.5140 c2        1 OHH      0.332000
     38 C29       -45.2060  -89.9190    8.4480 ca        1 OHH     -0.129000
     39 C28       -44.9480  -91.2490    8.6660 ca        1 OHH     -0.091000
     40 C27       -43.7150  -91.6500    9.2430 ca        1 OHH     -0.097000
     41 C34       -42.7750  -90.7120    9.6040 ca        1 OHH     -0.089000
     42 C8C       -43.0250  -89.3290    9.3930 ca        1 OHH     -0.045000
     43 C4C       -44.2520  -88.9270    8.8040 ca        1 OHH     -0.029000
     44 C30       -44.4960  -87.5420    8.5900 ca        1 OHH     -0.121000
     45 C31       -43.5580  -86.6060    8.9490 ca        1 OHH     -0.127000
     46 C32       -42.3350  -87.0070    9.5380 ca        1 OHH     -0.135000
     47 C33       -42.0730  -88.3370    9.7560 ca        1 OHH     -0.110000
     48 H9        -39.8390 -101.3440    5.9130 ha        1 OHH      0.101000
     49 H17       -41.3390 -102.3200    1.8040 ha        1 OHH      0.131000
     50 H16       -41.0150 -101.8780   -0.6350 ha        1 OHH      0.119000
     51 H15       -40.4490  -99.5960   -1.4300 ha        1 OHH      0.118000
     52 H14       -40.2000  -97.7190    0.2010 ha        1 OHH      0.123000
     53 H18       -41.3720 -101.5020    4.1310 ha        1 OHH      0.150000
     54 H13       -40.2400  -96.9040    2.5300 ha        1 OHH      0.130000
     55 H1        -40.7800 -102.9270   11.5840 ha        1 OHH      0.103000
     56 H2        -42.1420 -100.9330   10.9570 ha        1 OHH      0.098000
     57 H3        -42.0070  -99.9750    8.6880 ha        1 OHH      0.155000
     58 H8        -39.1550 -104.6180   10.9990 ha        1 OHH      0.108000
     59 H7        -37.5930 -105.6630    9.3540 ha        1 OHH      0.102000
     60 H6        -37.3920 -104.7120    7.0640 ha        1 OHH      0.106000
     61 H5        -38.7260 -102.7550    6.3970 ha        1 OHH      0.126000
     62 H201      -42.8710  -96.9280    3.9980 h1        1 OHH      0.086667
     63 H202      -43.2790  -97.5440    5.6730 h1        1 OHH      0.086667
     64 H203      -43.6260  -95.8010    5.2170 h1        1 OHH      0.086667
     65 H241      -41.1950  -95.3440    9.5290 h1        1 OHH      0.098500
     66 H242      -42.9670  -95.5450    9.9320 h1        1 OHH      0.098500
     67 H231      -40.5920  -93.2310    8.0970 h1        1 OHH      0.098500
     68 H232      -41.9800  -92.1330    7.6610 h1        1 OHH      0.098500
     69 H221      -41.2130  -93.5380    5.7500 hc        1 OHH      0.105250
     70 H222      -42.9430  -93.8750    6.1680 hc        1 OHH      0.105250
     71 H21       -40.4710  -95.5020    7.1250 h1        1 OHH      0.126000
     72 H251      -43.5160  -95.9750    7.5630 hc        1 OHH      0.105250
     73 H252      -42.1800  -97.0790    8.0850 hc        1 OHH      0.105250
     74 H29       -46.1580  -89.5980    7.9980 ha        1 OHH      0.133000
     75 H28       -45.6890  -92.0230    8.4130 ha        1 OHH      0.150000
     76 H34       -41.8200  -91.0160   10.0610 ha        1 OHH      0.146000
     77 H30       -45.4500  -87.2410    8.1330 ha        1 OHH      0.130000
     78 H31       -43.7450  -85.5340    8.7850 ha        1 OHH      0.128000
     79 H32       -41.6000  -86.2380    9.8180 ha        1 OHH      0.129000
     80 H33       -41.1250  -88.6590   10.2130 ha        1 OHH      0.134000
     81 C19       -40.4920  -97.0290    5.1950 c2        1 OHH      0.359000
     82 C10       -41.2180  -99.7510    6.1630 c2        1 OHH      0.295000
@<TRIPOS>BOND
     1    1   37 1   
     2    2    3 1   
     3    2    4 1   
     4    2    5 1   
     5    6   22 1   
     6    6   48 1   
     7    6   82 1   
     8    7   82 1   
     9    8    9 1   
    10    8   13 1   
    11    8   49 1   
    12    9   10 1   
    13    9   50 1   
    14   10   11 1   
    15   10   51 1   
    16   11   12 1   
    17   11   52 1   
    18   12   13 1   
    19   12   17 1   
    20   13   14 1   
    21   14   15 1   
    22   14   53 1   
    23   15   16 1   
    24   15   82 1   
    25   16   17 1   
    26   16   81 1   
    27   17   54 1   
    28   18   81 1   
    29   19   20 1   
    30   19   24 1   
    31   19   55 1   
    32   20   21 1   
    33   20   56 1   
    34   21   22 1   
    35   21   57 1   
    36   22   23 1   
    37   23   24 1   
    38   23   28 1   
    39   24   25 1   
    40   25   26 1   
    41   25   58 1   
    42   26   27 1   
    43   26   59 1   
    44   27   28 1   
    45   27   60 1   
    46   28   61 1   
    47   29   30 1   
    48   29   35 1   
    49   29   81 1   
    50   30   62 1   
    51   30   63 1   
    52   30   64 1   
    53   31   32 1   
    54   31   36 1   
    55   31   65 1   
    56   31   66 1   
    57   32   33 1   
    58   32   37 1   
    59   33   34 1   
    60   33   67 1   
    61   33   68 1   
    62   34   35 1   
    63   34   69 1   
    64   34   70 1   
    65   35   36 1   
    66   35   71 1   
    67   36   72 1   
    68   36   73 1   
    69   37   40 1   
    70   38   39 1   
    71   38   43 1   
    72   38   74 1   
    73   39   40 1   
    74   39   75 1   
    75   40   41 1   
    76   41   42 1   
    77   41   76 1   
    78   42   43 1   
    79   42   47 1   
    80   43   44 1   
    81   44   45 1   
    82   44   77 1   
    83   45   46 1   
    84   45   78 1   
    85   46   47 1   
    86   46   79 1   
    87   47   80 1   
@<TRIPOS>SUBSTRUCTURE
     1 OHH         1 TEMP              0 ****  ****    0 ROOT
