@<TRIPOS>MOLECULE
OHH
   82    73     1     0     0
SMALL
bcc


@<TRIPOS>ATOM
      1 O6         -2.9070   -3.4300    5.1770 o         1 OHH     -0.364000
      2 P1         -2.6010    3.8170   -4.0200 p3        1 OHH      2.361000
      3 O1         -3.2360    4.1570   -5.3560 os        1 OHH     -1.120000
      4 O3         -2.2870    5.0970   -3.2700 o         1 OHH     -1.120000
      5 O2         -3.5620    2.9740   -3.2030 o         1 OHH     -1.120000
      6 C9         -1.0820    2.8950   -4.2960 c3        1 OHH     -0.480000
      7 O4         -1.0650    0.9880   -2.8940 o         1 OHH     -0.472000
      8 C10        -0.7120    2.1370   -3.0340 c2        1 OHH      0.280000
      9 C17         2.6800    5.4330   -1.8390 c1        1 OHH     -0.137250
     10 C16         3.4930    6.0800   -0.9280 c1        1 OHH     -0.151375
     11 C15         3.4420    5.7330    0.4300 c1        1 OHH     -0.151375
     12 C14         2.5760    4.7420    0.8610 c1        1 OHH     -0.137250
     13 C4B         1.7420    4.0790   -0.0690 c1        1 OHH     -0.026750
     14 C8B         1.7920    4.4190   -1.4000 c1        1 OHH     -0.026750
     15 C18         0.8890    3.8170   -2.3230 c1        1 OHH     -0.137250
     16 C11        -0.0520    2.8760   -1.8740 c1        1 OHH     -0.056000
     17 C12        -0.1020    2.5320   -0.5270 c1        1 OHH     -0.075000
     18 C13         0.7900    3.1270    0.3840 c1        1 OHH     -0.137250
     19 O5         -1.0120    0.3950   -1.1720 o         1 OHH     -0.378000
     20 C19        -0.6640    1.1000   -0.2480 c2        1 OHH      0.362000
     21 C1         -1.9290    0.2650   -7.5980 c1        1 OHH     -0.137250
     22 C2         -2.8140    0.4120   -6.5490 c1        1 OHH     -0.151375
     23 C3         -2.4910    1.2360   -5.4710 c1        1 OHH     -0.151375
     24 C4         -1.2890    1.9040   -5.4510 c1        1 OHH      0.132000
     25 C4A        -0.3810    1.7560   -6.5240 c1        1 OHH     -0.087000
     26 C8A        -0.6970    0.9490   -7.5790 c1        1 OHH     -0.026750
     27 C8          0.1840    0.8340   -8.6610 c1        1 OHH     -0.137250
     28 C7          1.3890    1.5460   -8.6610 c1        1 OHH     -0.151375
     29 C6          1.7060    2.3550   -7.6030 c1        1 OHH     -0.151375
     30 C5          0.8280    2.4700   -6.5240 c1        1 OHH     -0.077000
     31 N1         -0.7130    0.5730    1.1500 n         1 OHH     -0.307000
     32 C20        -0.4690    1.4600    2.2650 c3        1 OHH     -0.084000
     33 C24        -2.8540   -2.1370    2.6740 c3        1 OHH     -0.040500
     34 N2         -1.7650   -2.8960    3.3010 n         1 OHH     -0.302000
     35 C23        -0.5580   -2.9580    2.5070 c3        1 OHH     -0.040500
     36 C22        -0.0920   -1.5830    2.0580 c3        1 OHH     -0.195000
     37 C21        -1.1850   -0.8030    1.3970 c3        1 OHH      0.020000
     38 C25        -2.4090   -0.7530    2.2250 c3        1 OHH     -0.195000
     39 C26        -1.8840   -3.5130    4.5660 c2        1 OHH      0.329000
     40 C29         0.3670   -6.5350    5.1130 c1        1 OHH     -0.137250
     41 C28        -0.5740   -5.6290    4.6080 c1        1 OHH     -0.099000
     42 C27        -0.6740   -4.3500    5.1560 c2        1 OHH     -0.098000
     43 C34         0.1560   -3.9760    6.1970 c2        1 OHH     -0.079000
     44 C8C         1.1090   -4.8920    6.7080 c1        1 OHH     -0.044000
     45 C4C         1.2080   -6.1550    6.1690 c1        1 OHH     -0.026750
     46 C30         2.1980   -7.0370    6.6260 c1        1 OHH     -0.137250
     47 C31         3.0740   -6.6420    7.6160 c1        1 OHH     -0.151375
     48 C32         2.9760   -5.3610    8.1660 c1        1 OHH     -0.151375
     49 C33         2.0000   -4.4890    7.7160 c1        1 OHH     -0.109000
     50 H9         -0.3580    3.5190   -4.5250 hc        1 OHH      0.115000
     51 H17         2.6660    5.7240   -2.7750 ha        1 OHH      0.126250
     52 H16         4.1090    6.7840   -1.2340 ha        1 OHH      0.119750
     53 H15         4.0200    6.2040    1.0840 ha        1 OHH      0.119750
     54 H14         2.5160    4.5250    1.8100 ha        1 OHH      0.126250
     55 H18         0.8830    4.1080   -3.2630 ha        1 OHH      0.126250
     56 H13         0.7540    2.8900    1.3180 ha        1 OHH      0.126250
     57 H1         -2.1800   -0.2800   -8.3850 ha        1 OHH      0.126250
     58 H2         -3.6820   -0.0670   -6.5640 ha        1 OHH      0.119750
     59 H3         -3.1260    1.3380   -4.7170 ha        1 OHH      0.119750
     60 H8         -0.0630    0.2940   -9.4350 ha        1 OHH      0.126250
     61 H7          2.0080    1.4640   -9.4200 ha        1 OHH      0.119750
     62 H6          2.5380    2.8470   -7.6030 ha        1 OHH      0.119750
     63 H5          1.0550    3.0570   -5.7620 ha        1 OHH      0.143000
     64 H201       -0.6860    2.3810    2.0040 h1        1 OHH      0.081333
     65 H202        0.4760    1.4080    2.5260 h1        1 OHH      0.081333
     66 H203       -1.0310    1.1950    3.0190 h1        1 OHH      0.081333
     67 H241       -3.1820   -2.6380    1.8900 h1        1 OHH      0.108750
     68 H242       -3.5870   -2.0400    3.3200 h1        1 OHH      0.108750
     69 H231        0.1530   -3.3770    3.0400 h1        1 OHH      0.108750
     70 H232       -0.7300   -3.5160    1.7060 h1        1 OHH      0.108750
     71 H221        0.6270   -1.6860    1.4450 hc        1 OHH      0.101000
     72 H222        0.2280   -1.0830    2.8430 hc        1 OHH      0.101000
     73 H21        -1.4000   -1.2210    0.5420 h1        1 OHH      0.129000
     74 H251       -2.2360   -0.1960    3.0260 hc        1 OHH      0.101000
     75 H252       -3.1480   -0.3320    1.6880 hc        1 OHH      0.101000
     76 H29         0.4400   -7.4450    4.7240 ha        1 OHH      0.126250
     77 H28        -1.1810   -5.9040    3.9230 ha        1 OHH      0.148000
     78 H34         0.0760   -3.0670    6.5940 ha        1 OHH      0.149000
     79 H30         2.2690   -7.9430    6.2390 ha        1 OHH      0.126250
     80 H31         3.7700   -7.2650    7.9360 ha        1 OHH      0.119750
     81 H32         3.5330   -5.1140    8.9070 ha        1 OHH      0.119750
     82 H33         1.9310   -3.5880    8.1020 ha        1 OHH      0.135000
@<TRIPOS>BOND
     1    1   39 1   
     2    2    4 1   
     3    2    5 1   
     4    2    6 1   
     5    6    8 1   
     6    6   24 1   
     7    6   50 1   
     8    7    8 1   
     9    8   16 1   
    10    9   14 1   
    11    9   51 1   
    12   10   11 1   
    13   10   52 1   
    14   11   53 1   
    15   12   13 1   
    16   12   54 1   
    17   13   18 1   
    18   14   15 1   
    19   15   55 1   
    20   16   17 1   
    21   17   20 1   
    22   18   56 1   
    23   19   20 1   
    24   20   31 1   
    25   21   26 1   
    26   21   57 1   
    27   22   23 1   
    28   22   58 1   
    29   23   59 1   
    30   24   25 1   
    31   25   30 1   
    32   26   27 1   
    33   27   60 1   
    34   28   29 1   
    35   28   61 1   
    36   29   62 1   
    37   30   63 1   
    38   31   32 1   
    39   31   37 1   
    40   32   64 1   
    41   32   65 1   
    42   32   66 1   
    43   33   34 1   
    44   33   38 1   
    45   33   67 1   
    46   33   68 1   
    47   34   35 1   
    48   34   39 1   
    49   35   36 1   
    50   35   69 1   
    51   35   70 1   
    52   36   37 1   
    53   36   71 1   
    54   36   72 1   
    55   37   38 1   
    56   37   73 1   
    57   38   74 1   
    58   38   75 1   
    59   39   42 1   
    60   40   45 1   
    61   40   76 1   
    62   41   42 1   
    63   41   77 1   
    64   42   43 1   
    65   43   44 1   
    66   43   78 1   
    67   44   49 1   
    68   45   46 1   
    69   46   79 1   
    70   47   48 1   
    71   47   80 1   
    72   48   81 1   
    73   49   82 1   
@<TRIPOS>SUBSTRUCTURE
     1 OHH         1 TEMP              0 ****  ****    0 ROOT
