@<TRIPOS>MOLECULE
OHI
   18    18     1     0     0
SMALL
bcc


@<TRIPOS>ATOM
      1 CE1         3.1060    0.0880    0.6220 c         1 OHI      0.756900
      2 ND1         1.8020    0.3650    1.2800 nc        1 OHI     -0.618100
      3 NE2         2.9410    0.1090   -0.8700 nc        1 OHI     -0.622100
      4 CD2         1.6840    0.3620   -1.0570 cd        1 OHI      0.362900
      5 CG          0.9480    0.5290    0.3040 cd        1 OHI      0.385000
      6 CB         -0.4980    0.8340    0.3410 c3        1 OHI     -0.108700
      7 CA         -1.3610   -0.3710   -0.0580 c3        1 OHI      0.014500
      8 N          -1.0630   -0.8560   -1.3980 n3        1 OHI     -0.907800
      9 C          -2.8590    0.0600    0.1550 c         1 OHI      0.894600
     10 O          -3.6340   -0.0150   -0.8380 o         1 OHI     -0.826800
     11 OXT        -3.1830    0.4470    1.3090 o         1 OHI     -0.826800
     12 O12         4.1690   -0.1270    1.2010 o         1 OHI     -0.478100
     13 HD2         1.1620    0.4370   -2.0170 h4        1 OHI      0.075800
     14 HB1        -0.8310    1.1420    1.3710 hc        1 OHI      0.082700
     15 HB2        -0.6920    1.6890   -0.3600 hc        1 OHI      0.082700
     16 HA         -1.1550   -1.2040    0.6740 h1        1 OHI      0.051700
     17 HN1        -1.4750   -1.7660   -1.4940 hn        1 OHI      0.340300
     18 HN2        -1.5390   -0.2600   -2.0560 hn        1 OHI      0.340300
@<TRIPOS>BOND
     1    1    2 1   
     2    1    3 1   
     3    1   12 2   
     4    2    5 2   
     5    3    4 2   
     6    4    5 1   
     7    4   13 1   
     8    5    6 1   
     9    6    7 1   
    10    6   14 1   
    11    6   15 1   
    12    7    8 1   
    13    7    9 1   
    14    7   16 1   
    15    8   17 1   
    16    8   18 1   
    17    9   10 1   
    18    9   11 1   
@<TRIPOS>SUBSTRUCTURE
     1 OHI         1 TEMP              0 ****  ****    0 ROOT
