@<TRIPOS>MOLECULE
OHL
   41    35     1     0     0
SMALL
bcc


@<TRIPOS>ATOM
      1 C           0.3420    0.4770   -3.2770 c1        1 OHL      0.206000
      2 N           0.5230    0.3580   -0.8180 n3        1 OHL     -0.808000
      3 O           1.3580   -0.2540   -3.3100 o         1 OHL     -0.300000
      4 CA         -0.2120    0.9850   -1.9020 c2        1 OHL     -0.030000
      5 CAA        -3.7590   -2.4380    4.1440 c3        1 OHL     -0.080000
      6 OAC         1.9630   -1.7250   -0.4830 o         1 OHL     -0.924500
      7 OAD         0.4480   -1.8980   -2.1080 o         1 OHL     -0.924500
      8 OAE        -0.1610   -0.0540   -5.6070 oh        1 OHL     -0.241000
      9 CAF         2.4420    4.5210    0.4070 c1        1 OHL     -0.075000
     10 CAG         4.2590    3.0320    0.0370 c1        1 OHL     -0.067000
     11 CAH         1.5310    3.4790    0.1270 c1        1 OHL     -0.182000
     12 CAI         3.3520    1.9890   -0.2440 c1        1 OHL     -0.154000
     13 CAJ        -2.8240   -2.4880    1.1240 c1        1 OHL     -0.237000
     14 CAK        -0.9910   -3.0070    2.5930 c1        1 OHL     -0.185000
     15 CAL        -1.9070   -1.9940    0.1650 c1        1 OHL      0.028000
     16 CAM        -0.0690   -2.5140    1.6380 c1        1 OHL      0.009000
     17 CAO         1.0220    1.1930    0.3240 c3        1 OHL      0.027000
     18 NAP         3.7900    4.2840    0.3590 n2        1 OHL     -0.132000
     19 NAQ        -0.3960    0.7240   -4.4740 n3        1 OHL     -0.186000
     20 OAR        -3.2700   -3.4490    3.2640 os        1 OHL     -0.201000
     21 CAT         1.9990    2.2240   -0.1960 c2        1 OHL     -0.084000
     22 CAU        -2.3680   -2.9860    2.3180 c2        1 OHL      0.148000
     23 CAV        -0.5250   -2.0140    0.4370 c1        1 OHL     -0.877000
     24 SAX         0.6500   -1.3160   -0.7650 s6        1 OHL      2.859000
     25 HA         -0.1120    1.9280   -1.8500 h4        1 OHL      0.121000
     26 HAA        -1.2020    0.7430   -1.8250 h4        1 OHL      0.121000
     27 HAAA       -4.1500   -2.8570    4.9300 h1        1 OHL      0.091333
     28 HAAB       -3.0000   -1.8410    4.4230 h1        1 OHL      0.091333
     29 HAAC       -4.4940   -1.8650    3.6470 h1        1 OHL      0.091333
     30 HAF         2.1050    5.4250    0.6410 DU        1 OHL      0.151667
     31 HAG         5.2090    2.8680    0.0040 ha        1 OHL      0.166000
     32 HAH         0.5190    3.6570    0.1650 DU        1 OHL      0.151667
     33 HAI         3.6970    1.0650   -0.4800 ha        1 OHL      0.181000
     34 HAJ        -3.7860   -2.4760    0.9360 ha        1 OHL      0.147000
     35 HAK        -0.6440   -3.3880    3.5090 DU        1 OHL      0.151667
     36 HAL        -2.2180   -1.6540   -0.6510 ha        1 OHL      0.151000
     37 HAM         0.9390   -2.5310    1.8410 ha        1 OHL      0.160000
     38 HAO         1.4530    0.6420    0.9560 h1        1 OHL      0.095500
     39 HAOA        0.3070    1.6250    0.7270 h1        1 OHL      0.095500
     40 H16        -0.7520    0.1660   -6.2470 ho        1 OHL      0.236000
     41 H17        -1.0680    1.3620   -4.4810 hn        1 OHL      0.207000
@<TRIPOS>BOND
     1    1    3 1   
     2    1   19 1   
     3    2    4 1   
     4    2   17 1   
     5    2   24 1   
     6    4   25 1   
     7    4   26 1   
     8    5   20 1   
     9    5   27 1   
    10    5   28 1   
    11    5   29 1   
    12    6   24 1   
    13    7   24 1   
    14    8   19 1   
    15    8   40 1   
    16    9   11 1   
    17    9   18 1   
    18   10   18 1   
    19   10   31 1   
    20   11   21 1   
    21   12   21 1   
    22   12   33 1   
    23   13   22 1   
    24   13   34 1   
    25   14   16 1   
    26   14   22 1   
    27   15   23 1   
    28   15   36 1   
    29   16   37 1   
    30   17   21 1   
    31   17   38 1   
    32   17   39 1   
    33   19   41 1   
    34   20   22 1   
    35   23   24 1   
@<TRIPOS>SUBSTRUCTURE
     1 OHL         1 TEMP              0 ****  ****    0 ROOT
