@<TRIPOS>MOLECULE
OHL
   41    42     1     0     0
SMALL
bcc


@<TRIPOS>ATOM
      1 C          -0.6300   -3.0810   -0.5800 c         1 OHL      0.570100
      2 N          -0.9400   -0.6340   -0.4940 n3        1 OHL     -0.801500
      3 O          -0.6410   -3.6480    0.5230 o         1 OHL     -0.561100
      4 CA         -1.5480   -1.8800   -0.8680 c3        1 OHL      0.149800
      5 CAA         5.2670    2.3200    2.0230 c3        1 OHL      0.108700
      6 OAC         0.3350   -0.7270   -2.6000 o         1 OHL     -0.660800
      7 OAD        -0.5200    1.4070   -1.8900 o         1 OHL     -0.660800
      8 OAE         1.2000   -4.2990   -1.3320 oh        1 OHL     -0.436100
      9 CAF        -4.3510    2.0230    0.4030 ca        1 OHL      0.391700
     10 CAG        -4.7530    0.5460    2.1180 ca        1 OHL      0.391700
     11 CAH        -3.0660    1.4950    0.1760 ca        1 OHL     -0.235800
     12 CAI        -3.4890   -0.0540    1.9700 ca        1 OHL     -0.235800
     13 CAJ         3.5620   -0.3580    0.2200 ca        1 OHL     -0.210000
     14 CAK         2.8570    1.9470    0.6260 ca        1 OHL     -0.210000
     15 CAL         2.3880   -0.5780   -0.4800 ca        1 OHL      0.024500
     16 CAM         1.6880    1.6940   -0.0810 ca        1 OHL      0.024500
     17 CAO        -1.2530   -0.1470    0.8260 c3        1 OHL      0.267100
     18 NAP        -5.1880    1.5670    1.3540 nb        1 OHL     -0.660000
     19 NAQ         0.1230   -3.5890   -1.6700 n         1 OHL     -0.368400
     20 CAT        -2.6300    0.4360    0.9800 ca        1 OHL     -0.084300
     21 CAU         3.7980    0.9170    0.7790 ca        1 OHL      0.200100
     22 CAV         1.4280    0.4360   -0.6430 ca        1 OHL     -0.447500
     23 SAX         0.0450    0.1660   -1.5380 sy        1 OHL      1.521200
     24 HA         -1.8190   -1.8530   -1.9640 h1        1 OHL      0.089200
     25 HAA        -2.4970   -2.0420   -0.2780 h1        1 OHL      0.089200
     26 HAAA        4.4970    2.5880    2.7870 h1        1 OHL      0.053033
     27 HAAB        6.2670    2.1700    2.5040 h1        1 OHL      0.053033
     28 HAAC        5.3220    3.0990    1.2250 h1        1 OHL      0.053033
     29 HAF        -4.7310    2.8580   -0.2130 h4        1 OHL      0.025100
     30 HAG        -5.4590    0.1890    2.8900 h4        1 OHL      0.025100
     31 HAH        -2.4270    1.9090   -0.6200 ha        1 OHL      0.159500
     32 HAI        -3.1920   -0.8870    2.6210 ha        1 OHL      0.159500
     33 HAJ         4.3120   -1.1520    0.3460 ha        1 OHL      0.157000
     34 HAK         3.0340    2.9450    1.0510 ha        1 OHL      0.157000
     35 HAL         2.2070   -1.5710   -0.9320 ha        1 OHL      0.157000
     36 HAM         0.9500    2.5060   -0.2190 ha        1 OHL      0.157000
     37 HAO        -1.1230   -0.9910    1.5660 h1        1 OHL      0.067200
     38 HAOA       -0.5020    0.6580    1.0880 h1        1 OHL      0.067200
     39 H16         0.8670   -5.1780   -1.0630 ho        1 OHL      0.432000
     40 H17         0.4010   -2.8830   -2.3510 hn        1 OHL      0.339500
     41 OAR         4.9840    1.0420    1.4560 os        1 OHL     -0.314900
@<TRIPOS>BOND
     1    1    3 2   
     2    1    4 1   
     3    1   19 1   
     4    2    4 1   
     5    2   17 1   
     6    2   23 1   
     7    4   24 1   
     8    4   25 1   
     9    5   26 1   
    10    5   27 1   
    11    5   28 1   
    12    5   41 1   
    13    6   23 2   
    14    7   23 2   
    15    8   19 1   
    16    8   39 1   
    17    9   11 ar  
    18    9   18 ar  
    19    9   29 1   
    20   10   12 ar  
    21   10   18 ar  
    22   10   30 1   
    23   11   20 ar  
    24   11   31 1   
    25   12   20 ar  
    26   12   32 1   
    27   13   15 ar  
    28   13   21 ar  
    29   13   33 1   
    30   14   16 ar  
    31   14   21 ar  
    32   14   34 1   
    33   15   22 ar  
    34   15   35 1   
    35   16   22 ar  
    36   16   36 1   
    37   17   20 1   
    38   17   37 1   
    39   17   38 1   
    40   19   40 1   
    41   21   41 1   
    42   22   23 1   
@<TRIPOS>SUBSTRUCTURE
     1 OHL         1 TEMP              0 ****  ****    0 ROOT
