@<TRIPOS>MOLECULE
OHL
   43    43     1     0     0
SMALL
bcc


@<TRIPOS>ATOM
      1 C        -180.0850 -133.8600   -9.1040 c         1 OHL      0.467100
      2 N        -178.2630 -132.7040   -7.8340 n3        1 OHL     -0.847200
      3 O        -180.6420 -133.3640  -10.0630 o         1 OHL     -0.394100
      4 CA       -179.5850 -133.1770   -7.8050 c3        1 OHL      0.171800
      5 CAA       247.6430  188.5220   15.5920 c3        1 OHL      0.096700
      6 OAC       253.4120  186.1200   19.7300 o         1 OHL     -0.403900
      7 OAD       253.6290  188.4690   19.4890 o         1 OHL     -0.403900
      8 OAE      -180.4350 -135.9970  -10.2430 oh        1 OHL     -0.361300
      9 CAF      -176.1370 -136.4940   -9.8910 ca        1 OHL      0.417200
     10 CAG      -175.9110 -134.5530  -11.1100 ca        1 OHL      0.417200
     11 CAH      -176.6150 -135.7950   -8.7660 ca        1 OHL     -0.277300
     12 CAI      -176.3740 -133.7640  -10.0390 ca        1 OHL     -0.277300
     13 CAJ       249.8150  186.1620   17.3860 ca        1 OHL     -0.214500
     14 CAK       250.0340  188.6020   17.1320 ca        1 OHL     -0.214500
     15 CAL       250.9600  186.1490   18.1310 ca        1 OHL      0.071500
     16 CAM       251.1790  188.5640   17.8830 ca        1 OHL      0.071500
     17 CAO      -177.1570 -133.6050   -7.6430 c3        1 OHL      0.208100
     18 NAP      -175.7990 -135.8940  -11.0480 nb        1 OHL     -0.631000
     19 NAQ      -179.8260 -135.3720   -9.2100 n4        1 OHL     -0.480300
     20 CAT      -176.7320 -134.4000   -8.8450 ca        1 OHL     -0.135300
     21 CAU       249.3260  187.4000   16.8670 ca        1 OHL      0.311100
     22 CAV       251.7020  187.3440   18.4200 ca        1 OHL     -0.708500
     23 SAX       252.9750  187.3080   19.2530 s4        1 OHL      1.663300
     24 HA       -179.7320 -133.8950   -6.9480 h1        1 OHL      0.116700
     25 HAA      -180.2950 -132.3000   -7.6780 h1        1 OHL      0.116700
     26 HAAA      248.3660  188.9800   14.8760 h1        1 OHL      0.082700
     27 HAAB      247.3690  189.2290   16.4110 h1        1 OHL      0.082700
     28 HAAC      246.7300  188.1440   15.0600 h1        1 OHL      0.082700
     29 HAF      -176.0040 -137.5930   -9.8630 h4        1 OHL      0.052100
     30 HAG      -175.6010 -134.0870  -12.0660 h4        1 OHL      0.052100
     31 HAH      -176.8140 -136.3320   -7.8280 ha        1 OHL      0.156500
     32 HAI      -176.4120 -132.6700  -10.1380 ha        1 OHL      0.156500
     33 HAJ       249.2520  185.2370   17.1700 ha        1 OHL      0.193500
     34 HAK       249.6620  189.5620   16.7350 ha        1 OHL      0.193500
     35 HAL       251.3380  185.1870   18.5330 ha        1 OHL      0.179500
     36 HAM       251.7290  189.5050   18.0870 ha        1 OHL      0.179500
     37 HAO      -176.2760 -132.9700   -7.3180 h1        1 OHL      0.094200
     38 HAOA     -177.3990 -134.3020   -6.7890 h1        1 OHL      0.094200
     39 H16      -180.6200 -135.3390  -10.9580 ho        1 OHL      0.483000
     40 H17      -178.7950 -135.5410   -9.2770 hn        1 OHL      0.482300
     41 H        -178.0870 -131.9420   -8.4560 hn        1 OHL      0.433800
     42 HAQ2     -180.1820 -135.8390   -8.3540 hn        1 OHL      0.482300
     43 OAR       248.1970  187.3150   16.1470 os        1 OHL     -0.262900
@<TRIPOS>BOND
     1    1    3 2   
     2    1    4 1   
     3    1   19 1   
     4    2    4 1   
     5    2   17 1   
     6    2   41 1   
     7    4   24 1   
     8    4   25 1   
     9    5   26 1   
    10    5   27 1   
    11    5   28 1   
    12    5   43 1   
    13    6   23 1   
    14    7   23 1   
    15    8   19 1   
    16    8   39 1   
    17    9   11 ar  
    18    9   18 ar  
    19    9   29 1   
    20   10   12 ar  
    21   10   18 ar  
    22   10   30 1   
    23   11   20 ar  
    24   11   31 1   
    25   12   20 ar  
    26   12   32 1   
    27   13   15 ar  
    28   13   21 ar  
    29   13   33 1   
    30   14   16 ar  
    31   14   21 ar  
    32   14   34 1   
    33   15   22 ar  
    34   15   35 1   
    35   16   22 ar  
    36   16   36 1   
    37   17   20 1   
    38   17   37 1   
    39   17   38 1   
    40   19   40 1   
    41   19   42 1   
    42   21   43 1   
    43   22   23 1   
@<TRIPOS>SUBSTRUCTURE
     1 OHL         1 TEMP              0 ****  ****    0 ROOT
