@<TRIPOS>MOLECULE
OHM
   50    50     1     0     0
SMALL
bcc


@<TRIPOS>ATOM
      1 C21         0.8500   -0.0690   -0.3550 c3        1 OHM     -0.094100
      2 C20         2.2950    0.2280   -0.0480 c3        1 OHM     -0.079400
      3 C19         2.6410   -0.1250    1.3830 c3        1 OHM     -0.079400
      4 C18         4.0930    0.1750    1.6870 c3        1 OHM     -0.079400
      5 C17         4.4370   -0.1790    3.1180 c3        1 OHM     -0.079400
      6 C16         5.8900    0.1210    3.4210 c3        1 OHM     -0.079400
      7 C15         6.2320   -0.2350    4.8530 c3        1 OHM     -0.080400
      8 C14         7.6860    0.0670    5.1520 c3        1 OHM     -0.074400
      9 C13         8.0150   -0.2890    6.5910 c3        1 OHM     -0.176400
     10 C11         9.4540   -0.0110    6.8940 c         1 OHM      0.592100
     11 O12        10.3480   -0.8610    6.8450 o         1 OHM     -0.545100
     12 C10         9.7550    1.4140    7.3020 c3        1 OHM     -0.290400
     13 C8         11.1830    1.8590    7.1770 c         1 OHM      0.556100
     14 O9         11.5650    2.9230    6.7170 o         1 OHM     -0.400100
     15 N7         12.2330    0.8930    7.6730 n4        1 OHM     -0.659800
     16 C1         13.5990    1.4660    7.8130 c3        1 OHM      0.006500
     17 C5         13.9320    2.0900    9.1800 c3        1 OHM     -0.107400
     18 C4         15.3120    1.5020    9.5630 c3        1 OHM      0.084000
     19 N3         15.5880    0.4280    8.6330 n         1 OHM     -0.542900
     20 C2         14.6690    0.3400    7.6230 c         1 OHM      0.682500
     21 O6         14.5980   -0.4820    6.7020 o         1 OHM     -0.582500
     22 H211        0.6300   -1.1550   -0.2090 hc        1 OHM      0.036033
     23 H212        0.6160    0.1980   -1.4140 hc        1 OHM      0.036033
     24 H213        0.1750    0.5180    0.3140 hc        1 OHM      0.036033
     25 H201        2.5010    1.3170   -0.2250 hc        1 OHM      0.039200
     26 H202        2.9550   -0.3510   -0.7460 hc        1 OHM      0.039200
     27 H191        1.9820    0.4540    2.0820 hc        1 OHM      0.041700
     28 H192        2.4360   -1.2140    1.5600 hc        1 OHM      0.041700
     29 H181        4.7510   -0.4040    0.9870 hc        1 OHM      0.041700
     30 H182        4.2970    1.2640    1.5090 hc        1 OHM      0.041700
     31 H171        4.2330   -1.2680    3.2950 hc        1 OHM      0.043700
     32 H172        3.7780    0.3990    3.8180 hc        1 OHM      0.043700
     33 H161        6.5480   -0.4590    2.7210 hc        1 OHM      0.043700
     34 H162        6.0930    1.2100    3.2430 hc        1 OHM      0.043700
     35 H151        5.5730    0.3440    5.5520 hc        1 OHM      0.050700
     36 H152        6.0290   -1.3240    5.0280 hc        1 OHM      0.050700
     37 H141        8.3420   -0.5220    4.4580 hc        1 OHM      0.051700
     38 H142        7.8890    1.1550    4.9700 hc        1 OHM      0.051700
     39 H131        7.8130   -1.3820    6.7600 hc        1 OHM      0.091700
     40 H132        7.3610    0.2970    7.2900 hc        1 OHM      0.091700
     41 H101        9.4230    1.5570    8.3710 hc        1 OHM      0.142700
     42 H102        9.1350    2.1140    6.6650 hc        1 OHM      0.142700
     43 HN7        12.2760    0.1030    6.9870 hn        1 OHM      0.484800
     44 H1         13.7470    2.2240    6.9860 hx        1 OHM      0.153700
     45 H51        13.9920    3.2040    9.0950 hc        1 OHM      0.086200
     46 H52        13.1790    1.8420    9.9680 hc        1 OHM      0.086200
     47 H41        15.2970    1.0990   10.6130 h1        1 OHM      0.081200
     48 H42        16.1070    2.2960    9.4980 h1        1 OHM      0.081200
     49 HN3        16.4370   -0.0850    8.6500 hn        1 OHM      0.371500
     50 H72        11.9200    0.4960    8.5660 hn        1 OHM      0.484800
@<TRIPOS>BOND
     1    1    2 1   
     2    1   22 1   
     3    1   23 1   
     4    1   24 1   
     5    2    3 1   
     6    2   25 1   
     7    2   26 1   
     8    3    4 1   
     9    3   27 1   
    10    3   28 1   
    11    4    5 1   
    12    4   29 1   
    13    4   30 1   
    14    5    6 1   
    15    5   31 1   
    16    5   32 1   
    17    6    7 1   
    18    6   33 1   
    19    6   34 1   
    20    7    8 1   
    21    7   35 1   
    22    7   36 1   
    23    8    9 1   
    24    8   37 1   
    25    8   38 1   
    26    9   10 1   
    27    9   39 1   
    28    9   40 1   
    29   10   11 2   
    30   10   12 1   
    31   12   13 1   
    32   12   41 1   
    33   12   42 1   
    34   13   14 2   
    35   13   15 1   
    36   15   16 1   
    37   15   43 1   
    38   15   50 1   
    39   16   17 1   
    40   16   20 1   
    41   16   44 1   
    42   17   18 1   
    43   17   45 1   
    44   17   46 1   
    45   18   19 1   
    46   18   47 1   
    47   18   48 1   
    48   19   20 1   
    49   19   49 1   
    50   20   21 2   
@<TRIPOS>SUBSTRUCTURE
     1 OHM         1 TEMP              0 ****  ****    0 ROOT
