@<TRIPOS>MOLECULE
OHM
   50    50     1     0     0
SMALL
bcc


@<TRIPOS>ATOM
      1 C21         0.8560   -0.0450   -0.3730 c3        1 OHM     -0.094100
      2 C20         2.2980    0.2610   -0.0590 c3        1 OHM     -0.079400
      3 C19         2.6480   -0.1180    1.3640 c3        1 OHM     -0.079400
      4 C18         4.0960    0.1910    1.6750 c3        1 OHM     -0.079400
      5 C17         4.4440   -0.1890    3.0980 c3        1 OHM     -0.079400
      6 C16         5.8930    0.1210    3.4080 c3        1 OHM     -0.079400
      7 C15         6.2380   -0.2590    4.8330 c3        1 OHM     -0.080400
      8 C14         7.6880    0.0530    5.1390 c3        1 OHM     -0.074400
      9 C13         8.0210   -0.3260    6.5720 c3        1 OHM     -0.176400
     10 C11         9.4550   -0.0370    6.8820 c         1 OHM      0.592100
     11 O12        10.3600   -0.8750    6.8190 o         1 OHM     -0.545100
     12 C10         9.7390    1.3850    7.3160 c3        1 OHM     -0.290400
     13 C8         11.1620    1.8470    7.2000 c         1 OHM      0.556100
     14 O9         11.5320    2.9230    6.7560 o         1 OHM     -0.400100
     15 N7         12.2220    0.8870    7.6840 n4        1 OHM     -0.659800
     16 C1         13.5810    1.4730    7.8340 c3        1 OHM      0.006500
     17 C5         13.9050    2.0840    9.2090 c3        1 OHM     -0.107400
     18 C4         15.2900    1.5070    9.5880 c3        1 OHM      0.084000
     19 N3         15.5810    0.4470    8.6450 n         1 OHM     -0.542900
     20 C2         14.6650    0.3620    7.6320 c         1 OHM      0.682500
     21 O6         14.6040   -0.4490    6.7010 o         1 OHM     -0.582500
     22 H211        0.6200    0.2420   -1.4260 hc        1 OHM      0.036033
     23 H212        0.1750    0.5200    0.3080 hc        1 OHM      0.036033
     24 H213        0.6480   -1.1360   -0.2500 hc        1 OHM      0.036033
     25 H201        2.4930    1.3560   -0.2130 hc        1 OHM      0.039200
     26 H202        2.9650   -0.2960   -0.7690 hc        1 OHM      0.039200
     27 H191        1.9820    0.4390    2.0750 hc        1 OHM      0.041700
     28 H192        2.4550   -1.2130    1.5190 hc        1 OHM      0.041700
     29 H181        4.2890    1.2860    1.5190 hc        1 OHM      0.041700
     30 H182        4.7610   -0.3660    0.9630 hc        1 OHM      0.041700
     31 H171        3.7790    0.3680    3.8090 hc        1 OHM      0.043700
     32 H172        4.2520   -1.2830    3.2530 hc        1 OHM      0.043700
     33 H161        6.5580   -0.4370    2.6970 hc        1 OHM      0.043700
     34 H162        6.0850    1.2160    3.2520 hc        1 OHM      0.043700
     35 H151        6.0480   -1.3540    4.9860 hc        1 OHM      0.050700
     36 H152        5.5720    0.2980    5.5430 hc        1 OHM      0.050700
     37 H141        7.8790    1.1470    4.9790 hc        1 OHM      0.051700
     38 H142        8.3520   -0.5150    4.4350 hc        1 OHM      0.051700
     39 H131        7.3590    0.2380    7.2810 hc        1 OHM      0.091700
     40 H132        7.8320   -1.4250    6.7200 hc        1 OHM      0.091700
     41 H101        9.4040    1.5040    8.3860 hc        1 OHM      0.142700
     42 H102        9.1120    2.0880    6.6910 hc        1 OHM      0.142700
     43 HN7        11.9130    0.4740    8.5700 hn        1 OHM      0.484800
     44 H1         13.7230    2.2430    7.0160 hx        1 OHM      0.153700
     45 H51        13.1530    1.8190    9.9930 hc        1 OHM      0.086200
     46 H52        13.9530    3.2000    9.1380 hc        1 OHM      0.086200
     47 H41        15.2770    1.0910   10.6330 h1        1 OHM      0.081200
     48 H42        16.0770    2.3100    9.5350 h1        1 OHM      0.081200
     49 HN3        16.4350   -0.0560    8.6580 hn        1 OHM      0.371500
     50 H72        12.2750    0.1070    6.9870 hn        1 OHM      0.484800
@<TRIPOS>BOND
     1    1    2 1   
     2    1   22 1   
     3    1   23 1   
     4    1   24 1   
     5    2    3 1   
     6    2   25 1   
     7    2   26 1   
     8    3    4 1   
     9    3   27 1   
    10    3   28 1   
    11    4    5 1   
    12    4   29 1   
    13    4   30 1   
    14    5    6 1   
    15    5   31 1   
    16    5   32 1   
    17    6    7 1   
    18    6   33 1   
    19    6   34 1   
    20    7    8 1   
    21    7   35 1   
    22    7   36 1   
    23    8    9 1   
    24    8   37 1   
    25    8   38 1   
    26    9   10 1   
    27    9   39 1   
    28    9   40 1   
    29   10   11 2   
    30   10   12 1   
    31   12   13 1   
    32   12   41 1   
    33   12   42 1   
    34   13   14 2   
    35   13   15 1   
    36   15   16 1   
    37   15   43 1   
    38   15   50 1   
    39   16   17 1   
    40   16   20 1   
    41   16   44 1   
    42   17   18 1   
    43   17   45 1   
    44   17   46 1   
    45   18   19 1   
    46   18   47 1   
    47   18   48 1   
    48   19   20 1   
    49   19   49 1   
    50   20   21 2   
@<TRIPOS>SUBSTRUCTURE
     1 OHM         1 TEMP              0 ****  ****    0 ROOT
