@<TRIPOS>MOLECULE
OHM
   50    50     1     0     0
SMALL
bcc


@<TRIPOS>ATOM
      1 C21         0.8700   -0.0530   -0.3830 c3        1 OHM     -0.094100
      2 C20         2.3200    0.2140   -0.0760 c3        1 OHM     -0.079400
      3 C19         2.6480   -0.1010    1.3680 c3        1 OHM     -0.079400
      4 C18         4.1070    0.1690    1.6720 c3        1 OHM     -0.079400
      5 C17         4.4320   -0.1460    3.1160 c3        1 OHM     -0.079400
      6 C16         5.8910    0.1240    3.4180 c3        1 OHM     -0.079400
      7 C15         6.2140   -0.1910    4.8640 c3        1 OHM     -0.080400
      8 C14         7.6740    0.0800    5.1630 c3        1 OHM     -0.074400
      9 C13         7.9850   -0.2340    6.6160 c3        1 OHM     -0.176400
     10 C11         9.4280    0.0160    6.9200 c         1 OHM      0.592100
     11 O12        10.2990   -0.8600    6.9070 o         1 OHM     -0.545100
     12 C10         9.7650    1.4460    7.2800 c3        1 OHM     -0.290400
     13 C8         11.2060    1.8460    7.1480 c         1 OHM      0.556100
     14 O9         11.6200    2.8820    6.6520 o         1 OHM     -0.400100
     15 N7         12.2260    0.8720    7.6870 ny        1 OHM     -0.659800
     16 C1         13.6060    1.4120    7.8160 c3        1 OHM      0.006500
     17 C5         13.9480    2.0780    9.1600 c3        1 OHM     -0.107400
     18 C4         15.3080    1.4670    9.5760 c3        1 OHM      0.084000
     19 N3         15.5610    0.3510    8.6890 ns        1 OHM     -0.542900
     20 C2         14.6460    0.2510    7.6760 c         1 OHM      0.682500
     21 O6         14.5580   -0.6030    6.7860 o         1 OHM     -0.582500
     22 H211        0.2070    0.5740    0.2620 hc        1 OHM      0.036033
     23 H212        0.6490    0.1850   -1.4520 hc        1 OHM      0.036033
     24 H213        0.6190   -1.1260   -0.2030 hc        1 OHM      0.036033
     25 H201        2.9690   -0.4060   -0.7500 hc        1 OHM      0.039200
     26 H202        2.5580    1.2900   -0.2880 hc        1 OHM      0.039200
     27 H191        2.0020    0.5190    2.0430 hc        1 OHM      0.041700
     28 H192        2.4120   -1.1770    1.5800 hc        1 OHM      0.041700
     29 H181        4.3420    1.2450    1.4580 hc        1 OHM      0.041700
     30 H182        4.7520   -0.4510    0.9960 hc        1 OHM      0.041700
     31 H171        4.1970   -1.2220    3.3280 hc        1 OHM      0.043700
     32 H172        3.7860    0.4740    3.7910 hc        1 OHM      0.043700
     33 H161        6.1260    1.2000    3.2050 hc        1 OHM      0.043700
     34 H162        6.5360   -0.4970    2.7430 hc        1 OHM      0.043700
     35 H151        5.9800   -1.2680    5.0750 hc        1 OHM      0.050700
     36 H152        5.5670    0.4290    5.5390 hc        1 OHM      0.050700
     37 H141        8.3180   -0.5500    4.4950 hc        1 OHM      0.051700
     38 H142        7.9080    1.1560    4.9450 hc        1 OHM      0.051700
     39 H131        7.3420    0.3940    7.2890 hc        1 OHM      0.091700
     40 H132        7.7520   -1.3150    6.8210 hc        1 OHM      0.091700
     41 H101        9.4310    1.6350    8.3400 hc        1 OHM      0.142700
     42 H102        9.1690    2.1390    6.6140 hc        1 OHM      0.142700
     43 HN7        12.2510    0.0560    7.0310 hn        1 OHM      0.484800
     44 H1         13.7810    2.1340    6.9610 hx        1 OHM      0.153700
     45 H51        13.1830    1.8810    9.9520 hc        1 OHM      0.086200
     46 H52        14.0390    3.1860    9.0340 hc        1 OHM      0.086200
     47 H41        16.1260    2.2360    9.4870 h1        1 OHM      0.081200
     48 H42        15.2750    1.1050   10.6400 h1        1 OHM      0.081200
     49 HN3        16.3950   -0.1840    8.7320 hn        1 OHM      0.371500
     50 H72        11.8970    0.5160    8.5910 hn        1 OHM      0.484800
@<TRIPOS>BOND
     1    1    2 1   
     2    1   22 1   
     3    1   23 1   
     4    1   24 1   
     5    2    3 1   
     6    2   25 1   
     7    2   26 1   
     8    3    4 1   
     9    3   27 1   
    10    3   28 1   
    11    4    5 1   
    12    4   29 1   
    13    4   30 1   
    14    5    6 1   
    15    5   31 1   
    16    5   32 1   
    17    6    7 1   
    18    6   33 1   
    19    6   34 1   
    20    7    8 1   
    21    7   35 1   
    22    7   36 1   
    23    8    9 1   
    24    8   37 1   
    25    8   38 1   
    26    9   10 1   
    27    9   39 1   
    28    9   40 1   
    29   10   11 2   
    30   10   12 1   
    31   12   13 1   
    32   12   41 1   
    33   12   42 1   
    34   13   14 2   
    35   13   15 1   
    36   15   16 1   
    37   15   43 1   
    38   15   50 1   
    39   16   17 1   
    40   16   20 1   
    41   16   44 1   
    42   17   18 1   
    43   17   45 1   
    44   17   46 1   
    45   18   19 1   
    46   18   47 1   
    47   18   48 1   
    48   19   20 1   
    49   19   49 1   
    50   20   21 2   
@<TRIPOS>SUBSTRUCTURE
     1 OHM         1 TEMP              0 ****  ****    0 ROOT
