@<TRIPOS>MOLECULE
OHM
   49    49     1     0     0
SMALL
bcc


@<TRIPOS>ATOM
      1 C21         4.2420    4.9540   -8.7370 c3        1 OHM     -0.092100
      2 C20         4.6330    5.1940   -7.3010 c3        1 OHM     -0.080400
      3 C19         3.5710    4.6940   -6.3450 c3        1 OHM     -0.079400
      4 C18         3.9690    4.9370   -4.9050 c3        1 OHM     -0.079400
      5 C17         2.9070    4.4360   -3.9500 c3        1 OHM     -0.079400
      6 C16         3.3050    4.6800   -2.5100 c3        1 OHM     -0.078400
      7 C15         2.2420    4.1790   -1.5550 c3        1 OHM     -0.078400
      8 C14         2.6440    4.4240   -0.1170 c3        1 OHM     -0.076400
      9 C13         1.5820    3.9220    0.8370 c3        1 OHM     -0.177400
     10 C11         1.9400    4.1500    2.2740 c         1 OHM      0.578100
     11 O12         2.9820    4.7030    2.6390 o         1 OHM     -0.537100
     12 C10         0.9370    3.6280    3.2700 c3        1 OHM     -0.269400
     13 C8          0.2930    4.7160    4.1120 c         1 OHM      0.673100
     14 O9         -0.9390    4.7190    4.2980 o         1 OHM     -0.597100
     15 N7          1.1300    5.6370    4.7160 n         1 OHM     -0.547900
     16 C1          0.6110    6.7910    5.3900 c3        1 OHM      0.027700
     17 C5          1.1960    7.0180    6.8080 c3        1 OHM     -0.104400
     18 C4          1.6890    8.4790    6.8380 c3        1 OHM      0.092000
     19 N3          1.5170    9.0110    5.5090 n         1 OHM     -0.584900
     20 C2          0.9170    8.1200    4.6400 c         1 OHM      0.670500
     21 O6          0.6620    8.3570    3.4510 o         1 OHM     -0.618500
     22 H211        3.2870    5.4810   -8.9790 hc        1 OHM      0.032367
     23 H212        4.0960    3.8630   -8.9280 hc        1 OHM      0.032367
     24 H213        5.0370    5.3300   -9.4240 hc        1 OHM      0.032367
     25 H201        4.7980    6.2910   -7.1350 hc        1 OHM      0.038700
     26 H202        5.6050    4.6780   -7.0840 hc        1 OHM      0.038700
     27 H191        3.4050    3.5960   -6.5090 hc        1 OHM      0.039200
     28 H192        2.5990    5.2100   -6.5600 hc        1 OHM      0.039200
     29 H181        4.1340    6.0350   -4.7410 hc        1 OHM      0.040200
     30 H182        4.9410    4.4210   -4.6900 hc        1 OHM      0.040200
     31 H171        2.7410    3.3390   -4.1140 hc        1 OHM      0.039700
     32 H172        1.9340    4.9530   -4.1640 hc        1 OHM      0.039700
     33 H161        4.2770    4.1640   -2.2950 hc        1 OHM      0.042200
     34 H162        3.4700    5.7780   -2.3450 hc        1 OHM      0.042200
     35 H151        1.2700    4.6970   -1.7690 hc        1 OHM      0.039200
     36 H152        2.0760    3.0810   -1.7200 hc        1 OHM      0.039200
     37 H141        3.6170    3.9100    0.1030 hc        1 OHM      0.056700
     38 H142        2.8090    5.5210    0.0540 hc        1 OHM      0.056700
     39 H131        0.6060    4.4420    0.6330 hc        1 OHM      0.074200
     40 H132        1.4140    2.8220    0.6820 hc        1 OHM      0.074200
     41 H101        0.1110    3.0770    2.7460 hc        1 OHM      0.097200
     42 H102        1.4540    2.9070    3.9610 hc        1 OHM      0.097200
     43 HN7         2.0880    5.6650    4.4390 hn        1 OHM      0.334500
     44 H1         -0.5150    6.7000    5.4540 h1        1 OHM      0.118700
     45 H51         2.0410    6.3230    7.0330 hc        1 OHM      0.066200
     46 H52         0.4010    6.8560    7.5750 hc        1 OHM      0.066200
     47 H41         1.0970    9.0810    7.5820 h1        1 OHM      0.043700
     48 H42         2.7720    8.5290    7.1360 h1        1 OHM      0.043700
     49 HN3         1.7370    9.9450    5.2810 hn        1 OHM      0.334500
@<TRIPOS>BOND
     1    1    2 1   
     2    1   22 1   
     3    1   23 1   
     4    1   24 1   
     5    2    3 1   
     6    2   25 1   
     7    2   26 1   
     8    3    4 1   
     9    3   27 1   
    10    3   28 1   
    11    4    5 1   
    12    4   29 1   
    13    4   30 1   
    14    5    6 1   
    15    5   31 1   
    16    5   32 1   
    17    6    7 1   
    18    6   33 1   
    19    6   34 1   
    20    7    8 1   
    21    7   35 1   
    22    7   36 1   
    23    8    9 1   
    24    8   37 1   
    25    8   38 1   
    26    9   10 1   
    27    9   39 1   
    28    9   40 1   
    29   10   11 2   
    30   10   12 1   
    31   12   13 1   
    32   12   41 1   
    33   12   42 1   
    34   13   14 2   
    35   13   15 1   
    36   15   16 1   
    37   15   43 1   
    38   16   17 1   
    39   16   20 1   
    40   16   44 1   
    41   17   18 1   
    42   17   45 1   
    43   17   46 1   
    44   18   19 1   
    45   18   47 1   
    46   18   48 1   
    47   19   20 1   
    48   19   49 1   
    49   20   21 2   
@<TRIPOS>SUBSTRUCTURE
     1 OHM         1 TEMP              0 ****  ****    0 ROOT
