@<TRIPOS>MOLECULE
OHM
   49    49     1     0     0
SMALL
bcc


@<TRIPOS>ATOM
      1 C21        -7.6920    1.1830   -5.0930 c3        1 OHM     -0.093100
      2 C20        -6.2470    0.7580   -4.9530 c3        1 OHM     -0.080400
      3 C19        -5.8250    0.8740   -3.5050 c3        1 OHM     -0.079400
      4 C18        -4.4330    0.3050   -3.3380 c3        1 OHM     -0.079400
      5 C17        -3.9270    0.6100   -1.9450 c3        1 OHM     -0.079400
      6 C16        -2.6130   -0.1050   -1.7180 c3        1 OHM     -0.078400
      7 C15        -1.9660    0.4170   -0.4540 c3        1 OHM     -0.079400
      8 C14        -0.6590   -0.3080   -0.2200 c3        1 OHM     -0.075400
      9 C13         0.0600    0.3170    0.9550 c3        1 OHM     -0.179400
     10 C11         1.3650   -0.4110    1.1930 c         1 OHM      0.577100
     11 O12         1.5240   -1.5320    0.7520 o         1 OHM     -0.538100
     12 C10         2.4680    0.2530    1.9880 c3        1 OHM     -0.269400
     13 C8          3.4630   -0.7930    2.4410 c         1 OHM      0.677100
     14 O9          3.1730   -1.9720    2.3860 o         1 OHM     -0.603100
     15 N7          4.7270   -0.3970    2.9480 n         1 OHM     -0.552900
     16 C1          5.6290   -1.3530    3.3820 c3        1 OHM      0.035700
     17 C5          6.9980   -1.0370    2.8340 c3        1 OHM     -0.111400
     18 C4          7.8250   -0.5060    3.9770 c3        1 OHM      0.091000
     19 N3          6.9740   -0.3040    5.0310 n         1 OHM     -0.583900
     20 C2          5.8270   -1.2170    4.8350 c         1 OHM      0.673500
     21 O6          5.0620   -1.5970    5.6990 o         1 OHM     -0.616500
     22 H211       -7.9450    1.1740   -6.0390 hc        1 OHM      0.032700
     23 H212       -8.2650    0.5630   -4.5950 hc        1 OHM      0.032700
     24 H213       -7.8020    2.0890   -4.7340 hc        1 OHM      0.032700
     25 H201       -5.6820    1.3360   -5.5040 hc        1 OHM      0.038700
     26 H202       -6.1500   -0.1700   -5.2480 hc        1 OHM      0.038700
     27 H191       -6.4500    0.3750   -2.9420 hc        1 OHM      0.039700
     28 H192       -5.8260    1.8150   -3.2390 hc        1 OHM      0.039700
     29 H181       -3.8340    0.7090   -3.9980 hc        1 OHM      0.039700
     30 H182       -4.4580   -0.6640   -3.4710 hc        1 OHM      0.039700
     31 H171       -3.7940    1.5740   -1.8500 hc        1 OHM      0.039700
     32 H172       -4.5820    0.3050   -1.2860 hc        1 OHM      0.039700
     33 H161       -2.0190    0.0540   -2.4780 hc        1 OHM      0.042700
     34 H162       -2.7760   -1.0660   -1.6280 hc        1 OHM      0.042700
     35 H151       -1.7960    1.3760   -0.5480 hc        1 OHM      0.039200
     36 H152       -2.5640    0.2650    0.3050 hc        1 OHM      0.039200
     37 H141       -0.1000   -0.2380   -1.0190 hc        1 OHM      0.055200
     38 H142       -0.8390   -1.2500   -0.0280 hc        1 OHM      0.055200
     39 H131        0.2430    1.2590    0.7630 hc        1 OHM      0.072700
     40 H132       -0.5010    0.2510    1.7540 hc        1 OHM      0.072700
     41 H101        2.9210    0.9130    1.4270 hc        1 OHM      0.100200
     42 H102        2.0840    0.6970    2.7700 hc        1 OHM      0.100200
     43 HN7         4.9460    0.4880    2.9880 hn        1 OHM      0.338500
     44 H1          5.2000   -2.1720    3.0650 h1        1 OHM      0.117700
     45 H51         6.9280   -0.3610    2.1310 hc        1 OHM      0.066700
     46 H52         7.4090   -1.8490    2.4750 hc        1 OHM      0.066700
     47 H41         8.5120   -1.1600    4.2240 h1        1 OHM      0.043200
     48 H42         8.2460    0.3400    3.7200 h1        1 OHM      0.043200
     49 HN3         7.1640    0.1640    5.7900 hn        1 OHM      0.333500
@<TRIPOS>BOND
     1    1    2 1   
     2    1   22 1   
     3    1   23 1   
     4    1   24 1   
     5    2    3 1   
     6    2   25 1   
     7    2   26 1   
     8    3    4 1   
     9    3   27 1   
    10    3   28 1   
    11    4    5 1   
    12    4   29 1   
    13    4   30 1   
    14    5    6 1   
    15    5   31 1   
    16    5   32 1   
    17    6    7 1   
    18    6   33 1   
    19    6   34 1   
    20    7    8 1   
    21    7   35 1   
    22    7   36 1   
    23    8    9 1   
    24    8   37 1   
    25    8   38 1   
    26    9   10 1   
    27    9   39 1   
    28    9   40 1   
    29   10   11 2   
    30   10   12 1   
    31   12   13 1   
    32   12   41 1   
    33   12   42 1   
    34   13   14 2   
    35   13   15 1   
    36   15   16 1   
    37   15   43 1   
    38   16   17 1   
    39   16   20 1   
    40   16   44 1   
    41   17   18 1   
    42   17   45 1   
    43   17   46 1   
    44   18   19 1   
    45   18   47 1   
    46   18   48 1   
    47   19   20 1   
    48   19   49 1   
    49   20   21 2   
@<TRIPOS>SUBSTRUCTURE
     1 OHM         1 TEMP              0 ****  ****    0 ROOT
