@<TRIPOS>MOLECULE
OHN
   48    48     1     0     0
SMALL
bcc


@<TRIPOS>ATOM
      1 C21         0.2370   -4.6440   -9.7390 c3        1 OHN     -0.092100
      2 C20        -0.8390   -4.6720   -8.6840 c3        1 OHN     -0.080400
      3 C19        -0.2550   -4.5700   -7.2910 c3        1 OHN     -0.079400
      4 C18        -1.3400   -4.5990   -6.2360 c3        1 OHN     -0.079400
      5 C17        -0.7540   -4.4960   -4.8440 c3        1 OHN     -0.079400
      6 C16        -1.8400   -4.5250   -3.7890 c3        1 OHN     -0.078400
      7 C15        -1.2540   -4.4220   -2.3970 c3        1 OHN     -0.078400
      8 C14        -2.3420   -4.4500   -1.3450 c3        1 OHN     -0.076400
      9 C13        -1.7550   -4.3460    0.0450 c3        1 OHN     -0.177400
     10 C11        -2.8010   -4.3780    1.1180 c         1 OHN      0.577100
     11 O12        -4.0090   -4.5030    0.8910 o         1 OHN     -0.537100
     12 C10        -2.2770   -4.2150    2.5210 c3        1 OHN     -0.268400
     13 C8         -2.5760   -5.3910    3.4330 c         1 OHN      0.674100
     14 O9         -1.6890   -5.8580    4.1720 o         1 OHN     -0.594100
     15 N7         -3.8750   -5.8670    3.4590 n         1 OHN     -0.553900
     16 C1         -4.2270   -7.0470    4.1930 c3        1 OHN      0.021700
     17 C5         -5.4890   -6.9050    5.0750 c3        1 OHN     -0.127400
     18 C4         -6.3480   -8.1290    4.7650 c3        1 OHN      0.119400
     19 C2         -4.5590   -8.2500    3.3020 c         1 OHN      0.685600
     20 O6         -3.9610   -8.7570    2.3640 o         1 OHN     -0.551500
     21 OAP        -5.7450   -8.8460    3.6700 os        1 OHN     -0.405900
     22 H211        0.9460   -5.4970   -9.6020 hc        1 OHN      0.032367
     23 H212        0.8200   -3.6930   -9.6820 hc        1 OHN      0.032367
     24 H213       -0.2150   -4.7210  -10.7570 hc        1 OHN      0.032367
     25 H201       -1.4290   -5.6230   -8.7730 hc        1 OHN      0.038700
     26 H202       -1.5540   -3.8240   -8.8530 hc        1 OHN      0.038700
     27 H191        0.3340   -3.6190   -7.2000 hc        1 OHN      0.039200
     28 H192        0.4590   -5.4180   -7.1200 hc        1 OHN      0.039200
     29 H181       -1.9280   -5.5490   -6.3270 hc        1 OHN      0.040200
     30 H182       -2.0540   -3.7500   -6.4070 hc        1 OHN      0.040200
     31 H171       -0.1650   -3.5460   -4.7530 hc        1 OHN      0.039700
     32 H172       -0.0410   -5.3450   -4.6720 hc        1 OHN      0.039700
     33 H161       -2.5540   -3.6760   -3.9600 hc        1 OHN      0.043200
     34 H162       -2.4280   -5.4760   -3.8800 hc        1 OHN      0.043200
     35 H151       -0.5410   -5.2710   -2.2250 hc        1 OHN      0.039700
     36 H152       -0.6650   -3.4710   -2.3060 hc        1 OHN      0.039700
     37 H141       -3.0590   -3.6040   -1.5120 hc        1 OHN      0.056700
     38 H142       -2.9330   -5.4000   -1.4300 hc        1 OHN      0.056700
     39 H131       -1.0440   -5.1980    0.2270 hc        1 OHN      0.074200
     40 H132       -1.1690   -3.3930    0.1460 hc        1 OHN      0.074200
     41 H101       -1.1620   -4.0760    2.5110 hc        1 OHN      0.099200
     42 H102       -2.7370   -3.2930    2.9730 hc        1 OHN      0.099200
     43 H7         -4.5240   -5.5400    2.7760 hn        1 OHN      0.338500
     44 H1         -3.3450   -7.3450    4.8400 h1        1 OHN      0.125700
     45 H5C1       -6.0540   -5.9650    4.8550 hc        1 OHN      0.072200
     46 H5C2       -5.1990   -6.8830    6.1530 hc        1 OHN      0.072200
     47 H4C1       -6.3970   -8.8440    5.6250 h1        1 OHN      0.065700
     48 H4C2       -7.3800   -7.8570    4.4300 h1        1 OHN      0.065700
@<TRIPOS>BOND
     1    1    2 1   
     2    1   22 1   
     3    1   23 1   
     4    1   24 1   
     5    2    3 1   
     6    2   25 1   
     7    2   26 1   
     8    3    4 1   
     9    3   27 1   
    10    3   28 1   
    11    4    5 1   
    12    4   29 1   
    13    4   30 1   
    14    5    6 1   
    15    5   31 1   
    16    5   32 1   
    17    6    7 1   
    18    6   33 1   
    19    6   34 1   
    20    7    8 1   
    21    7   35 1   
    22    7   36 1   
    23    8    9 1   
    24    8   37 1   
    25    8   38 1   
    26    9   10 1   
    27    9   39 1   
    28    9   40 1   
    29   10   11 2   
    30   10   12 1   
    31   12   13 1   
    32   12   41 1   
    33   12   42 1   
    34   13   14 2   
    35   13   15 1   
    36   15   16 1   
    37   15   43 1   
    38   16   17 1   
    39   16   19 1   
    40   16   44 1   
    41   17   18 1   
    42   17   45 1   
    43   17   46 1   
    44   18   21 1   
    45   18   47 1   
    46   18   48 1   
    47   19   20 2   
    48   19   21 1   
@<TRIPOS>SUBSTRUCTURE
     1 OHN         1 TEMP              0 ****  ****    0 ROOT
