@<TRIPOS>MOLECULE
OHN
   49    49     1     0     0
SMALL
bcc


@<TRIPOS>ATOM
      1 C21         0.8190    0.1400   -0.3220 c3        1 OHN     -0.094100
      2 C20         2.2720    0.3970   -0.0200 c3        1 OHN     -0.079400
      3 C19         2.6250   -0.0120    1.3950 c3        1 OHN     -0.079400
      4 C18         4.0860    0.2470    1.6940 c3        1 OHN     -0.079400
      5 C17         4.4360   -0.1620    3.1080 c3        1 OHN     -0.079400
      6 C16         5.8970    0.0980    3.4060 c3        1 OHN     -0.079400
      7 C15         6.2450   -0.3120    4.8220 c3        1 OHN     -0.080400
      8 C14         7.7080   -0.0500    5.1170 c3        1 OHN     -0.074400
      9 C13         8.0430   -0.4600    6.5400 c3        1 OHN     -0.176400
     10 C11         9.4880   -0.2200    6.8390 c         1 OHN      0.595100
     11 O12        10.3670   -1.0830    6.7560 o         1 OHN     -0.545100
     12 C10         9.8230    1.1860    7.2890 c3        1 OHN     -0.290400
     13 C8         11.2600    1.5960    7.1570 c         1 OHN      0.558100
     14 O9         11.6760    2.6350    6.6720 o         1 OHN     -0.396100
     15 N7         12.2840    0.6130    7.6840 ny        1 OHN     -0.664800
     16 C1         13.6800    1.1280    7.7280 c3        1 OHN     -0.000500
     17 C5         14.0880    1.8650    9.0130 c3        1 OHN     -0.128400
     18 C4         15.4690    1.2980    9.3630 c3        1 OHN      0.116400
     19 C2         14.6930   -0.0280    7.6390 c         1 OHN      0.698600
     20 O6         14.6680   -0.9930    6.8930 o         1 OHN     -0.506500
     21 OAP        15.6910    0.1190    8.5500 os        1 OHN     -0.347900
     22 H211        0.1620    0.7170    0.3730 hc        1 OHN      0.036033
     23 H212        0.5800    0.4480   -1.3690 hc        1 OHN      0.036033
     24 H213        0.5780   -0.9450   -0.2110 hc        1 OHN      0.036033
     25 H201        2.5000    1.4860   -0.1620 hc        1 OHN      0.039200
     26 H202        2.9140   -0.1710   -0.7440 hc        1 OHN      0.039200
     27 H191        2.3990   -1.1020    1.5370 hc        1 OHN      0.041700
     28 H192        1.9850    0.5550    2.1200 hc        1 OHN      0.041700
     29 H181        4.3110    1.3370    1.5500 hc        1 OHN      0.041700
     30 H182        4.7250   -0.3210    0.9670 hc        1 OHN      0.041700
     31 H171        3.7960    0.4060    3.8340 hc        1 OHN      0.044200
     32 H172        4.2110   -1.2520    3.2500 hc        1 OHN      0.044200
     33 H161        6.5360   -0.4710    2.6810 hc        1 OHN      0.043700
     34 H162        6.1220    1.1880    3.2620 hc        1 OHN      0.043700
     35 H151        6.0220   -1.4030    4.9630 hc        1 OHN      0.051200
     36 H152        5.6040    0.2560    5.5470 hc        1 OHN      0.051200
     37 H141        7.9310    1.0400    4.9690 hc        1 OHN      0.051700
     38 H142        8.3450   -0.6290    4.3970 hc        1 OHN      0.051700
     39 H131        7.8210   -1.5540    6.6750 hc        1 OHN      0.093200
     40 H132        7.4060    0.1150    7.2640 hc        1 OHN      0.093200
     41 H101        9.5030    1.3030    8.3640 hc        1 OHN      0.143700
     42 H102        9.2140    1.9190    6.6790 hc        1 OHN      0.143700
     43 H7         11.9920    0.3050    8.6180 hn        1 OHN      0.485800
     44 H1         13.8320    1.8010    6.8270 hx        1 OHN      0.160700
     45 H5C1       13.3740    1.6950    9.8580 hc        1 OHN      0.093700
     46 H5C2       14.1480    2.9680    8.8310 hc        1 OHN      0.093700
     47 H4C1       16.2970    2.0140    9.1220 h1        1 OHN      0.103200
     48 H4C2       15.5430    0.9550   10.4260 h1        1 OHN      0.103200
     49 H72        12.2570   -0.2270    7.0590 hn        1 OHN      0.485800
@<TRIPOS>BOND
     1    1    2 1   
     2    1   22 1   
     3    1   23 1   
     4    1   24 1   
     5    2    3 1   
     6    2   25 1   
     7    2   26 1   
     8    3    4 1   
     9    3   27 1   
    10    3   28 1   
    11    4    5 1   
    12    4   29 1   
    13    4   30 1   
    14    5    6 1   
    15    5   31 1   
    16    5   32 1   
    17    6    7 1   
    18    6   33 1   
    19    6   34 1   
    20    7    8 1   
    21    7   35 1   
    22    7   36 1   
    23    8    9 1   
    24    8   37 1   
    25    8   38 1   
    26    9   10 1   
    27    9   39 1   
    28    9   40 1   
    29   10   11 2   
    30   10   12 1   
    31   12   13 1   
    32   12   41 1   
    33   12   42 1   
    34   13   14 2   
    35   13   15 1   
    36   15   16 1   
    37   15   43 1   
    38   15   49 1   
    39   16   17 1   
    40   16   19 1   
    41   16   44 1   
    42   17   18 1   
    43   17   45 1   
    44   17   46 1   
    45   18   21 1   
    46   18   47 1   
    47   18   48 1   
    48   19   20 2   
    49   19   21 1   
@<TRIPOS>SUBSTRUCTURE
     1 OHN         1 TEMP              0 ****  ****    0 ROOT
