@<TRIPOS>MOLECULE
OHN
   49    49     1     0     0
SMALL
bcc


@<TRIPOS>ATOM
      1 C21         0.7850    0.1430   -0.2780 c3        1 OHN     -0.094100
      2 C20         2.2310    0.4380    0.0270 c3        1 OHN     -0.079400
      3 C19         2.6110   -0.0270    1.4170 c3        1 OHN     -0.079400
      4 C18         4.0640    0.2710    1.7180 c3        1 OHN     -0.079400
      5 C17         4.4410   -0.1950    3.1090 c3        1 OHN     -0.079400
      6 C16         5.8950    0.1030    3.4090 c3        1 OHN     -0.079400
      7 C15         6.2690   -0.3640    4.8000 c3        1 OHN     -0.080400
      8 C14         7.7250   -0.0650    5.0960 c3        1 OHN     -0.074400
      9 C13         8.0870   -0.5330    6.4950 c3        1 OHN     -0.176400
     10 C11         9.5260   -0.2580    6.7940 c         1 OHN      0.595100
     11 O12        10.4340   -1.0850    6.6600 o         1 OHN     -0.545100
     12 C10         9.8160    1.1350    7.3120 c3        1 OHN     -0.290400
     13 C8         11.2380    1.6000    7.1900 c         1 OHN      0.558100
     14 O9         11.6130    2.6770    6.7570 o         1 OHN     -0.396100
     15 N7         12.3000    0.6270    7.6570 n4        1 OHN     -0.664800
     16 C1         13.6770    1.1880    7.7190 c3        1 OHN     -0.000500
     17 C5         14.0710    1.8690    9.0400 c3        1 OHN     -0.128400
     18 C4         15.4740    1.3330    9.3480 c3        1 OHN      0.116400
     19 C2         14.7290    0.0750    7.5600 c         1 OHN      0.698600
     20 O6         14.7310   -0.8480    6.7630 o         1 OHN     -0.506500
     21 OAP        15.7300    0.2080    8.4710 os        1 OHN     -0.347900
     22 H211        0.1150    0.6620    0.4500 hc        1 OHN      0.036033
     23 H212        0.5850   -0.9540   -0.2170 hc        1 OHN      0.036033
     24 H213        0.5270    0.4930   -1.3060 hc        1 OHN      0.036033
     25 H201        2.4180    1.5400   -0.0630 hc        1 OHN      0.039200
     26 H202        2.8870   -0.0710   -0.7290 hc        1 OHN      0.039200
     27 H191        1.9570    0.4820    2.1740 hc        1 OHN      0.041700
     28 H192        2.4250   -1.1290    1.5080 hc        1 OHN      0.041700
     29 H181        4.7160   -0.2380    0.9610 hc        1 OHN      0.041700
     30 H182        4.2490    1.3740    1.6270 hc        1 OHN      0.041700
     31 H171        3.7880    0.3150    3.8660 hc        1 OHN      0.044200
     32 H172        4.2560   -1.2970    3.1990 hc        1 OHN      0.044200
     33 H161        6.5470   -0.4070    2.6510 hc        1 OHN      0.043700
     34 H162        6.0790    1.2060    3.3170 hc        1 OHN      0.043700
     35 H151        6.0850   -1.4670    4.8890 hc        1 OHN      0.051200
     36 H152        5.6160    0.1450    5.5570 hc        1 OHN      0.051200
     37 H141        7.9090    1.0380    5.0010 hc        1 OHN      0.051700
     38 H142        8.3760   -0.5850    4.3440 hc        1 OHN      0.051700
     39 H131        7.9040   -1.6400    6.5760 hc        1 OHN      0.093200
     40 H132        7.4380   -0.0170    7.2510 hc        1 OHN      0.093200
     41 H101        9.5030    1.1870    8.3940 hc        1 OHN      0.144200
     42 H102        9.1780    1.8760    6.7440 hc        1 OHN      0.144200
     43 H7         12.0270    0.2600    8.5750 hn        1 OHN      0.485800
     44 H1         13.7980    1.9140    6.8560 hx        1 OHN      0.160700
     45 H5C1       14.0910    2.9810    8.9180 hc        1 OHN      0.093700
     46 H5C2       13.3710    1.6280    9.8790 hc        1 OHN      0.093700
     47 H4C1       16.2740    2.0890    9.1410 h1        1 OHN      0.103200
     48 H4C2       15.5690    0.9350   10.3910 h1        1 OHN      0.103200
     49 H72        12.2960   -0.1780    6.9890 hn        1 OHN      0.485800
@<TRIPOS>BOND
     1    1    2 1   
     2    1   22 1   
     3    1   23 1   
     4    1   24 1   
     5    2    3 1   
     6    2   25 1   
     7    2   26 1   
     8    3    4 1   
     9    3   27 1   
    10    3   28 1   
    11    4    5 1   
    12    4   29 1   
    13    4   30 1   
    14    5    6 1   
    15    5   31 1   
    16    5   32 1   
    17    6    7 1   
    18    6   33 1   
    19    6   34 1   
    20    7    8 1   
    21    7   35 1   
    22    7   36 1   
    23    8    9 1   
    24    8   37 1   
    25    8   38 1   
    26    9   10 1   
    27    9   39 1   
    28    9   40 1   
    29   10   11 2   
    30   10   12 1   
    31   12   13 1   
    32   12   41 1   
    33   12   42 1   
    34   13   14 2   
    35   13   15 1   
    36   15   16 1   
    37   15   43 1   
    38   15   49 1   
    39   16   17 1   
    40   16   19 1   
    41   16   44 1   
    42   17   18 1   
    43   17   45 1   
    44   17   46 1   
    45   18   21 1   
    46   18   47 1   
    47   18   48 1   
    48   19   20 2   
    49   19   21 1   
@<TRIPOS>SUBSTRUCTURE
     1 OHN         1 TEMP              0 ****  ****    0 ROOT
