@<TRIPOS>MOLECULE
OHN
   49    49     1     0     0
SMALL
bcc


@<TRIPOS>ATOM
      1 C21         0.7930    0.1660   -0.2960 c3        1 OHN     -0.094100
      2 C20         2.2370    0.4660    0.0160 c3        1 OHN     -0.079400
      3 C19         2.6180   -0.0190    1.3980 c3        1 OHN     -0.079400
      4 C18         4.0680    0.2850    1.7070 c3        1 OHN     -0.079400
      5 C17         4.4470   -0.2010    3.0890 c3        1 OHN     -0.079400
      6 C16         5.8980    0.1040    3.3970 c3        1 OHN     -0.079400
      7 C15         6.2740   -0.3830    4.7810 c3        1 OHN     -0.080400
      8 C14         7.7260   -0.0760    5.0850 c3        1 OHN     -0.074400
      9 C13         8.0900   -0.5620    6.4770 c3        1 OHN     -0.176400
     10 C11         9.5250   -0.2790    6.7850 c         1 OHN      0.595100
     11 O12        10.4410   -1.0950    6.6420 o         1 OHN     -0.545100
     12 C10         9.8010    1.1090    7.3240 c3        1 OHN     -0.290400
     13 C8         11.2180    1.5890    7.2110 c         1 OHN      0.558100
     14 O9         11.5840    2.6740    6.7920 o         1 OHN     -0.395100
     15 N7         12.2880    0.6210    7.6700 n4        1 OHN     -0.664800
     16 C1         13.6600    1.1930    7.7400 c3        1 OHN     -0.000500
     17 C5         14.0450    1.8660    9.0670 c3        1 OHN     -0.128400
     18 C4         15.4520    1.3400    9.3740 c3        1 OHN      0.116400
     19 C2         14.7230    0.0910    7.5740 c         1 OHN      0.698600
     20 O6         14.7340   -0.8260    6.7700 o         1 OHN     -0.506500
     21 OAP        15.7200    0.2250    8.4890 os        1 OHN     -0.347900
     22 H211        0.6010   -0.9340   -0.2550 hc        1 OHN      0.036033
     23 H212        0.5340    0.5310   -1.3190 hc        1 OHN      0.036033
     24 H213        0.1180    0.6660    0.4400 hc        1 OHN      0.036033
     25 H201        2.8970   -0.0240   -0.7480 hc        1 OHN      0.039200
     26 H202        2.4150    1.5720   -0.0550 hc        1 OHN      0.039200
     27 H191        2.4410   -1.1250    1.4700 hc        1 OHN      0.041700
     28 H192        1.9590    0.4710    2.1630 hc        1 OHN      0.041700
     29 H181        4.2440    1.3910    1.6350 hc        1 OHN      0.041700
     30 H182        4.7260   -0.2050    0.9420 hc        1 OHN      0.041700
     31 H171        3.7880    0.2890    3.8540 hc        1 OHN      0.044200
     32 H172        4.2720   -1.3070    3.1600 hc        1 OHN      0.044200
     33 H161        6.0730    1.2100    3.3240 hc        1 OHN      0.043700
     34 H162        6.5560   -0.3880    2.6320 hc        1 OHN      0.043700
     35 H151        6.1000   -1.4890    4.8510 hc        1 OHN      0.051200
     36 H152        5.6150    0.1070    5.5450 hc        1 OHN      0.051200
     37 H141        7.9000    1.0300    5.0090 hc        1 OHN      0.051700
     38 H142        8.3830   -0.5770    4.3260 hc        1 OHN      0.051700
     39 H131        7.4330   -0.0660    7.2400 hc        1 OHN      0.093200
     40 H132        7.9170   -1.6730    6.5400 hc        1 OHN      0.093200
     41 H101        9.1560    1.8520    6.7650 hc        1 OHN      0.143700
     42 H102        9.4850    1.1410    8.4060 hc        1 OHN      0.143700
     43 H7         12.0170    0.2420    8.5840 hn        1 OHN      0.485800
     44 H1         13.7760    1.9280    6.8830 hx        1 OHN      0.160700
     45 H5C1       14.0550    2.9800    8.9540 hc        1 OHN      0.093700
     46 H5C2       13.3450    1.6120    9.9020 hc        1 OHN      0.093700
     47 H4C1       15.5480    0.9350   10.4140 h1        1 OHN      0.103200
     48 H4C2       16.2460    2.1050    9.1750 h1        1 OHN      0.103200
     49 H72        12.2930   -0.1780    6.9940 hn        1 OHN      0.485800
@<TRIPOS>BOND
     1    1    2 1   
     2    1   22 1   
     3    1   23 1   
     4    1   24 1   
     5    2    3 1   
     6    2   25 1   
     7    2   26 1   
     8    3    4 1   
     9    3   27 1   
    10    3   28 1   
    11    4    5 1   
    12    4   29 1   
    13    4   30 1   
    14    5    6 1   
    15    5   31 1   
    16    5   32 1   
    17    6    7 1   
    18    6   33 1   
    19    6   34 1   
    20    7    8 1   
    21    7   35 1   
    22    7   36 1   
    23    8    9 1   
    24    8   37 1   
    25    8   38 1   
    26    9   10 1   
    27    9   39 1   
    28    9   40 1   
    29   10   11 2   
    30   10   12 1   
    31   12   13 1   
    32   12   41 1   
    33   12   42 1   
    34   13   14 2   
    35   13   15 1   
    36   15   16 1   
    37   15   43 1   
    38   15   49 1   
    39   16   17 1   
    40   16   19 1   
    41   16   44 1   
    42   17   18 1   
    43   17   45 1   
    44   17   46 1   
    45   18   21 1   
    46   18   47 1   
    47   18   48 1   
    48   19   20 2   
    49   19   21 1   
@<TRIPOS>SUBSTRUCTURE
     1 OHN         1 TEMP              0 ****  ****    0 ROOT
