@<TRIPOS>MOLECULE
OHN
   48    48     1     0     0
SMALL
bcc


@<TRIPOS>ATOM
      1 C21        -7.4730   -4.4350   -0.7940 c3        1 OHN     -0.092100
      2 C20        -6.6310   -3.1790   -0.7540 c3        1 OHN     -0.080400
      3 C19        -5.2010   -3.5180   -1.1110 c3        1 OHN     -0.079400
      4 C18        -4.2930   -2.3840   -0.6880 c3        1 OHN     -0.079400
      5 C17        -2.8920   -2.6430   -1.1950 c3        1 OHN     -0.079400
      6 C16        -1.9040   -1.8310   -0.3860 c3        1 OHN     -0.078400
      7 C15        -0.6060   -1.7060   -1.1530 c3        1 OHN     -0.078400
      8 C14         0.4830   -1.2160   -0.2240 c3        1 OHN     -0.076400
      9 C13         1.5570   -0.5170   -1.0300 c3        1 OHN     -0.177400
     10 C11         2.5480    0.1340   -0.0920 c         1 OHN      0.577100
     11 O12         2.6990   -0.3030    1.0320 o         1 OHN     -0.537100
     12 C10         3.3660    1.3190   -0.5580 c3        1 OHN     -0.268400
     13 C8          4.1590    1.8740    0.6050 c         1 OHN      0.674100
     14 O9          4.5850    1.1250    1.4610 o         1 OHN     -0.594100
     15 N7          4.4290    3.2640    0.6790 n         1 OHN     -0.553900
     16 C1          5.1840    3.7720    1.7360 c3        1 OHN      0.021700
     17 C5          5.7570    5.1090    1.3470 c3        1 OHN     -0.127400
     18 C4          4.9850    6.1540    2.0890 c3        1 OHN      0.119400
     19 C2          4.3000    4.1170    2.8430 c         1 OHN      0.685600
     20 O6          3.7960    3.3350    3.6240 o         1 OHN     -0.551500
     21 OAP         3.9220    5.5320    2.6660 os        1 OHN     -0.405900
     22 H211       -7.3650   -4.8730   -1.6650 hc        1 OHN      0.032367
     23 H212       -8.4150   -4.2020   -0.6600 hc        1 OHN      0.032367
     24 H213       -7.1820   -5.0460   -0.0840 hc        1 OHN      0.032367
     25 H201       -6.6610   -2.7950    0.1460 hc        1 OHN      0.038700
     26 H202       -6.9830   -2.5300   -1.3960 hc        1 OHN      0.038700
     27 H191       -4.9350   -4.3380   -0.6490 hc        1 OHN      0.039200
     28 H192       -5.1280   -3.6500   -2.0770 hc        1 OHN      0.039200
     29 H181       -4.6250   -1.5430   -1.0620 hc        1 OHN      0.040200
     30 H182       -4.2810   -2.3230    0.2890 hc        1 OHN      0.040200
     31 H171       -2.8320   -2.3850   -2.1360 hc        1 OHN      0.039700
     32 H172       -2.6830   -3.5940   -1.1040 hc        1 OHN      0.039700
     33 H161       -2.2720   -0.9400   -0.2210 hc        1 OHN      0.043200
     34 H162       -1.7360   -2.2780    0.4680 hc        1 OHN      0.043200
     35 H151       -0.3560   -2.5790   -1.5160 hc        1 OHN      0.039700
     36 H152       -0.7210   -1.0680   -1.8860 hc        1 OHN      0.039700
     37 H141        0.8750   -1.9770    0.2490 hc        1 OHN      0.056700
     38 H142        0.1030   -0.5900    0.4230 hc        1 OHN      0.056700
     39 H131        1.1460    0.1660   -1.5960 hc        1 OHN      0.074200
     40 H132        2.0200   -1.1710   -1.5920 hc        1 OHN      0.074200
     41 H101        2.7690    2.0110   -0.9050 hc        1 OHN      0.099200
     42 H102        3.9800    1.0330   -1.2650 hc        1 OHN      0.099200
     43 H7          4.1090    3.8260    0.0360 hn        1 OHN      0.338500
     44 H1          5.8170    3.0410    1.8820 h1        1 OHN      0.125700
     45 H5C1        5.6610    5.2450    0.3830 hc        1 OHN      0.072200
     46 H5C2        6.7020    5.1520    1.5970 hc        1 OHN      0.072200
     47 H4C1        5.5500    6.5600    2.7790 h1        1 OHN      0.065700
     48 H4C2        4.6710    6.8420    1.4660 h1        1 OHN      0.065700
@<TRIPOS>BOND
     1    1    2 1   
     2    1   22 1   
     3    1   23 1   
     4    1   24 1   
     5    2    3 1   
     6    2   25 1   
     7    2   26 1   
     8    3    4 1   
     9    3   27 1   
    10    3   28 1   
    11    4    5 1   
    12    4   29 1   
    13    4   30 1   
    14    5    6 1   
    15    5   31 1   
    16    5   32 1   
    17    6    7 1   
    18    6   33 1   
    19    6   34 1   
    20    7    8 1   
    21    7   35 1   
    22    7   36 1   
    23    8    9 1   
    24    8   37 1   
    25    8   38 1   
    26    9   10 1   
    27    9   39 1   
    28    9   40 1   
    29   10   11 2   
    30   10   12 1   
    31   12   13 1   
    32   12   41 1   
    33   12   42 1   
    34   13   14 2   
    35   13   15 1   
    36   15   16 1   
    37   15   43 1   
    38   16   17 1   
    39   16   19 1   
    40   16   44 1   
    41   17   18 1   
    42   17   45 1   
    43   17   46 1   
    44   18   21 1   
    45   18   47 1   
    46   18   48 1   
    47   19   20 2   
    48   19   21 1   
@<TRIPOS>SUBSTRUCTURE
     1 OHN         1 TEMP              0 ****  ****    0 ROOT
