@<TRIPOS>MOLECULE
OHO
   22    22     1     0     0
SMALL
bcc


@<TRIPOS>ATOM
      1 N           0.6780   -0.3500    1.1510 n         1 OHO     -0.583900
      2 C          -0.0310    0.1880    2.3040 c         1 OHO      0.983600
      3 O          -0.5630    1.3350    2.2170 o         1 OHO     -0.844300
      4 OXT        -0.0360   -0.5410    3.3410 o         1 OHO     -0.844300
      5 C1          0.2620    0.0790   -0.1570 c3        1 OHO      0.090700
      6 C2          1.4170    0.0170   -1.1770 c3        1 OHO     -0.095400
      7 C3          0.9900    0.5880   -2.5120 c3        1 OHO     -0.070900
      8 C4         -0.2110   -0.1470   -3.0720 c3        1 OHO     -0.071400
      9 C5         -1.3560   -0.1430   -2.0800 c3        1 OHO     -0.070900
     10 C6         -0.9320   -0.7070   -0.7420 c3        1 OHO     -0.095400
     11 HN          0.8150   -1.3350    1.2140 hn        1 OHO      0.236500
     12 H1         -0.0610    1.1610   -0.0570 h1        1 OHO      0.083700
     13 H21         2.2900    0.6000   -0.7860 hc        1 OHO      0.034950
     14 H22         1.7490   -1.0440   -1.3110 hc        1 OHO      0.034950
     15 H31         0.7350    1.6730   -2.3890 hc        1 OHO      0.025950
     16 H32         1.8400    0.5220   -3.2400 hc        1 OHO      0.025950
     17 H41        -0.5370    0.3330   -4.0310 hc        1 OHO      0.019700
     18 H42         0.0760   -1.2060   -3.3060 hc        1 OHO      0.019700
     19 H51        -1.7220    0.9090   -1.9390 hc        1 OHO      0.025950
     20 H52        -2.2090   -0.7430   -2.4920 hc        1 OHO      0.025950
     21 H61        -0.6540   -1.7870   -0.8610 hc        1 OHO      0.034950
     22 H62        -1.7900   -0.6500   -0.0240 hc        1 OHO      0.034950
@<TRIPOS>BOND
     1    1    2 1   
     2    1    5 1   
     3    1   11 1   
     4    2    3 1   
     5    2    4 1   
     6    5    6 1   
     7    5   10 1   
     8    5   12 1   
     9    6    7 1   
    10    6   13 1   
    11    6   14 1   
    12    7    8 1   
    13    7   15 1   
    14    7   16 1   
    15    8    9 1   
    16    8   17 1   
    17    8   18 1   
    18    9   10 1   
    19    9   19 1   
    20    9   20 1   
    21   10   21 1   
    22   10   22 1   
@<TRIPOS>SUBSTRUCTURE
     1 OHO         1 TEMP              0 ****  ****    0 ROOT
