@<TRIPOS>MOLECULE
OHO
   23    22     1     0     0
SMALL
bcc


@<TRIPOS>ATOM
      1 N          -0.0170    0.2170   -0.0740 n3        1 OHO     -0.921800
      2 C          -1.1800   -2.2150    0.4960 c1        1 OHO      0.904000
      3 O          -1.9520   -2.0180   -0.3890 o         1 OHO     -0.454000
      4 OXT        -0.4320   -2.4530    1.3900 o         1 OHO     -0.454000
      5 C1          1.4360    0.2660   -0.0920 c3        1 OHO      0.161500
      6 C2          2.0300   -0.0360    1.2930 c3        1 OHO     -0.094900
      7 C3          3.5400   -0.1110    1.2170 c3        1 OHO     -0.074400
      8 C4          4.1330    1.1700    0.6680 c3        1 OHO     -0.078400
      9 C5          3.5340    1.5160   -0.6790 c3        1 OHO     -0.074400
     10 C6          2.0250    1.5890   -0.6110 c3        1 OHO     -0.094900
     11 HN         -0.3810    0.4420   -0.9800 hn        1 OHO      0.349800
     12 H1          1.7700   -0.5550   -0.7970 h1        1 OHO      0.057700
     13 H21         1.7290    0.7660    2.0160 hc        1 OHO      0.044700
     14 H22         1.6210   -1.0100    1.6720 hc        1 OHO      0.044700
     15 H31         3.8400   -0.9720    0.5640 hc        1 OHO      0.041200
     16 H32         3.9520   -0.3070    2.2410 hc        1 OHO      0.041200
     17 H41         3.9430    2.0090    1.3880 hc        1 OHO      0.040200
     18 H42         5.2440    1.0580    0.5680 hc        1 OHO      0.040200
     19 H51         3.9400    2.5010   -1.0290 hc        1 OHO      0.041200
     20 H52         3.8370    0.7420   -1.4330 hc        1 OHO      0.041200
     21 H61         1.7190    2.4280    0.0680 hc        1 OHO      0.044700
     22 H62         1.6170    1.8130   -1.6310 hc        1 OHO      0.044700
     23 HN3        -0.3820    0.8690    0.5920 hn        1 OHO      0.349800
@<TRIPOS>BOND
     1    1    5 1   
     2    1   11 1   
     3    1   23 1   
     4    2    3 2   
     5    2    4 2   
     6    5    6 1   
     7    5   10 1   
     8    5   12 1   
     9    6    7 1   
    10    6   13 1   
    11    6   14 1   
    12    7    8 1   
    13    7   15 1   
    14    7   16 1   
    15    8    9 1   
    16    8   17 1   
    17    8   18 1   
    18    9   10 1   
    19    9   19 1   
    20    9   20 1   
    21   10   21 1   
    22   10   22 1   
@<TRIPOS>SUBSTRUCTURE
     1 OHO         1 TEMP              0 ****  ****    0 ROOT
