@<TRIPOS>MOLECULE
OHO
   23    22     1     0     0
SMALL
bcc


@<TRIPOS>ATOM
      1 N          -0.0280    0.2640   -0.0210 n8        1 OHO     -0.921800
      2 C          -1.2250   -2.1520    0.5470 c1        1 OHO      0.904000
      3 O          -2.0120   -1.9300   -0.3180 o         1 OHO     -0.454000
      4 OXT        -0.4620   -2.4150    1.4210 o         1 OHO     -0.454000
      5 C1          1.4240    0.2820   -0.0780 c3        1 OHO      0.161500
      6 C2          2.0490   -0.0500    1.2870 c3        1 OHO     -0.094900
      7 C3          3.5540   -0.1550    1.1690 c3        1 OHO     -0.074400
      8 C4          4.1600    1.1200    0.6200 c3        1 OHO     -0.078400
      9 C5          3.5330    1.4960   -0.7060 c3        1 OHO     -0.074400
     10 C6          2.0270    1.6000   -0.5960 c3        1 OHO     -0.094900
     11 HN         -0.3610    0.9150    0.6630 hn        1 OHO      0.349800
     12 H1          1.7220   -0.5360   -0.8020 h1        1 OHO      0.057700
     13 H21         1.7850    0.7490    2.0280 hc        1 OHO      0.044700
     14 H22         1.6290   -1.0200    1.6650 hc        1 OHO      0.044700
     15 H31         3.9900   -0.3730    2.1790 hc        1 OHO      0.041200
     16 H32         3.8190   -1.0140    0.4970 hc        1 OHO      0.041200
     17 H41         4.0070    1.9530    1.3560 hc        1 OHO      0.040200
     18 H42         5.2650    0.9860    0.4880 hc        1 OHO      0.040200
     19 H51         3.7990    0.7250   -1.4770 hc        1 OHO      0.041200
     20 H52         3.9500    2.4770   -1.0540 hc        1 OHO      0.041200
     21 H61         1.7580    2.4360    0.1010 hc        1 OHO      0.044700
     22 H62         1.5970    1.8450   -1.6020 hc        1 OHO      0.044700
     23 HN3        -0.4120    0.5080   -0.9130 hn        1 OHO      0.349800
@<TRIPOS>BOND
     1    1    5 1   
     2    1   11 1   
     3    1   23 1   
     4    2    3 2   
     5    2    4 2   
     6    5    6 1   
     7    5   10 1   
     8    5   12 1   
     9    6    7 1   
    10    6   13 1   
    11    6   14 1   
    12    7    8 1   
    13    7   15 1   
    14    7   16 1   
    15    8    9 1   
    16    8   17 1   
    17    8   18 1   
    18    9   10 1   
    19    9   19 1   
    20    9   20 1   
    21   10   21 1   
    22   10   22 1   
@<TRIPOS>SUBSTRUCTURE
     1 OHO         1 TEMP              0 ****  ****    0 ROOT
