@<TRIPOS>MOLECULE
OHO
   22    22     1     0     0
SMALL
bcc


@<TRIPOS>ATOM
      1 N          -1.3010    0.8710   -0.4490 n         1 OHO     -0.582900
      2 C          -2.0120    1.9220   -1.0510 c         1 OHO      0.982600
      3 O          -3.2450    2.0240   -0.8770 o         1 OHO     -0.844800
      4 OXT        -1.4060    2.7600   -1.7750 o         1 OHO     -0.844800
      5 C1          0.1340    0.8460   -0.5160 c3        1 OHO      0.091700
      6 C2          0.6950    0.8940    0.8970 c3        1 OHO     -0.092900
      7 C3          0.4210   -0.3790    1.6730 c3        1 OHO     -0.072900
      8 C4          0.8520   -1.6210    0.9210 c3        1 OHO     -0.070400
      9 C5          0.2900   -1.6690   -0.4870 c3        1 OHO     -0.072900
     10 C6          0.5650   -0.3920   -1.2660 c3        1 OHO     -0.092900
     11 HN         -1.7440    0.2350    0.0180 hn        1 OHO      0.237500
     12 H1          0.4490    1.6550   -1.0170 h1        1 OHO      0.082700
     13 H21         0.2860    1.6520    1.3750 hc        1 OHO      0.032700
     14 H22         1.6700    1.0360    0.8490 hc        1 OHO      0.032700
     15 H31         0.9030   -0.3410    2.5190 hc        1 OHO      0.028700
     16 H32        -0.5400   -0.4370    1.8570 hc        1 OHO      0.028700
     17 H41         1.8300   -1.6390    0.8710 hc        1 OHO      0.018200
     18 H42         0.5370   -2.4310    1.4250 hc        1 OHO      0.018200
     19 H51         0.6900   -2.4150   -0.9590 hc        1 OHO      0.028700
     20 H52        -0.6700   -1.8070   -0.4370 hc        1 OHO      0.028700
     21 H61         1.5170   -0.3330   -1.4450 hc        1 OHO      0.032700
     22 H62         0.0810   -0.4310   -2.1240 hc        1 OHO      0.032700
@<TRIPOS>BOND
     1    1    2 1   
     2    1    5 1   
     3    1   11 1   
     4    2    3 1   
     5    2    4 1   
     6    5    6 1   
     7    5   10 1   
     8    5   12 1   
     9    6    7 1   
    10    6   13 1   
    11    6   14 1   
    12    7    8 1   
    13    7   15 1   
    14    7   16 1   
    15    8    9 1   
    16    8   17 1   
    17    8   18 1   
    18    9   10 1   
    19    9   19 1   
    20    9   20 1   
    21   10   21 1   
    22   10   22 1   
@<TRIPOS>SUBSTRUCTURE
     1 OHO         1 TEMP              0 ****  ****    0 ROOT
