@<TRIPOS>MOLECULE
OHO
   23    22     1     0     0
SMALL
bcc


@<TRIPOS>ATOM
      1 N           0.1170    0.0130   -0.3310 n3        1 OHO     -0.921800
      2 C          -1.4720   -2.0920    0.5190 c1        1 OHO      0.901000
      3 O          -2.1370   -1.2590    1.0500 o         1 OHO     -0.452500
      4 OXT        -0.8390   -2.9550    0.0010 o         1 OHO     -0.452500
      5 C1          1.5550    0.1520   -0.1760 c3        1 OHO      0.161500
      6 C2          1.9920    0.0040    1.2900 c3        1 OHO     -0.092900
      7 C3          3.5020    0.0230    1.4010 c3        1 OHO     -0.074400
      8 C4          4.0860    1.2920    0.8160 c3        1 OHO     -0.078400
      9 C5          3.6390    1.4860   -0.6180 c3        1 OHO     -0.074400
     10 C6          2.1310    1.4660   -0.7350 c3        1 OHO     -0.092900
     11 HN         -0.1450    0.2270   -1.2740 hn        1 OHO      0.350300
     12 H1          2.0160   -0.7000   -0.7620 h1        1 OHO      0.062700
     13 H21         1.6010   -0.9610    1.7060 hc        1 OHO      0.041950
     14 H22         1.5580    0.8390    1.9000 hc        1 OHO      0.041950
     15 H31         3.7940   -0.0620    2.4800 hc        1 OHO      0.041700
     16 H32         3.9280   -0.8660    0.8650 hc        1 OHO      0.041700
     17 H41         3.7610    2.1720    1.4310 hc        1 OHO      0.040200
     18 H42         5.2050    1.2460    0.8580 hc        1 OHO      0.040200
     19 H51         4.0300    2.4640   -1.0040 hc        1 OHO      0.041700
     20 H52         4.0750    0.6740   -1.2580 hc        1 OHO      0.041700
     21 H61         1.8410    1.5790   -1.8120 hc        1 OHO      0.041950
     22 H62         1.6990    2.3350   -0.1730 hc        1 OHO      0.041950
     23 HN3        -0.3710    0.6320    0.2880 hn        1 OHO      0.350300
@<TRIPOS>BOND
     1    1    5 1   
     2    1   11 1   
     3    1   23 1   
     4    2    3 2   
     5    2    4 2   
     6    5    6 1   
     7    5   10 1   
     8    5   12 1   
     9    6    7 1   
    10    6   13 1   
    11    6   14 1   
    12    7    8 1   
    13    7   15 1   
    14    7   16 1   
    15    8    9 1   
    16    8   17 1   
    17    8   18 1   
    18    9   10 1   
    19    9   19 1   
    20    9   20 1   
    21   10   21 1   
    22   10   22 1   
@<TRIPOS>SUBSTRUCTURE
     1 OHO         1 TEMP              0 ****  ****    0 ROOT
