@<TRIPOS>MOLECULE
OHP
   18    18     1     0     0
SMALL
bcc


@<TRIPOS>ATOM
      1 C8          0.1790    0.7140   -0.1920 c         1 OHP      0.914600
      2 C7          1.5190   -0.0350   -0.0070 c3        1 OHP     -0.167100
      3 C3          1.9900   -0.0960    1.3960 ca        1 OHP     -0.028300
      4 C4          2.6570   -1.2360    1.8960 ca        1 OHP      0.088100
      5 C5          3.1100   -1.2990    3.2210 ca        1 OHP     -0.226000
      6 C6          2.9090   -0.2090    4.0660 ca        1 OHP     -0.133000
      7 C1          2.2610    0.9280    3.5890 ca        1 OHP     -0.171000
      8 C2          1.8080    0.9820    2.2720 ca        1 OHP     -0.101000
      9 O2          2.8750   -2.2850    1.0210 oh        1 OHP     -0.499100
     10 O9          0.1430    1.9570    0.0460 o         1 OHP     -0.844300
     11 O10        -0.8070    0.0490   -0.6140 o         1 OHP     -0.844300
     12 H71         2.2910    0.5030   -0.6190 hc        1 OHP      0.046700
     13 H72         1.4090   -1.0710   -0.4180 hc        1 OHP      0.046700
     14 H5          3.6160   -2.2010    3.5880 ha        1 OHP      0.107000
     15 H6          3.2610   -0.2530    5.1050 ha        1 OHP      0.106000
     16 H1          2.0990    1.7870    4.2550 ha        1 OHP      0.114000
     17 H2          1.2700    1.8710    1.8850 ha        1 OHP      0.196000
     18 HO2         3.1130   -3.0560    1.5530 ho        1 OHP      0.395000
@<TRIPOS>BOND
     1    1    2 1   
     2    1   10 1   
     3    1   11 1   
     4    2    3 1   
     5    2   12 1   
     6    2   13 1   
     7    3    4 ar  
     8    3    8 ar  
     9    4    5 ar  
    10    4    9 1   
    11    5    6 ar  
    12    5   14 1   
    13    6    7 ar  
    14    6   15 1   
    15    7    8 ar  
    16    7   16 1   
    17    8   17 1   
    18    9   18 1   
@<TRIPOS>SUBSTRUCTURE
     1 OHP         1 TEMP              0 ****  ****    0 ROOT
