@<TRIPOS>MOLECULE
OHP
   18    18     1     0     0
SMALL
bcc


@<TRIPOS>ATOM
      1 C8          3.5460   -3.6430    3.3400 c         1 OHP      0.917600
      2 C7          3.9230   -2.2560    2.7730 c3        1 OHP     -0.175100
      3 C3          2.8470   -1.6290    1.9700 ca        1 OHP     -0.094300
      4 C4          1.6770   -1.1110    2.5730 ca        1 OHP      0.156100
      5 C5          0.7010   -0.4580    1.8010 ca        1 OHP     -0.186000
      6 C6          0.8750   -0.3390    0.4250 ca        1 OHP     -0.130000
      7 C1          2.0070   -0.8700   -0.1860 ca        1 OHP     -0.186000
      8 C2          2.9810   -1.5080    0.5840 ca        1 OHP     -0.109000
      9 O2          1.4440   -1.1650    3.9210 oh        1 OHP     -0.553100
     10 O9          2.7160   -3.6780    4.3000 o         1 OHP     -0.836300
     11 O10         4.1090   -4.6580    2.8550 o         1 OHP     -0.836300
     12 H71         4.1650   -1.5910    3.6440 hc        1 OHP      0.039200
     13 H72         4.8480   -2.3720    2.1530 hc        1 OHP      0.039200
     14 H5         -0.1910   -0.0560    2.2970 ha        1 OHP      0.127000
     15 H6          0.1090    0.1690   -0.1770 ha        1 OHP      0.105000
     16 H1          2.1360   -0.7900   -1.2730 ha        1 OHP      0.107000
     17 H2          3.8720   -1.9290    0.0950 ha        1 OHP      0.125000
     18 HO2         1.9330   -1.9330    4.2940 ho        1 OHP      0.488000
@<TRIPOS>BOND
     1    1    2 1   
     2    1   10 1   
     3    1   11 1   
     4    2    3 1   
     5    2   12 1   
     6    2   13 1   
     7    3    4 ar  
     8    3    8 ar  
     9    4    5 ar  
    10    4    9 1   
    11    5    6 ar  
    12    5   14 1   
    13    6    7 ar  
    14    6   15 1   
    15    7    8 ar  
    16    7   16 1   
    17    8   17 1   
    18    9   18 1   
@<TRIPOS>SUBSTRUCTURE
     1 OHP         1 TEMP              0 ****  ****    0 ROOT
