@<TRIPOS>MOLECULE
OHP
   18    18     1     0     0
SMALL
bcc


@<TRIPOS>ATOM
      1 C8          0.1260    0.5490   -0.1350 c         1 OHP      0.918600
      2 C7          1.3160   -0.3930    0.1600 c3        1 OHP     -0.176100
      3 C3          1.9450   -0.2260    1.4940 ca        1 OHP     -0.089300
      4 C4          2.7470   -1.2460    2.0500 ca        1 OHP      0.096100
      5 C5          3.3470   -1.1030    3.3110 ca        1 OHP     -0.178000
      6 C6          3.1560    0.0760    4.0250 ca        1 OHP     -0.132000
      7 C1          2.3790    1.1000    3.4860 ca        1 OHP     -0.178000
      8 C2          1.7830    0.9500    2.2350 ca        1 OHP     -0.084000
      9 O2          3.0110   -2.4410    1.4080 oh        1 OHP     -0.528100
     10 O9          0.3380    1.7920   -0.2150 o         1 OHP     -0.839300
     11 O10        -0.9990    0.0070   -0.3250 o         1 OHP     -0.839300
     12 H71         2.0920   -0.2080   -0.6300 hc        1 OHP      0.034700
     13 H72         0.9370   -1.4440    0.0440 hc        1 OHP      0.034700
     14 H5          3.9580   -1.9210    3.7130 ha        1 OHP      0.124000
     15 H6          3.6220    0.1950    5.0130 ha        1 OHP      0.107000
     16 H1          2.2330    2.0320    4.0490 ha        1 OHP      0.115000
     17 H2          1.1700    1.7630    1.7980 ha        1 OHP      0.192000
     18 HO2         2.5400   -2.4360    0.5630 ho        1 OHP      0.423000
@<TRIPOS>BOND
     1    1    2 1   
     2    1   10 1   
     3    1   11 1   
     4    2    3 1   
     5    2   12 1   
     6    2   13 1   
     7    3    4 ar  
     8    3    8 ar  
     9    4    5 ar  
    10    4    9 1   
    11    5    6 ar  
    12    5   14 1   
    13    6    7 ar  
    14    6   15 1   
    15    7    8 ar  
    16    7   16 1   
    17    8   17 1   
    18    9   18 1   
@<TRIPOS>SUBSTRUCTURE
     1 OHP         1 TEMP              0 ****  ****    0 ROOT
