@<TRIPOS>MOLECULE
OHP
   18    15     1     0     0
SMALL
bcc


@<TRIPOS>ATOM
      1 C8         -1.8900    0.1000   -1.8560 c1        1 OHP      0.337000
      2 C7         -0.3820    0.2100   -1.8170 c2        1 OHP     -0.211000
      3 C3          0.0860    0.2070   -0.3790 c2        1 OHP     -0.087000
      4 C4          0.2800   -0.9940    0.2840 c2        1 OHP      0.111000
      5 C5          0.7420   -0.9980    1.5910 c1        1 OHP     -0.186000
      6 C6          1.0100    0.2000    2.2350 c1        1 OHP     -0.158000
      7 C1          0.8160    1.4020    1.5710 c1        1 OHP     -0.158000
      8 C2          0.3540    1.4050    0.2640 c1        1 OHP     -0.109000
      9 O2         -0.0090   -2.2100   -0.3620 oh        1 OHP     -0.307000
     10 O9         -2.5980    1.1410   -1.8350 o         1 OHP     -0.571000
     11 O10        -2.4360   -1.0310   -1.9400 o         1 OHP     -0.571000
     12 H71        -0.1040    1.0420   -2.2480 ha        1 OHP      0.078500
     13 H72         0.0130   -0.5500   -2.2900 ha        1 OHP      0.078500
     14 H5          0.8930   -1.8440    2.0530 ha        1 OHP      0.127000
     15 H6          1.3350    0.1980    3.1550 ha        1 OHP      0.106000
     16 H1          1.0050    2.2460    2.0240 ha        1 OHP      0.106000
     17 H2          0.2180    2.2510   -0.2030 ha        1 OHP      0.125000
     18 HO2         0.6670   -2.7760   -0.2460 ho        1 OHP      0.287000
@<TRIPOS>BOND
     1    1   10 1   
     2    1   11 1   
     3    2    3 1   
     4    2   12 1   
     5    2   13 1   
     6    3    4 1   
     7    3    8 1   
     8    4    5 1   
     9    4    9 1   
    10    5   14 1   
    11    6    7 1   
    12    6   15 1   
    13    7   16 1   
    14    8   17 1   
    15    9   18 1   
@<TRIPOS>SUBSTRUCTURE
     1 OHP         1 TEMP              0 ****  ****    0 ROOT
