@<TRIPOS>MOLECULE
OHS
   18    17     1     0     0
SMALL
bcc


@<TRIPOS>ATOM
      1 OXT        -2.1680    1.5760   -1.9110 o         1 OHS     -0.847800
      2 C          -0.9100    1.6100   -1.9050 c         1 OHS      0.912600
      3 O          -0.2760    1.6400   -2.9920 o         1 OHS     -0.847800
      4 CA         -0.1600    1.6140   -0.5930 c3        1 OHS      0.044500
      5 N           0.6500    2.7810   -0.5120 n3        1 OHS     -0.911800
      6 CB          0.7170    0.3860   -0.5100 c3        1 OHS     -0.140400
      7 CG         -0.1220   -0.8080   -0.1120 c         1 OHS      0.623100
      8 OD1        -1.1670   -1.0360   -0.6890 o         1 OHS     -0.556000
      9 OD2         0.3060   -1.6540    0.9250 os        1 OHS     -0.338900
     10 SE         -0.5990   -2.8160    1.2460 ss        1 OHS     -0.343800
     11 CZ          0.1230   -3.7870    2.5420 c         1 OHS      1.050200
     12 OW         -0.2920   -3.6680    3.7240 o         1 OHS     -0.768800
     13 OZ          1.0510   -4.5970    2.2790 o         1 OHS     -0.768800
     14 HA1        -0.7980    1.6080    0.1480 h1        1 OHS      0.051700
     15 H2          0.9410    2.8920    0.3490 hn        1 OHS      0.345300
     16 H           0.1590    3.5110   -0.7650 hn        1 OHS      0.345300
     17 HB2         1.4180    0.5290    0.1580 hc        1 OHS      0.075700
     18 HB3         1.1280    0.2190   -1.3820 hc        1 OHS      0.075700
@<TRIPOS>BOND
     1    1    2 1   
     2    2    3 1   
     3    2    4 1   
     4    4    5 1   
     5    4    6 1   
     6    4   14 1   
     7    5   15 1   
     8    5   16 1   
     9    6    7 1   
    10    6   17 1   
    11    6   18 1   
    12    7    8 2   
    13    7    9 1   
    14    9   10 1   
    15   10   11 1   
    16   11   12 1   
    17   11   13 1   
@<TRIPOS>SUBSTRUCTURE
     1 OHS         1 TEMP              0 ****  ****    0 ROOT
