@<TRIPOS>MOLECULE
OHS
   18    17     1     0     0
SMALL
bcc


@<TRIPOS>ATOM
      1 OXT         0.1900   -2.0310   -1.9020 o         1 OHS     -0.847800
      2 C          -0.8690   -1.6200   -1.3500 c         1 OHS      0.912600
      3 O          -1.7300   -0.8910   -1.9200 o         1 OHS     -0.847800
      4 CA         -1.1060   -2.0380    0.1420 c3        1 OHS      0.044500
      5 N          -2.5070   -2.1890    0.4780 n3        1 OHS     -0.911800
      6 CB         -0.3350   -1.0250    1.0020 c3        1 OHS     -0.140400
      7 CG         -0.3270   -1.4020    2.4570 c         1 OHS      0.623100
      8 OD1         0.5080   -2.0810    3.0580 o         1 OHS     -0.556000
      9 OD2        -1.3970   -0.9010    3.1280 os        1 OHS     -0.338900
     10 SE         -1.5750   -1.2380    4.8050 ss        1 OHS     -0.343800
     11 CZ         -1.1260    0.3650    5.7290 c         1 OHS      1.050200
     12 OW         -0.6310    1.3230    5.1100 o         1 OHS     -0.768800
     13 OZ         -1.4030    0.2610    6.9430 o         1 OHS     -0.768800
     14 HA1        -0.6250   -3.0490    0.2890 h1        1 OHS      0.051700
     15 H2         -3.0570   -1.6250   -0.1470 hn        1 OHS      0.345300
     16 H          -2.6760   -1.8740    1.4160 hn        1 OHS      0.345300
     17 HB2        -0.7830   -0.0050    0.8850 hc        1 OHS      0.075700
     18 HB3         0.7280   -0.9990    0.6470 hc        1 OHS      0.075700
@<TRIPOS>BOND
     1    1    2 1   
     2    2    3 1   
     3    2    4 1   
     4    4    5 1   
     5    4    6 1   
     6    4   14 1   
     7    5   15 1   
     8    5   16 1   
     9    6    7 1   
    10    6   17 1   
    11    6   18 1   
    12    7    8 2   
    13    7    9 1   
    14    9   10 1   
    15   10   11 1   
    16   11   12 1   
    17   11   13 1   
@<TRIPOS>SUBSTRUCTURE
     1 OHS         1 TEMP              0 ****  ****    0 ROOT
