@<TRIPOS>MOLECULE
OHT
   59    61     1     0     0
SMALL
bcc


@<TRIPOS>ATOM
      1 C10         0.4160   -0.4250   -0.4640 c3        1 OHT     -0.089100
      2 C9          1.7620    0.1490   -0.0870 c3        1 OHT     -0.050200
      3 C8          2.0280    0.0320    1.3810 ce        1 OHT     -0.010400
      4 C11         2.7800   -1.1680    1.7720 ca        1 OHT     -0.065800
      5 C16         2.1290   -2.4030    1.9020 ca        1 OHT     -0.121500
      6 C15         2.8560   -3.5480    2.2210 ca        1 OHT     -0.129500
      7 C14         4.2360   -3.4730    2.4110 ca        1 OHT     -0.128000
      8 C13         4.8880   -2.2470    2.2820 ca        1 OHT     -0.129500
      9 C12         4.1660   -1.0980    1.9630 ca        1 OHT     -0.121500
     10 C7          1.6260    0.9790    2.2580 cf        1 OHT     -0.031400
     11 C1          0.9090    2.1880    1.8200 ca        1 OHT     -0.097800
     12 C2         -0.4880    2.2540    1.9260 ca        1 OHT     -0.084000
     13 C3         -1.1770    3.3940    1.5320 ca        1 OHT     -0.185000
     14 C4         -0.4550    4.4860    1.0180 ca        1 OHT      0.134100
     15 O4         -1.1910    5.5870    0.6520 oh        1 OHT     -0.491100
     16 C5          0.9410    4.4320    0.9020 ca        1 OHT     -0.185000
     17 C6          1.6140    3.2810    1.3030 ca        1 OHT     -0.084000
     18 C17         1.8610    0.9020    3.7040 ca        1 OHT     -0.025800
     19 C18         2.4040    2.0060    4.3800 ca        1 OHT     -0.088000
     20 C19         2.6240    1.9650    5.7530 ca        1 OHT     -0.152500
     21 C20         2.2720    0.8050    6.4560 ca        1 OHT      0.071100
     22 O20         2.4260    0.8560    7.8430 os        1 OHT     -0.382900
     23 C23         2.8630   -0.3620    8.4410 c3        1 OHT      0.108400
     24 C24         3.7110    0.0220    9.6600 c3        1 OHT      0.097800
     25 N24         3.0330    1.0140   10.5600 nx        1 OHT     -0.677400
     26 C25         1.9400    0.3820   11.3430 c3        1 OHT      0.082600
     27 C26         4.0180    1.6660   11.4600 c3        1 OHT      0.082600
     28 C21         1.7220   -0.3040    5.8080 ca        1 OHT     -0.152500
     29 C22         1.5230   -0.2490    4.4310 ca        1 OHT     -0.088000
     30 H101        0.2520   -0.3130   -1.5630 hc        1 OHT      0.040367
     31 H102       -0.4020    0.1120    0.0760 hc        1 OHT      0.040367
     32 H103        0.3610   -1.5100   -0.2060 hc        1 OHT      0.040367
     33 H91         2.5700   -0.3860   -0.6550 hc        1 OHT      0.059200
     34 H92         1.8010    1.2320   -0.3870 hc        1 OHT      0.059200
     35 H16         1.0430   -2.4680    1.7380 ha        1 OHT      0.137000
     36 H15         2.3400   -4.5160    2.3120 ha        1 OHT      0.136000
     37 H14         4.8090   -4.3800    2.6530 ha        1 OHT      0.136000
     38 H13         5.9780   -2.1870    2.4200 ha        1 OHT      0.136000
     39 H12         4.6860   -0.1350    1.8510 ha        1 OHT      0.137000
     40 H2         -1.0460    1.3920    2.3220 ha        1 OHT      0.137000
     41 H3         -2.2720    3.4560    1.6090 ha        1 OHT      0.148500
     42 HO4        -0.5860    6.2430    0.2750 ho        1 OHT      0.424000
     43 H5          1.4970    5.2870    0.4920 ha        1 OHT      0.148500
     44 H6          2.7090    3.2300    1.2060 ha        1 OHT      0.137000
     45 H18         2.6560    2.9160    3.8110 ha        1 OHT      0.156000
     46 H19         3.0480    2.8290    6.2830 ha        1 OHT      0.138500
     47 H231        3.5000   -0.9680    7.7420 h1        1 OHT      0.082200
     48 H232        1.9590   -0.9570    8.7380 h1        1 OHT      0.082200
     49 H241        3.9500   -0.9020   10.2560 hx        1 OHT      0.109200
     50 H242        4.6710    0.4950    9.3020 hx        1 OHT      0.109200
     51 H251        1.1990   -0.0790   10.6350 hx        1 OHT      0.105033
     52 H252        2.3650   -0.4100   12.0140 hx        1 OHT      0.105033
     53 H253        1.4280    1.1650   11.9640 hx        1 OHT      0.105033
     54 H261        4.7790    2.2170   10.8450 hx        1 OHT      0.105033
     55 H262        4.5300    0.8870   12.0850 hx        1 OHT      0.105033
     56 H263        3.4830    2.3920   12.1300 hx        1 OHT      0.105033
     57 H21         1.4460   -1.2060    6.3710 ha        1 OHT      0.138500
     58 H22         1.1010   -1.1200    3.9030 ha        1 OHT      0.156000
     59 H243        2.6140    1.7370    9.9490 hn        1 OHT      0.474800
@<TRIPOS>BOND
     1    1    2 1   
     2    1   30 1   
     3    1   31 1   
     4    1   32 1   
     5    2    3 1   
     6    2   33 1   
     7    2   34 1   
     8    3    4 1   
     9    3   10 2   
    10    4    5 ar  
    11    4    9 ar  
    12    5    6 ar  
    13    5   35 1   
    14    6    7 ar  
    15    6   36 1   
    16    7    8 ar  
    17    7   37 1   
    18    8    9 ar  
    19    8   38 1   
    20    9   39 1   
    21   10   11 1   
    22   10   18 1   
    23   11   12 ar  
    24   11   17 ar  
    25   12   13 ar  
    26   12   40 1   
    27   13   14 ar  
    28   13   41 1   
    29   14   15 1   
    30   14   16 ar  
    31   15   42 1   
    32   16   17 ar  
    33   16   43 1   
    34   17   44 1   
    35   18   19 ar  
    36   18   29 ar  
    37   19   20 ar  
    38   19   45 1   
    39   20   21 ar  
    40   20   46 1   
    41   21   22 1   
    42   21   28 ar  
    43   22   23 1   
    44   23   24 1   
    45   23   47 1   
    46   23   48 1   
    47   24   25 1   
    48   24   49 1   
    49   24   50 1   
    50   25   26 1   
    51   25   27 1   
    52   25   59 1   
    53   26   51 1   
    54   26   52 1   
    55   26   53 1   
    56   27   54 1   
    57   27   55 1   
    58   27   56 1   
    59   28   29 ar  
    60   28   57 1   
    61   29   58 1   
@<TRIPOS>SUBSTRUCTURE
     1 OHT         1 TEMP              0 ****  ****    0 ROOT
