@<TRIPOS>MOLECULE
OHT
   58    60     1     0     0
SMALL
bcc


@<TRIPOS>ATOM
      1 C10        -1.4800   -1.5740    4.3580 c3        1 OHT     -0.088100
      2 C9         -1.6410   -0.1530    3.8730 c3        1 OHT     -0.044200
      3 C8         -1.4790   -0.0420    2.3900 ce        1 OHT     -0.047400
      4 C11        -2.7380   -0.0820    1.6340 ca        1 OHT     -0.047800
      5 C16        -3.3870   -1.3020    1.3990 ca        1 OHT     -0.119500
      6 C15        -4.6040   -1.3300    0.7210 ca        1 OHT     -0.130500
      7 C14        -5.1840   -0.1440    0.2720 ca        1 OHT     -0.131000
      8 C13        -4.5430    1.0730    0.5030 ca        1 OHT     -0.130500
      9 C12        -3.3260    1.1070    1.1810 ca        1 OHT     -0.119500
     10 C7         -0.2670    0.1100    1.8110 cf        1 OHT      0.004600
     11 C1          0.9640    0.1860    2.6180 ca        1 OHT     -0.082800
     12 C2          1.7670   -0.9510    2.7850 ca        1 OHT     -0.084000
     13 C3          2.9400   -0.8890    3.5280 ca        1 OHT     -0.185500
     14 C4          3.3150    0.3320    4.1140 ca        1 OHT      0.123100
     15 O4          4.4840    0.3320    4.8390 oh        1 OHT     -0.498100
     16 C5          2.5220    1.4770    3.9560 ca        1 OHT     -0.185500
     17 C6          1.3500    1.3960    3.2090 ca        1 OHT     -0.084000
     18 C17        -0.0570    0.2140    0.3640 ca        1 OHT     -0.088800
     19 C18         0.7450    1.2450   -0.1540 ca        1 OHT     -0.079500
     20 C19         0.9710    1.3560   -1.5180 ca        1 OHT     -0.185000
     21 C20         0.3910    0.4150   -2.3920 ca        1 OHT      0.134100
     22 O20         0.6630    0.6240   -3.7280 os        1 OHT     -0.325900
     23 C23         0.1860   -0.3820   -4.6290 c3        1 OHT      0.127400
     24 C24         0.6940    0.0330   -6.0180 c3        1 OHT      0.171800
     25 N24         1.9980   -0.5240   -6.3390 n3        1 OHT     -0.745600
     26 C25         1.9340   -1.8710   -6.8530 c3        1 OHT      0.162600
     27 C26         2.8200    0.3550   -7.1360 c3        1 OHT      0.162600
     28 C21        -0.4050   -0.6210   -1.8910 ca        1 OHT     -0.185000
     29 C22        -0.6230   -0.7130   -0.5180 ca        1 OHT     -0.079500
     30 H101       -0.4680   -1.9640    4.0880 hc        1 OHT      0.036033
     31 H102       -1.5930   -1.6130    5.4680 hc        1 OHT      0.036033
     32 H103       -2.2510   -2.2390    3.8990 hc        1 OHT      0.036033
     33 H91        -2.6550    0.2300    4.1670 hc        1 OHT      0.051700
     34 H92        -0.8770    0.5000    4.3790 hc        1 OHT      0.051700
     35 H16        -2.9320   -2.2390    1.7530 ha        1 OHT      0.134500
     36 H15        -5.1070   -2.2910    0.5400 ha        1 OHT      0.130500
     37 H14        -6.1450   -0.1680   -0.2620 ha        1 OHT      0.130000
     38 H13        -4.9970    2.0100    0.1490 ha        1 OHT      0.130500
     39 H12        -2.8210    2.0680    1.3590 ha        1 OHT      0.134500
     40 H2          1.4670   -1.9020    2.3190 ha        1 OHT      0.138500
     41 H3          3.5780   -1.7740    3.6630 ha        1 OHT      0.142000
     42 HO4         4.6270    1.2290    5.1730 ho        1 OHT      0.418000
     43 H5          2.8220    2.4280    4.4170 ha        1 OHT      0.142000
     44 H6          0.7220    2.2910    3.0810 ha        1 OHT      0.138500
     45 H18         1.2040    1.9690    0.5380 ha        1 OHT      0.137500
     46 H19         1.5950    2.1610   -1.9290 ha        1 OHT      0.141500
     47 H231        0.5620   -1.3890   -4.3120 h1        1 OHT      0.043700
     48 H232       -0.9360   -0.3760   -4.6220 h1        1 OHT      0.043700
     49 H241       -0.0890   -0.2860   -6.7670 h1        1 OHT      0.047200
     50 H242        0.7520    1.1590   -6.0370 h1        1 OHT      0.047200
     51 H251        2.9760   -2.2810   -6.9250 h1        1 OHT      0.031033
     52 H252        1.3450   -2.5070   -6.1420 h1        1 OHT      0.031033
     53 H253        1.4550   -1.9360   -7.8700 h1        1 OHT      0.031033
     54 H261        3.8300   -0.1160   -7.2670 h1        1 OHT      0.031033
     55 H262        2.3900    0.5630   -8.1550 h1        1 OHT      0.031033
     56 H263        2.9460    1.3290   -6.5940 h1        1 OHT      0.031033
     57 H21        -0.8630   -1.3610   -2.5610 ha        1 OHT      0.141500
     58 H22        -1.2590   -1.5210   -0.1220 ha        1 OHT      0.137500
@<TRIPOS>BOND
     1    1    2 1   
     2    1   30 1   
     3    1   31 1   
     4    1   32 1   
     5    2    3 1   
     6    2   33 1   
     7    2   34 1   
     8    3    4 1   
     9    3   10 2   
    10    4    5 ar  
    11    4    9 ar  
    12    5    6 ar  
    13    5   35 1   
    14    6    7 ar  
    15    6   36 1   
    16    7    8 ar  
    17    7   37 1   
    18    8    9 ar  
    19    8   38 1   
    20    9   39 1   
    21   10   11 1   
    22   10   18 1   
    23   11   12 ar  
    24   11   17 ar  
    25   12   13 ar  
    26   12   40 1   
    27   13   14 ar  
    28   13   41 1   
    29   14   15 1   
    30   14   16 ar  
    31   15   42 1   
    32   16   17 ar  
    33   16   43 1   
    34   17   44 1   
    35   18   19 ar  
    36   18   29 ar  
    37   19   20 ar  
    38   19   45 1   
    39   20   21 ar  
    40   20   46 1   
    41   21   22 1   
    42   21   28 ar  
    43   22   23 1   
    44   23   24 1   
    45   23   47 1   
    46   23   48 1   
    47   24   25 1   
    48   24   49 1   
    49   24   50 1   
    50   25   26 1   
    51   25   27 1   
    52   26   51 1   
    53   26   52 1   
    54   26   53 1   
    55   27   54 1   
    56   27   55 1   
    57   27   56 1   
    58   28   29 ar  
    59   28   57 1   
    60   29   58 1   
@<TRIPOS>SUBSTRUCTURE
     1 OHT         1 TEMP              0 ****  ****    0 ROOT
