@<TRIPOS>MOLECULE
OHT
   59    61     1     0     0
SMALL
bcc


@<TRIPOS>ATOM
      1 C10         0.4350   -0.4250   -0.4700 c3        1 OHT     -0.089100
      2 C9          1.7750    0.1580   -0.0880 c3        1 OHT     -0.050200
      3 C8          2.0380    0.0390    1.3800 ce        1 OHT     -0.010400
      4 C11         2.7990   -1.1560    1.7690 ca        1 OHT     -0.065800
      5 C16         2.1560   -2.3960    1.8950 ca        1 OHT     -0.121500
      6 C15         2.8910   -3.5370    2.2130 ca        1 OHT     -0.129500
      7 C14         4.2700   -3.4520    2.4060 ca        1 OHT     -0.128000
      8 C13         4.9140   -2.2210    2.2810 ca        1 OHT     -0.129500
      9 C12         4.1840   -1.0770    1.9630 ca        1 OHT     -0.121500
     10 C7          1.6270    0.9810    2.2580 cf        1 OHT     -0.031400
     11 C1          0.9030    2.1860    1.8210 ca        1 OHT     -0.097800
     12 C2         -0.4950    2.2410    1.9250 ca        1 OHT     -0.084000
     13 C3         -1.1910    3.3770    1.5310 ca        1 OHT     -0.185000
     14 C4         -0.4770    4.4760    1.0230 ca        1 OHT      0.134100
     15 O4         -1.2200    5.5720    0.6580 oh        1 OHT     -0.491100
     16 C5          0.9200    4.4330    0.9090 ca        1 OHT     -0.185000
     17 C6          1.6010    3.2860    1.3090 ca        1 OHT     -0.084000
     18 C17         1.8600    0.9020    3.7040 ca        1 OHT     -0.025800
     19 C18         2.3940    2.0080    4.3840 ca        1 OHT     -0.088000
     20 C19         2.6110    1.9650    5.7580 ca        1 OHT     -0.152500
     21 C20         2.2650    0.8010    6.4570 ca        1 OHT      0.071100
     22 O20         2.4170    0.8500    7.8450 os        1 OHT     -0.382900
     23 C23         2.8610   -0.3670    8.4400 c3        1 OHT      0.108400
     24 C24         3.7040    0.0200    9.6610 c3        1 OHT      0.097800
     25 N24         3.0180    1.0060   10.5630 n4        1 OHT     -0.677400
     26 C25         1.9280    0.3660   11.3420 c3        1 OHT      0.082600
     27 C26         3.9980    1.6620   11.4660 c3        1 OHT      0.082600
     28 C21         1.7250   -0.3100    5.8050 ca        1 OHT     -0.152500
     29 C22         1.5280   -0.2530    4.4270 ca        1 OHT     -0.088000
     30 H101        0.2720   -0.3120   -1.5690 hc        1 OHT      0.040367
     31 H102       -0.3890    0.1040    0.0690 hc        1 OHT      0.040367
     32 H103        0.3880   -1.5110   -0.2150 hc        1 OHT      0.040367
     33 H91         2.5880   -0.3690   -0.6560 hc        1 OHT      0.059200
     34 H92         1.8060    1.2420   -0.3860 hc        1 OHT      0.059200
     35 H16         1.0710   -2.4680    1.7290 ha        1 OHT      0.137000
     36 H15         2.3820   -4.5080    2.3010 ha        1 OHT      0.136000
     37 H14         4.8490   -4.3550    2.6470 ha        1 OHT      0.136000
     38 H13         6.0030   -2.1530    2.4220 ha        1 OHT      0.136000
     39 H12         4.6970   -0.1100    1.8550 ha        1 OHT      0.137000
     40 H2         -1.0470    1.3740    2.3170 ha        1 OHT      0.137000
     41 H3         -2.2870    3.4310    1.6060 ha        1 OHT      0.148500
     42 HO4        -0.6190    6.2340    0.2840 ho        1 OHT      0.424000
     43 H5          1.4710    5.2930    0.5030 ha        1 OHT      0.148500
     44 H6          2.6970    3.2430    1.2150 ha        1 OHT      0.137000
     45 H18         2.6410    2.9210    3.8180 ha        1 OHT      0.156000
     46 H19         3.0280    2.8300    6.2910 ha        1 OHT      0.138500
     47 H231        3.5020   -0.9670    7.7410 h1        1 OHT      0.082200
     48 H232        1.9590   -0.9680    8.7350 h1        1 OHT      0.082200
     49 H241        3.9470   -0.9040   10.2560 hx        1 OHT      0.108700
     50 H242        4.6620    0.4980    9.3060 hx        1 OHT      0.108700
     51 H251        1.1900   -0.0970   10.6320 hx        1 OHT      0.105033
     52 H252        2.3570   -0.4250   12.0130 hx        1 OHT      0.105033
     53 H253        1.4100    1.1450   11.9630 hx        1 OHT      0.105033
     54 H261        4.7580    2.2170   10.8530 hx        1 OHT      0.105033
     55 H262        4.5140    0.8840   12.0890 hx        1 OHT      0.105033
     56 H263        3.4580    2.3830   12.1360 hx        1 OHT      0.105033
     57 H21         1.4530   -1.2160    6.3660 ha        1 OHT      0.138500
     58 H22         1.1130   -1.1260    3.8970 ha        1 OHT      0.156000
     59 H243        2.5960    1.7280    9.9520 hn        1 OHT      0.474800
@<TRIPOS>BOND
     1    1    2 1   
     2    1   30 1   
     3    1   31 1   
     4    1   32 1   
     5    2    3 1   
     6    2   33 1   
     7    2   34 1   
     8    3    4 1   
     9    3   10 2   
    10    4    5 ar  
    11    4    9 ar  
    12    5    6 ar  
    13    5   35 1   
    14    6    7 ar  
    15    6   36 1   
    16    7    8 ar  
    17    7   37 1   
    18    8    9 ar  
    19    8   38 1   
    20    9   39 1   
    21   10   11 1   
    22   10   18 1   
    23   11   12 ar  
    24   11   17 ar  
    25   12   13 ar  
    26   12   40 1   
    27   13   14 ar  
    28   13   41 1   
    29   14   15 1   
    30   14   16 ar  
    31   15   42 1   
    32   16   17 ar  
    33   16   43 1   
    34   17   44 1   
    35   18   19 ar  
    36   18   29 ar  
    37   19   20 ar  
    38   19   45 1   
    39   20   21 ar  
    40   20   46 1   
    41   21   22 1   
    42   21   28 ar  
    43   22   23 1   
    44   23   24 1   
    45   23   47 1   
    46   23   48 1   
    47   24   25 1   
    48   24   49 1   
    49   24   50 1   
    50   25   26 1   
    51   25   27 1   
    52   25   59 1   
    53   26   51 1   
    54   26   52 1   
    55   26   53 1   
    56   27   54 1   
    57   27   55 1   
    58   27   56 1   
    59   28   29 ar  
    60   28   57 1   
    61   29   58 1   
@<TRIPOS>SUBSTRUCTURE
     1 OHT         1 TEMP              0 ****  ****    0 ROOT
