@<TRIPOS>MOLECULE
OHT
   59    61     1     0     0
SMALL
bcc


@<TRIPOS>ATOM
      1 C10         0.4200   -0.4130   -0.4670 c3        1 OHT     -0.089100
      2 C9          1.7640    0.1620   -0.0890 c3        1 OHT     -0.050200
      3 C8          2.0310    0.0410    1.3790 ce        1 OHT     -0.010400
      4 C11         2.7850   -1.1590    1.7660 ca        1 OHT     -0.065800
      5 C16         2.1370   -2.3950    1.8920 ca        1 OHT     -0.121500
      6 C15         2.8660   -3.5400    2.2080 ca        1 OHT     -0.129500
      7 C14         4.2450   -3.4630    2.3980 ca        1 OHT     -0.128000
      8 C13         4.8960   -2.2360    2.2720 ca        1 OHT     -0.129500
      9 C12         4.1720   -1.0870    1.9560 ca        1 OHT     -0.121500
     10 C7          1.6280    0.9850    2.2580 cf        1 OHT     -0.030400
     11 C1          0.9090    2.1940    1.8240 ca        1 OHT     -0.097800
     12 C2         -0.4880    2.2570    1.9310 ca        1 OHT     -0.084000
     13 C3         -1.1790    3.3970    1.5400 ca        1 OHT     -0.185000
     14 C4         -0.4600    4.4920    1.0300 ca        1 OHT      0.134100
     15 O4         -1.1980    5.5930    0.6670 oh        1 OHT     -0.491100
     16 C5          0.9370    4.4410    0.9120 ca        1 OHT     -0.185000
     17 C6          1.6120    3.2900    1.3100 ca        1 OHT     -0.084000
     18 C17         1.8630    0.9040    3.7040 ca        1 OHT     -0.025800
     19 C18         2.4050    2.0070    4.3830 ca        1 OHT     -0.088000
     20 C19         2.6240    1.9630    5.7560 ca        1 OHT     -0.152500
     21 C20         2.2750    0.8010    6.4560 ca        1 OHT      0.071100
     22 O20         2.4290    0.8490    7.8430 os        1 OHT     -0.382900
     23 C23         2.8660   -0.3710    8.4380 c3        1 OHT      0.108400
     24 C24         3.7090    0.0100    9.6610 c3        1 OHT      0.097800
     25 N24         3.0250    0.9970   10.5630 n4        1 OHT     -0.677400
     26 C25         1.9310    0.3590   11.3390 c3        1 OHT      0.082600
     27 C26         4.0050    1.6480   11.4690 c3        1 OHT      0.082600
     28 C21         1.7270   -0.3080    5.8050 ca        1 OHT     -0.152500
     29 C22         1.5280   -0.2490    4.4280 ca        1 OHT     -0.088000
     30 H101       -0.4000    0.1210    0.0740 hc        1 OHT      0.040367
     31 H102        0.2540   -0.2990   -1.5650 hc        1 OHT      0.040367
     32 H103        0.3670   -1.4990   -0.2120 hc        1 OHT      0.040367
     33 H91         2.5730   -0.3700   -0.6590 hc        1 OHT      0.059200
     34 H92         1.8010    1.2460   -0.3860 hc        1 OHT      0.059200
     35 H16         1.0500   -2.4610    1.7290 ha        1 OHT      0.137000
     36 H15         2.3510   -4.5090    2.2970 ha        1 OHT      0.136000
     37 H14         4.8200   -4.3700    2.6360 ha        1 OHT      0.136000
     38 H13         5.9860   -2.1740    2.4100 ha        1 OHT      0.136000
     39 H12         4.6900   -0.1230    1.8470 ha        1 OHT      0.137000
     40 H2         -1.0440    1.3930    2.3250 ha        1 OHT      0.137000
     41 H3         -2.2740    3.4570    1.6170 ha        1 OHT      0.148500
     42 HO4        -0.5940    6.2510    0.2910 ho        1 OHT      0.424000
     43 H5          1.4910    5.2980    0.5050 ha        1 OHT      0.148500
     44 H6          2.7070    3.2410    1.2130 ha        1 OHT      0.137000
     45 H18         2.6550    2.9200    3.8170 ha        1 OHT      0.156000
     46 H19         3.0470    2.8260    6.2880 ha        1 OHT      0.138500
     47 H231        3.5070   -0.9730    7.7390 h1        1 OHT      0.082200
     48 H232        1.9620   -0.9690    8.7300 h1        1 OHT      0.082200
     49 H241        3.9470   -0.9160   10.2550 hx        1 OHT      0.109200
     50 H242        4.6700    0.4860    9.3090 hx        1 OHT      0.109200
     51 H251        1.4140    1.1390   11.9610 hx        1 OHT      0.105033
     52 H252        1.1930   -0.1000   10.6270 hx        1 OHT      0.105033
     53 H253        2.3550   -0.4340   12.0090 hx        1 OHT      0.105033
     54 H261        4.7680    2.2020   10.8590 hx        1 OHT      0.105033
     55 H262        3.4670    2.3700   12.1400 hx        1 OHT      0.105033
     56 H263        4.5170    0.8670   12.0930 hx        1 OHT      0.105033
     57 H21         1.4530   -1.2120    6.3660 ha        1 OHT      0.138500
     58 H22         1.1070   -1.1200    3.8970 ha        1 OHT      0.156000
     59 H243        2.6070    1.7210    9.9530 hn        1 OHT      0.474800
@<TRIPOS>BOND
     1    1    2 1   
     2    1   30 1   
     3    1   31 1   
     4    1   32 1   
     5    2    3 1   
     6    2   33 1   
     7    2   34 1   
     8    3    4 1   
     9    3   10 2   
    10    4    5 ar  
    11    4    9 ar  
    12    5    6 ar  
    13    5   35 1   
    14    6    7 ar  
    15    6   36 1   
    16    7    8 ar  
    17    7   37 1   
    18    8    9 ar  
    19    8   38 1   
    20    9   39 1   
    21   10   11 1   
    22   10   18 1   
    23   11   12 ar  
    24   11   17 ar  
    25   12   13 ar  
    26   12   40 1   
    27   13   14 ar  
    28   13   41 1   
    29   14   15 1   
    30   14   16 ar  
    31   15   42 1   
    32   16   17 ar  
    33   16   43 1   
    34   17   44 1   
    35   18   19 ar  
    36   18   29 ar  
    37   19   20 ar  
    38   19   45 1   
    39   20   21 ar  
    40   20   46 1   
    41   21   22 1   
    42   21   28 ar  
    43   22   23 1   
    44   23   24 1   
    45   23   47 1   
    46   23   48 1   
    47   24   25 1   
    48   24   49 1   
    49   24   50 1   
    50   25   26 1   
    51   25   27 1   
    52   25   59 1   
    53   26   51 1   
    54   26   52 1   
    55   26   53 1   
    56   27   54 1   
    57   27   55 1   
    58   27   56 1   
    59   28   29 ar  
    60   28   57 1   
    61   29   58 1   
@<TRIPOS>SUBSTRUCTURE
     1 OHT         1 TEMP              0 ****  ****    0 ROOT
