@<TRIPOS>MOLECULE
OHT
   58    53     1     0     0
SMALL
bcc


@<TRIPOS>ATOM
      1 C10        -3.3220    0.2030   -4.1410 c3        1 OHT     -0.206000
      2 C9         -1.7690   -0.0880   -4.1560 c3        1 OHT     -0.130000
      3 C8         -1.2210   -0.1330   -2.6830 c2        1 OHT     -0.046000
      4 C11        -2.1530   -0.5600   -1.5140 c2        1 OHT     -0.040000
      5 C16        -2.3390   -1.9120   -1.2340 c2        1 OHT     -0.120000
      6 C15        -3.2030   -2.2980   -0.2200 c1        1 OHT     -0.132000
      7 C14        -3.8870   -1.3370    0.5200 c1        1 OHT     -0.129000
      8 C13        -3.7040    0.0070    0.2440 c1        1 OHT     -0.129000
      9 C12        -2.8300    0.3990   -0.7820 c1        1 OHT     -0.111000
     10 C7          0.1180    0.2120   -2.4230 c1        1 OHT     -0.027000
     11 C1          1.0740    0.6430   -3.6170 c1        1 OHT     -0.072000
     12 C2          1.8660   -0.3070   -4.2380 c2        1 OHT     -0.080000
     13 C3          2.6860    0.0530   -5.3040 c1        1 OHT     -0.158000
     14 C4          2.7110    1.3630   -5.7450 c1        1 OHT      0.080000
     15 O4          3.5410    1.7210   -6.7600 oh        1 OHT     -0.251000
     16 C5          1.9290    2.3080   -5.1340 c1        1 OHT     -0.217000
     17 C6          1.0970    1.9420   -4.0520 c1        1 OHT     -0.082000
     18 C17         0.6780    0.1650   -0.9410 c2        1 OHT     -0.072000
     19 C18         1.0370   -1.0630   -0.3590 c2        1 OHT     -0.085000
     20 C19         1.4600   -1.1030    0.9770 c1        1 OHT     -0.158000
     21 C20         1.5210    0.0830    1.7230 c1        1 OHT      0.086000
     22 O20         1.9480    0.0550    3.0870 os        1 OHT     -0.219000
     23 C23         0.8810    0.2160    4.0270 c3        1 OHT     -0.023000
     24 C24         1.1150   -0.7120    5.2290 c3        1 OHT     -0.072000
     25 N24         1.0470    0.0640    6.4620 n3        1 OHT     -0.269000
     26 C25         0.0710   -0.4450    7.2700 c3        1 OHT     -0.117500
     27 C26         2.3430   -0.0080    7.1510 c3        1 OHT     -0.117500
     28 C21         1.1670    1.2760    1.1430 c1        1 OHT     -0.205000
     29 C22         0.7410    1.3150   -0.2040 c1        1 OHT     -0.081000
     30 H101       -3.5980    0.4530   -4.9940 hc        1 OHT      0.075000
     31 H102       -3.8010   -0.6020   -3.8680 hc        1 OHT      0.075000
     32 H103       -3.5090    0.9090   -3.5280 hc        1 OHT      0.075000
     33 H91        -1.3180    0.6060   -4.6420 hc        1 OHT      0.092000
     34 H92        -1.6100   -0.9210   -4.5760 hc        1 OHT      0.092000
     35 H16        -1.8720   -2.5700   -1.7360 ha        1 OHT      0.132000
     36 H15        -3.3340   -3.2600   -0.0210 ha        1 OHT      0.130000
     37 H14        -4.4990   -1.6140    1.2400 ha        1 OHT      0.130500
     38 H13        -4.1800    0.6790    0.7600 ha        1 OHT      0.130500
     39 H12        -2.6900    1.4080   -0.9910 ha        1 OHT      0.136000
     40 H2          1.8490   -1.2860   -3.9100 ha        1 OHT      0.142000
     41 H3          3.2320   -0.6040   -5.7300 ha        1 OHT      0.151000
     42 HO4         3.0640    1.8020   -7.5260 ho        1 OHT      0.217000
     43 H5          1.9470    3.1970   -5.4340 ha        1 OHT      0.133000
     44 H6          0.5540    2.5940   -3.6280 ha        1 OHT      0.137000
     45 H18         0.9950   -1.8490   -0.8610 ha        1 OHT      0.137000
     46 H19         1.7320   -2.0260    1.4230 ha        1 OHT      0.148000
     47 H231        0.0090   -0.0210    3.5850 h1        1 OHT      0.086000
     48 H232        0.8500    1.1830    4.3470 h1        1 OHT      0.086000
     49 H241        0.4120   -1.4310    5.2410 h1        1 OHT      0.087500
     50 H242        1.9910   -1.1190    5.1550 h1        1 OHT      0.087500
     51 H251       -0.2790    0.2960    7.8920 h1        1 OHT      0.072000
     52 H252        0.4590   -1.2100    7.8350 h1        1 OHT      0.072000
     53 H253       -0.6640   -0.7850    6.7190 h1        1 OHT      0.072000
     54 H261        3.0930    0.3330    6.5120 h1        1 OHT      0.072000
     55 H262        2.3190    0.5420    7.9420 h1        1 OHT      0.072000
     56 H263        2.5350   -0.9800    7.4160 h1        1 OHT      0.072000
     57 H21         1.2080    2.0780    1.6480 ha        1 OHT      0.139000
     58 H22         0.5000    2.1340   -0.5950 ha        1 OHT      0.134000
@<TRIPOS>BOND
     1    1    2 1   
     2    1   30 1   
     3    1   31 1   
     4    1   32 1   
     5    2    3 1   
     6    2   33 1   
     7    2   34 1   
     8    3    4 1   
     9    3   10 1   
    10    4    5 1   
    11    4    9 1   
    12    5    6 1   
    13    5   35 1   
    14    6   36 1   
    15    7    8 1   
    16    7   37 1   
    17    8   38 1   
    18    9   39 1   
    19   10   18 1   
    20   11   12 1   
    21   11   17 1   
    22   12   13 1   
    23   12   40 1   
    24   13   41 1   
    25   14   15 1   
    26   14   16 1   
    27   15   42 1   
    28   16   43 1   
    29   17   44 1   
    30   18   19 1   
    31   18   29 1   
    32   19   20 1   
    33   19   45 1   
    34   20   46 1   
    35   21   22 1   
    36   21   28 1   
    37   22   23 1   
    38   23   24 1   
    39   23   47 1   
    40   23   48 1   
    41   24   25 1   
    42   24   49 1   
    43   24   50 1   
    44   25   26 1   
    45   25   27 1   
    46   26   51 1   
    47   26   52 1   
    48   26   53 1   
    49   27   54 1   
    50   27   55 1   
    51   27   56 1   
    52   28   57 1   
    53   29   58 1   
@<TRIPOS>SUBSTRUCTURE
     1 OHT         1 TEMP              0 ****  ****    0 ROOT
