@<TRIPOS>MOLECULE
OHU
   32    33     1     0     0
SMALL
bcc


@<TRIPOS>ATOM
      1 P           2.3500   -1.2110   -0.3660 p5        1 OHU      1.354900
      2 N1         -2.1850    1.0670    0.4740 n         1 OHU     -0.352000
      3 C2         -3.5800    1.1320    0.3100 c         1 OHU      0.792500
      4 O2         -4.2070    2.2170    0.1770 o         1 OHU     -0.718500
      5 N3         -4.3270   -0.0610    0.3750 n         1 OHU     -0.600500
      6 C4         -3.7510   -1.3430    0.4880 c         1 OHU      0.716700
      7 O4         -4.5230   -2.3210    0.4920 o         1 OHU     -0.660500
      8 C5         -2.2850   -1.3500    0.6010 cc        1 OHU     -0.042100
      9 O5         -1.6960   -2.5790    0.7280 oh        1 OHU     -0.530100
     10 C6         -1.5760   -0.1810    0.5970 cd        1 OHU     -0.070400
     11 C1'        -1.3740    2.2420    0.1110 c3        1 OHU      0.304500
     12 C2'        -0.1760    2.4640    1.0590 c3        1 OHU     -0.114400
     13 C3'         1.0080    1.8430    0.3160 c3        1 OHU      0.103100
     14 O3'         2.1620    2.6420    0.4640 oh        1 OHU     -0.649800
     15 C4'         0.5630    1.7580   -1.1600 c3        1 OHU      0.064100
     16 O4'        -0.8380    2.1240   -1.2080 os        1 OHU     -0.443600
     17 C5'         0.7300    0.3550   -1.7940 c3        1 OHU      0.217400
     18 O5'         1.9990   -0.1390   -1.6770 os        1 OHU     -0.570200
     19 OP1         0.9580   -1.5250    0.1630 o         1 OHU     -0.928500
     20 OP2         3.1110   -2.3380   -0.9800 o         1 OHU     -0.928500
     21 OP3         3.0540   -0.2120    0.5190 o         1 OHU     -0.928500
     22 HN3        -5.3110    0.0210    0.2640 hn        1 OHU      0.320500
     23 HO5        -0.7290   -2.4650    0.5190 ho        1 OHU      0.518000
     24 H6         -0.4500   -0.2250    0.6640 h4        1 OHU      0.284000
     25 H1'        -2.0750    3.1270    0.0760 h2        1 OHU      0.084700
     26 H2'        -0.0260    3.5620    1.1990 hc        1 OHU      0.052700
     27 H2'A       -0.3160    1.9920    2.0580 hc        1 OHU      0.052700
     28 H3'         1.2430    0.7930    0.6970 h1        1 OHU      0.150700
     29 HO3'        2.9010    2.0000    0.4670 ho        1 OHU      0.471000
     30 H4'         1.0930    2.5310   -1.7750 h1        1 OHU      0.048700
     31 H5'        -0.0280   -0.3450   -1.3440 h1        1 OHU      0.001200
     32 H5'A        0.4860    0.4780   -2.8920 h1        1 OHU      0.001200
@<TRIPOS>BOND
     1    1   18 1   
     2    1   19 1   
     3    1   20 1   
     4    1   21 1   
     5    2    3 1   
     6    2   10 1   
     7    2   11 1   
     8    3    4 2   
     9    3    5 1   
    10    5    6 1   
    11    5   22 1   
    12    6    7 2   
    13    6    8 1   
    14    8    9 1   
    15    8   10 2   
    16    9   23 1   
    17   10   24 1   
    18   11   12 1   
    19   11   16 1   
    20   11   25 1   
    21   12   13 1   
    22   12   26 1   
    23   12   27 1   
    24   13   14 1   
    25   13   15 1   
    26   13   28 1   
    27   14   29 1   
    28   15   16 1   
    29   15   17 1   
    30   15   30 1   
    31   17   18 1   
    32   17   31 1   
    33   17   32 1   
@<TRIPOS>SUBSTRUCTURE
     1 OHU         1 TEMP              0 ****  ****    0 ROOT
