@<TRIPOS>MOLECULE
OHU
   32    32     1     0     0
SMALL
bcc


@<TRIPOS>ATOM
      1 P          -3.3860    1.2550    1.7990 p3        1 OHU      2.547000
      2 N1          1.3870   -0.4590    0.1140 n         1 OHU     -0.245000
      3 C2          1.3740   -0.4960    1.5850 c2        1 OHU      0.383000
      4 O2          1.2070    0.5400    2.2220 o         1 OHU     -0.443000
      5 N3          1.5820   -1.7720    2.2930 n         1 OHU     -0.380000
      6 C4          1.6740   -2.9880    1.5540 c2        1 OHU      0.355000
      7 O4          1.7800   -4.0520    2.1390 o         1 OHU     -0.385000
      8 C5          1.5930   -2.9610    0.0710 c2        1 OHU     -0.067000
      9 O5          1.6950   -4.1780   -0.6760 oh        1 OHU     -0.285000
     10 C6          1.4240   -1.6780   -0.6300 c2        1 OHU     -0.073000
     11 C1'         1.5400    0.8110   -0.5750 c3        1 OHU      0.156000
     12 C2'         0.8180    0.7650   -1.9800 c3        1 OHU     -0.193000
     13 C3'        -0.4320    1.6270   -1.8250 c3        1 OHU     -0.008000
     14 O3'        -0.2620    2.9210   -2.5520 oh        1 OHU     -0.377000
     15 C4'        -0.5390    1.8430   -0.5150 c3        1 OHU     -0.047000
     16 O4'         0.9480    1.7500    0.0800 os        1 OHU     -0.300000
     17 C5'        -1.4150    0.7940    0.1120 c3        1 OHU      0.067000
     18 O5'        -1.8080    1.2200    1.4330 o         1 OHU     -0.732000
     19 OP1        -3.5580    1.1790    3.3050 o         1 OHU     -1.248000
     20 OP2        -4.0790    0.0790    1.1540 o         1 OHU     -1.248000
     21 OP3        -3.9950    2.5410    1.2860 o         1 OHU     -1.248000
     22 HN3         1.5740   -1.7930    3.2140 hn        1 OHU      0.234000
     23 HO5         1.0430   -4.7440   -0.4190 ho        1 OHU      0.317000
     24 H6          1.4330   -1.6520   -1.6120 h4        1 OHU      0.284000
     25 H1'         2.4940    1.0240   -0.6890 h2        1 OHU      0.124000
     26 H2'         1.4050    1.1380   -2.6780 hc        1 OHU      0.092000
     27 H2'A        0.5700   -0.1500   -2.2020 hc        1 OHU      0.092000
     28 H3'        -1.2120    1.1520   -2.1550 h1        1 OHU      0.190000
     29 HO3'       -0.8070    2.9460   -3.2320 ho        1 OHU      0.270000
     30 H4'        -0.9090    2.7260   -0.3520 h1        1 OHU      0.088000
     31 H5'        -2.2180    0.6620   -0.4430 h1        1 OHU      0.040500
     32 H5'A       -0.9200   -0.0500    0.1760 h1        1 OHU      0.040500
@<TRIPOS>BOND
     1    1   19 1   
     2    1   20 1   
     3    1   21 1   
     4    2    3 1   
     5    2   10 1   
     6    2   11 1   
     7    3    4 1   
     8    3    5 1   
     9    5    6 1   
    10    5   22 1   
    11    6    7 1   
    12    6    8 1   
    13    8    9 1   
    14    8   10 1   
    15    9   23 1   
    16   10   24 1   
    17   11   12 1   
    18   11   16 1   
    19   11   25 1   
    20   12   13 1   
    21   12   26 1   
    22   12   27 1   
    23   13   14 1   
    24   13   15 1   
    25   13   28 1   
    26   14   29 1   
    27   15   16 1   
    28   15   17 1   
    29   15   30 1   
    30   17   18 1   
    31   17   31 1   
    32   17   32 1   
@<TRIPOS>SUBSTRUCTURE
     1 OHU         1 TEMP              0 ****  ****    0 ROOT
