@<TRIPOS>MOLECULE
OI7
   34    34     1     0     0
SMALL
bcc


@<TRIPOS>ATOM
      1 C4         -1.2880   -1.5330   -0.7990 c3        1 OI7      0.122100
      2 C5          0.0250   -1.3520   -0.5570 c3        1 OI7      0.103100
      3 C6          0.4600   -0.0090   -1.0420 c3        1 OI7      0.119100
      4 C7          1.7230   -0.1550   -1.8480 c3        1 OI7      0.197400
      5 O7          2.2040    1.1060   -2.1970 os        1 OI7     -0.581200
      6 O6         -0.5710    0.5630   -1.8660 oh        1 OI7     -0.700800
      7 O5          0.2060   -1.4460    1.0130 os        1 OI7     -0.430600
      8 O4         -1.5750   -2.9690   -1.0330 oh        1 OI7     -0.637800
      9 C3         -1.9800   -1.0610    0.4530 c3        1 OI7      0.127100
     10 O3         -2.6020    0.1250    0.2260 oh        1 OI7     -0.651800
     11 C2         -0.8340   -0.8850    1.5290 c3        1 OI7      0.284600
     12 O2         -1.1890   -1.5350    2.7380 oh        1 OI7     -0.672800
     13 C1         -0.5650    0.6120    1.7840 c3        1 OI7      0.205400
     14 O1         -1.2160    1.0090    2.9460 os        1 OI7     -0.588200
     15 P1         -0.6630    2.2560    3.7280 p5        1 OI7      1.325900
     16 O1P        -1.4990    2.4880    4.9540 o         1 OI7     -0.933167
     17 O3P         0.7580    2.0020    4.1340 o         1 OI7     -0.933167
     18 O2P        -0.7210    3.4780    2.8390 o         1 OI7     -0.933167
     19 P2          3.5540    1.1960   -3.0600 p5        1 OI7      1.324900
     20 O5P         3.3260    0.5500   -4.4320 o         1 OI7     -0.937167
     21 O4P         3.9420    2.6530   -3.2460 o         1 OI7     -0.937167
     22 O6P         4.6770    0.4570   -2.3270 o         1 OI7     -0.937167
     23 H4         -1.5690   -1.0030   -1.5620 h1        1 OI7      0.057700
     24 H5          0.5360   -2.0360   -0.9880 h1        1 OI7      0.041700
     25 H6          0.6260    0.5670   -0.2850 h1        1 OI7      0.031700
     26 H7          1.5320   -0.6670   -2.6610 h1        1 OI7      0.001700
     27 H7A         2.3920   -0.6210   -1.3220 h1        1 OI7      0.001700
     28 HO6        -0.3110    1.3690   -2.1500 ho        1 OI7      0.488000
     29 HO4        -2.0570   -3.0590   -1.7890 ho        1 OI7      0.424000
     30 H3         -2.6150   -1.7190    0.7490 h1        1 OI7      0.044700
     31 HO3        -3.5070    0.0220    0.3330 ho        1 OI7      0.452000
     32 HO2        -0.6940   -2.3010    2.8290 ho        1 OI7      0.488000
     33 H1          0.3980    0.7580    1.8830 h1        1 OI7      0.016700
     34 H1A        -0.8980    1.1370    1.0270 h1        1 OI7      0.016700
@<TRIPOS>BOND
     1    1    2 1   
     2    1    8 1   
     3    1    9 1   
     4    1   23 1   
     5    2    3 1   
     6    2    7 1   
     7    2   24 1   
     8    3    4 1   
     9    3    6 1   
    10    3   25 1   
    11    4    5 1   
    12    4   26 1   
    13    4   27 1   
    14    5   19 1   
    15    6   28 1   
    16    7   11 1   
    17    8   29 1   
    18    9   10 1   
    19    9   11 1   
    20    9   30 1   
    21   10   31 1   
    22   11   12 1   
    23   11   13 1   
    24   12   32 1   
    25   13   14 1   
    26   13   33 1   
    27   13   34 1   
    28   14   15 1   
    29   15   16 1   
    30   15   17 1   
    31   15   18 1   
    32   19   20 1   
    33   19   21 1   
    34   19   22 1   
@<TRIPOS>SUBSTRUCTURE
     1 OI7         1 TEMP              0 ****  ****    0 ROOT
