@<TRIPOS>MOLECULE
OI7
   34    34     1     0     0
SMALL
bcc


@<TRIPOS>ATOM
      1 C4          0.3820   -2.2310   -0.4970 c3        1 OI7      0.123100
      2 C5         -0.4000   -0.9000   -0.3910 c3        1 OI7      0.105100
      3 C6         -1.7420   -1.0660    0.3440 c3        1 OI7      0.116100
      4 C7         -2.7640    0.0260   -0.0560 c3        1 OI7      0.197400
      5 O7         -3.9330   -0.1020    0.6610 os        1 OI7     -0.581200
      6 O6         -2.2280   -2.3620    0.0190 oh        1 OI7     -0.701800
      7 O5          0.4630    0.0420    0.2630 os        1 OI7     -0.440600
      8 O4          0.0630   -2.9180   -1.6960 oh        1 OI7     -0.634800
      9 C3          1.8560   -1.7840   -0.4920 c3        1 OI7      0.147100
     10 O3          2.6750   -2.7730    0.0790 oh        1 OI7     -0.644800
     11 C2          1.8120   -0.4710    0.3440 c3        1 OI7      0.269600
     12 O2          1.9240   -0.7840    1.7090 oh        1 OI7     -0.621800
     13 C1          2.8240    0.6100   -0.1360 c3        1 OI7      0.204400
     14 O1          3.8420    0.7780    0.7710 os        1 OI7     -0.578200
     15 P1          5.4190    0.3240    0.1960 p5        1 OI7      1.325900
     16 O1P         5.1930   -1.1550   -0.0090 o         1 OI7     -0.937500
     17 O3P         5.5780    1.1340   -1.0620 o         1 OI7     -0.937500
     18 O2P         6.3210    0.7100    1.3370 o         1 OI7     -0.937500
     19 P2         -5.3380   -0.5020   -0.2500 p5        1 OI7      1.324900
     20 O5P        -4.9600   -1.8820   -0.7410 o         1 OI7     -0.937833
     21 O4P        -6.4460   -0.4530    0.7690 o         1 OI7     -0.937833
     22 O6P        -5.3970    0.5580   -1.3190 o         1 OI7     -0.937833
     23 H4          0.1670   -2.8920    0.3830 h1        1 OI7      0.061700
     24 H5         -0.5940   -0.4980   -1.4250 h1        1 OI7      0.031700
     25 H6         -1.5660   -1.0320    1.4530 h1        1 OI7      0.035700
     26 H7         -2.2850    1.0220    0.1680 h1        1 OI7      0.000700
     27 H7A        -2.9670   -0.0450   -1.1620 h1        1 OI7      0.000700
     28 HO6        -3.1950   -2.2710   -0.1750 ho        1 OI7      0.487000
     29 HO4        -0.9010   -3.0170   -1.6700 ho        1 OI7      0.420000
     30 H3          2.2020   -1.5610   -1.5380 h1        1 OI7      0.039700
     31 HO3         3.5450   -2.3440    0.2320 ho        1 OI7      0.482000
     32 HO2         2.6050   -0.2060    2.0850 ho        1 OI7      0.431000
     33 H1          3.2300    0.3110   -1.1420 h1        1 OI7      0.012200
     34 H1A         2.2450    1.5740   -0.2410 h1        1 OI7      0.012200
@<TRIPOS>BOND
     1    1    2 1   
     2    1    8 1   
     3    1    9 1   
     4    1   23 1   
     5    2    3 1   
     6    2    7 1   
     7    2   24 1   
     8    3    4 1   
     9    3    6 1   
    10    3   25 1   
    11    4    5 1   
    12    4   26 1   
    13    4   27 1   
    14    5   19 1   
    15    6   28 1   
    16    7   11 1   
    17    8   29 1   
    18    9   10 1   
    19    9   11 1   
    20    9   30 1   
    21   10   31 1   
    22   11   12 1   
    23   11   13 1   
    24   12   32 1   
    25   13   14 1   
    26   13   33 1   
    27   13   34 1   
    28   14   15 1   
    29   15   16 1   
    30   15   17 1   
    31   15   18 1   
    32   19   20 1   
    33   19   21 1   
    34   19   22 1   
@<TRIPOS>SUBSTRUCTURE
     1 OI7         1 TEMP              0 ****  ****    0 ROOT
