@<TRIPOS>MOLECULE
OI7
   34    34     1     0     0
SMALL
bcc


@<TRIPOS>ATOM
      1 C4          0.5600   -0.1130    0.2790 c3        1 OI7      0.117100
      2 C5          2.0720    0.1070    0.0320 c3        1 OI7      0.099100
      3 C6          2.4350    1.6010   -0.1050 c3        1 OI7      0.116100
      4 C7          3.7070    1.8560   -0.9640 c3        1 OI7      0.182400
      5 O7          3.3830    2.4380   -2.1670 os        1 OI7     -0.586200
      6 O6          1.2880    2.2560   -0.6340 oh        1 OI7     -0.669800
      7 O5          2.7690   -0.5090    1.1240 os        1 OI7     -0.438600
      8 O4         -0.1340   -0.3290   -0.9390 oh        1 OI7     -0.628800
      9 C3          0.5130   -1.3700    1.1670 c3        1 OI7      0.149100
     10 O3         -0.6070   -1.3320    2.0160 oh        1 OI7     -0.646800
     11 C2          1.8660   -1.2950    1.9330 c3        1 OI7      0.270600
     12 O2          1.7140   -0.4860    3.0720 oh        1 OI7     -0.623800
     13 C1          2.4940   -2.6880    2.2320 c3        1 OI7      0.205400
     14 O1          2.4230   -2.9860    3.5720 os        1 OI7     -0.578200
     15 P1          1.4140   -4.3460    3.9690 p5        1 OI7      1.326900
     16 O1P         0.0760   -3.7980    3.5310 o         1 OI7     -0.936833
     17 O3P         1.9680   -5.4530    3.1140 o         1 OI7     -0.936833
     18 O2P         1.6180   -4.5010    5.4510 o         1 OI7     -0.936833
     19 P2          4.4350    3.6890   -2.7730 p5        1 OI7      1.323900
     20 O5P         5.4120    2.9410   -3.6410 o         1 OI7     -0.938500
     21 O4P         3.4430    4.5500   -3.5120 o         1 OI7     -0.938500
     22 O6P         5.0260    4.3020   -1.5300 o         1 OI7     -0.938500
     23 H4          0.1080    0.7620    0.8170 h1        1 OI7      0.063700
     24 H5          2.3830   -0.4390   -0.9010 h1        1 OI7      0.041700
     25 H6          2.5870    2.0220    0.9260 h1        1 OI7      0.038700
     26 H7          4.2050    0.8550   -1.1260 h1        1 OI7      0.013200
     27 H7A         4.4070    2.5240   -0.3860 h1        1 OI7      0.013200
     28 HO6         1.5290    2.6360   -1.4940 ho        1 OI7      0.445000
     29 HO4         0.0900    0.4390   -1.4860 ho        1 OI7      0.408000
     30 H3          0.4810   -2.2980    0.5350 h1        1 OI7      0.041700
     31 HO3        -0.4670   -2.0460    2.6770 ho        1 OI7      0.485000
     32 HO2         2.0660   -0.9800    3.8290 ho        1 OI7      0.432000
     33 H1          1.9620   -3.4680    1.6200 h1        1 OI7      0.013200
     34 H1A         3.5740   -2.6340    1.9110 h1        1 OI7      0.013200
@<TRIPOS>BOND
     1    1    2 1   
     2    1    8 1   
     3    1    9 1   
     4    1   23 1   
     5    2    3 1   
     6    2    7 1   
     7    2   24 1   
     8    3    4 1   
     9    3    6 1   
    10    3   25 1   
    11    4    5 1   
    12    4   26 1   
    13    4   27 1   
    14    5   19 1   
    15    6   28 1   
    16    7   11 1   
    17    8   29 1   
    18    9   10 1   
    19    9   11 1   
    20    9   30 1   
    21   10   31 1   
    22   11   12 1   
    23   11   13 1   
    24   12   32 1   
    25   13   14 1   
    26   13   33 1   
    27   13   34 1   
    28   14   15 1   
    29   15   16 1   
    30   15   17 1   
    31   15   18 1   
    32   19   20 1   
    33   19   21 1   
    34   19   22 1   
@<TRIPOS>SUBSTRUCTURE
     1 OI7         1 TEMP              0 ****  ****    0 ROOT
