@<TRIPOS>MOLECULE
OIC
   26    27     1     0     0
SMALL
bcc


@<TRIPOS>ATOM
      1 N          -0.2000   -1.0120   -0.9540 n3        1 OIC     -0.776200
      2 CA         -1.2820   -0.8610    0.0320 c3        1 OIC      0.038500
      3 C          -2.2030    0.3560   -0.3120 c         1 OIC      0.934600
      4 O          -1.9180    1.4880    0.1670 o         1 OIC     -0.840300
      5 OXT        -3.2140    0.1080   -1.0250 o         1 OIC     -0.840300
      6 CB         -0.6420   -0.7150    1.4280 c3        1 OIC     -0.081400
      7 CG          0.8580   -0.5280    1.1630 c3        1 OIC     -0.051700
      8 CD          1.0520   -1.2160   -0.2150 c3        1 OIC      0.172500
      9 C4          1.1800    0.9560    1.1490 c3        1 OIC     -0.088400
     10 C5          2.4850    1.2710    0.4550 c3        1 OIC     -0.065400
     11 C6          2.4620    0.7480   -0.9650 c3        1 OIC     -0.071400
     12 C7          2.2970   -0.7540   -0.9690 c3        1 OIC     -0.053400
     13 H          -0.3800   -1.7930   -1.5530 hn        1 OIC      0.333800
     14 HA         -1.9460   -1.7740    0.0290 h1        1 OIC      0.013700
     15 HB2        -1.0800    0.1660    1.9590 hc        1 OIC      0.040700
     16 HB3        -0.8190   -1.6310    2.0420 hc        1 OIC      0.040700
     17 HG          1.4840   -1.0500    1.9290 hc        1 OIC      0.017700
     18 HD          1.2130   -2.3220   -0.0040 h1        1 OIC     -0.017300
     19 H41         0.3330    1.4920    0.6250 hc        1 OIC      0.070200
     20 H42         1.2170    1.3290    2.2050 hc        1 OIC      0.070200
     21 H51         2.6430    2.3810    0.4460 hc        1 OIC      0.015700
     22 H52         3.3440    0.8150    1.0140 hc        1 OIC      0.015700
     23 H61         1.6090    1.2180   -1.5220 hc        1 OIC      0.041700
     24 H62         3.4140    1.0230   -1.4900 hc        1 OIC      0.041700
     25 H71         3.1890   -1.2260   -0.4780 hc        1 OIC      0.019700
     26 H72         2.2600   -1.1240   -2.0270 hc        1 OIC      0.019700
@<TRIPOS>BOND
     1    1    2 1   
     2    1    8 1   
     3    1   13 1   
     4    2    3 1   
     5    2    6 1   
     6    2   14 1   
     7    3    4 1   
     8    3    5 1   
     9    6    7 1   
    10    6   15 1   
    11    6   16 1   
    12    7    8 1   
    13    7    9 1   
    14    7   17 1   
    15    8   12 1   
    16    8   18 1   
    17    9   10 1   
    18    9   19 1   
    19    9   20 1   
    20   10   11 1   
    21   10   21 1   
    22   10   22 1   
    23   11   12 1   
    24   11   23 1   
    25   11   24 1   
    26   12   25 1   
    27   12   26 1   
@<TRIPOS>SUBSTRUCTURE
     1 OIC         1 TEMP              0 ****  ****    0 ROOT
