@<TRIPOS>MOLECULE
OID
   38    34     1     0     0
SMALL
bcc


@<TRIPOS>ATOM
      1 O17        -0.8000    0.7690    7.8300 o         1 OID     -0.587000
      2 C2         -0.0210   -0.0510    7.2640 c1        1 OID      0.327000
      3 O1          1.0980   -0.3170    7.7820 o         1 OID     -0.587000
      4 C3         -0.4670   -0.7760    6.0060 c2        1 OID     -0.223000
      5 C4          0.1630   -0.1100    4.7810 c3        1 OID     -0.144000
      6 C5         -0.5810   -0.5610    3.5180 c3        1 OID     -0.157000
      7 C6          0.2800   -0.2600    2.2780 c3        1 OID     -0.158000
      8 C7         -0.6050   -0.3030    1.0110 c3        1 OID     -0.158000
      9 C8          0.2970   -0.1990   -0.2550 c3        1 OID     -0.157000
     10 C9         -0.5870    0.0940   -1.5020 c3        1 OID     -0.158000
     11 C10         0.2890    0.0470   -2.7810 c3        1 OID     -0.179000
     12 C11        -0.3240    0.9650   -3.8590 c3        1 OID     -0.023000
     13 N12         0.2720    0.6630   -5.1480 n3        1 OID     -0.156000
     14 C16         1.4960    1.0680   -5.5720 c1        1 OID     -0.105000
     15 N15         1.6400    0.6840   -6.8670 n2        1 OID     -0.149000
     16 C14         0.5250    0.0520   -7.2370 c1        1 OID     -0.184000
     17 C13        -0.3300    0.0380   -6.1620 c1        1 OID     -0.165000
     18 H3         -1.4410   -0.7350    5.9340 ha        1 OID      0.058000
     19 H3A        -0.1830   -1.7120    6.0500 ha        1 OID      0.058000
     20 H4          1.1040   -0.3690    4.7150 hc        1 OID      0.084000
     21 H4A         0.0990    0.8610    4.8680 hc        1 OID      0.084000
     22 H5         -1.4300   -0.0790    3.4510 hc        1 OID      0.066000
     23 H5A        -0.7540   -1.5230    3.5690 hc        1 OID      0.066000
     24 H6          0.9860   -0.9270    2.2030 hc        1 OID      0.077000
     25 H6A         0.6790    0.6310    2.3660 hc        1 OID      0.077000
     26 H7         -1.1030   -1.1460    0.9890 hc        1 OID      0.074500
     27 H7A        -1.2310    0.4420    1.0260 hc        1 OID      0.074500
     28 H8          0.7760   -1.0460   -0.3850 hc        1 OID      0.080500
     29 H8A         0.9440    0.5280   -0.1350 hc        1 OID      0.080500
     30 H9         -0.9920    0.9840   -1.4140 hc        1 OID      0.078500
     31 H9A        -1.2920   -0.5780   -1.5660 hc        1 OID      0.078500
     32 H10         0.3260   -0.8700   -3.1170 hc        1 OID      0.093500
     33 H10A        1.1900    0.3530   -2.5690 hc        1 OID      0.093500
     34 H11        -1.2890    0.8160   -3.9040 h1        1 OID      0.098000
     35 H11A       -0.1480    1.8970   -3.6310 h1        1 OID      0.098000
     36 H16         2.1480    1.5600   -5.0470 DU        1 OID      0.181667
     37 H14         0.3650   -0.3700   -8.1020 DU        1 OID      0.181667
     38 H13        -1.1000   -0.5190   -6.3860 DU        1 OID      0.181667
@<TRIPOS>BOND
     1    1    2 1   
     2    2    3 1   
     3    4    5 1   
     4    4   18 1   
     5    4   19 1   
     6    5    6 1   
     7    5   20 1   
     8    5   21 1   
     9    6    7 1   
    10    6   22 1   
    11    6   23 1   
    12    7    8 1   
    13    7   24 1   
    14    7   25 1   
    15    8    9 1   
    16    8   26 1   
    17    8   27 1   
    18    9   10 1   
    19    9   28 1   
    20    9   29 1   
    21   10   11 1   
    22   10   30 1   
    23   10   31 1   
    24   11   12 1   
    25   11   32 1   
    26   11   33 1   
    27   12   13 1   
    28   12   34 1   
    29   12   35 1   
    30   13   14 1   
    31   13   17 1   
    32   14   15 1   
    33   15   16 1   
    34   16   17 1   
@<TRIPOS>SUBSTRUCTURE
     1 OID         1 TEMP              0 ****  ****    0 ROOT
