@<TRIPOS>MOLECULE
OID
   38    38     1     0     0
SMALL
bcc


@<TRIPOS>ATOM
      1 O17         0.3930    1.1110    0.1130 o         1 OID     -0.852300
      2 C2          1.2710    0.2030    0.0410 c         1 OID      0.907600
      3 O1          1.6070   -0.5300    1.0150 o         1 OID     -0.852300
      4 C3          1.9960   -0.0130   -1.3000 c3        1 OID     -0.194400
      5 C4          1.0220   -0.0300   -2.4520 c3        1 OID     -0.065400
      6 C5          1.7310   -0.0380   -3.7900 c3        1 OID     -0.078400
      7 C6          0.7450   -0.0710   -4.9390 c3        1 OID     -0.079400
      8 C7          1.4540   -0.0540   -6.2760 c3        1 OID     -0.079400
      9 C8          0.4690   -0.0850   -7.4250 c3        1 OID     -0.078400
     10 C9          1.1840   -0.0490   -8.7600 c3        1 OID     -0.079400
     11 C10         0.1990   -0.0770   -9.9090 c3        1 OID     -0.100400
     12 C11         0.9560   -0.0220  -11.2370 c3        1 OID      0.036300
     13 N12         0.1270   -0.0190  -12.4060 na        1 OID     -0.200900
     14 C16        -0.1500   -1.1080  -13.2460 cc        1 OID      0.383400
     15 N15        -0.9970   -0.7620  -14.2400 nd        1 OID     -0.675000
     16 C14        -1.2910    0.5850  -14.0350 cd        1 OID      0.281200
     17 C13        -0.6090    1.0620  -12.9000 cc        1 OID     -0.254600
     18 H3          2.7280    0.8230   -1.4300 hc        1 OID      0.018700
     19 H3A         2.5710   -0.9720   -1.2610 hc        1 OID      0.018700
     20 H4          0.3560    0.8710   -2.3730 hc        1 OID      0.044700
     21 H4A         0.3640   -0.9350   -2.3720 hc        1 OID      0.044700
     22 H5          2.3770    0.8750   -3.8770 hc        1 OID      0.026700
     23 H5A         2.4090   -0.9290   -3.8520 hc        1 OID      0.026700
     24 H6          0.1100   -0.9930   -4.8620 hc        1 OID      0.037700
     25 H6A         0.0570    0.8110   -4.8660 hc        1 OID      0.037700
     26 H7          2.1440   -0.9360   -6.3480 hc        1 OID      0.035200
     27 H7A         2.0900    0.8680   -6.3510 hc        1 OID      0.035200
     28 H8         -0.1580   -1.0130   -7.3580 hc        1 OID      0.041200
     29 H8A        -0.2270    0.7910   -7.3470 hc        1 OID      0.041200
     30 H9          1.8120    0.8780   -8.8220 hc        1 OID      0.039200
     31 H9A         1.8790   -0.9270   -8.8360 hc        1 OID      0.039200
     32 H10        -0.4210   -1.0100   -9.8550 hc        1 OID      0.054200
     33 H10A       -0.5020    0.7950   -9.8300 hc        1 OID      0.054200
     34 H11         1.6450   -0.9130  -11.3010 h1        1 OID      0.058700
     35 H11A        1.5890    0.9120  -11.2540 h1        1 OID      0.058700
     36 H16         0.2900   -2.0980  -13.0930 h5        1 OID      0.058100
     37 H14        -1.9610    1.1290  -14.6980 h4        1 OID      0.037100
     38 H13        -0.5890    2.0420  -12.4310 h4        1 OID      0.176000
@<TRIPOS>BOND
     1    1    2 1   
     2    2    3 1   
     3    2    4 1   
     4    4    5 1   
     5    4   18 1   
     6    4   19 1   
     7    5    6 1   
     8    5   20 1   
     9    5   21 1   
    10    6    7 1   
    11    6   22 1   
    12    6   23 1   
    13    7    8 1   
    14    7   24 1   
    15    7   25 1   
    16    8    9 1   
    17    8   26 1   
    18    8   27 1   
    19    9   10 1   
    20    9   28 1   
    21    9   29 1   
    22   10   11 1   
    23   10   30 1   
    24   10   31 1   
    25   11   12 1   
    26   11   32 1   
    27   11   33 1   
    28   12   13 1   
    29   12   34 1   
    30   12   35 1   
    31   13   14 1   
    32   13   17 1   
    33   14   15 2   
    34   14   36 1   
    35   15   16 1   
    36   16   17 2   
    37   16   37 1   
    38   17   38 1   
@<TRIPOS>SUBSTRUCTURE
     1 OID         1 TEMP              0 ****  ****    0 ROOT
