@<TRIPOS>MOLECULE
OID
   38    38     1     0     0
SMALL
bcc


@<TRIPOS>ATOM
      1 O17         0.4050    1.1250    0.1110 o         1 OID     -0.852300
      2 C2          1.2690    0.2030    0.0410 c         1 OID      0.907600
      3 O1          1.5920   -0.5340    1.0160 o         1 OID     -0.852300
      4 C3          1.9910   -0.0260   -1.2990 c3        1 OID     -0.194400
      5 C4          1.0180   -0.0290   -2.4520 c3        1 OID     -0.065400
      6 C5          1.7280   -0.0500   -3.7900 c3        1 OID     -0.078400
      7 C6          0.7430   -0.0690   -4.9390 c3        1 OID     -0.079400
      8 C7          1.4530   -0.0630   -6.2760 c3        1 OID     -0.079400
      9 C8          0.4680   -0.0820   -7.4260 c3        1 OID     -0.078400
     10 C9          1.1840   -0.0570   -8.7590 c3        1 OID     -0.079400
     11 C10         0.1990   -0.0720   -9.9090 c3        1 OID     -0.100400
     12 C11         0.9590   -0.0290  -11.2360 c3        1 OID      0.036300
     13 N12         0.1300   -0.0140  -12.4060 na        1 OID     -0.200900
     14 C16        -0.1580   -1.1000  -13.2480 cc        1 OID      0.383400
     15 N15        -1.0000   -0.7430  -14.2420 nd        1 OID     -0.675000
     16 C14        -1.2800    0.6070  -14.0360 cd        1 OID      0.281200
     17 C13        -0.5930    1.0750  -12.9000 cc        1 OID     -0.254600
     18 H3          2.7370    0.7990   -1.4300 hc        1 OID      0.018700
     19 H3A         2.5510   -0.9930   -1.2580 hc        1 OID      0.018700
     20 H4          0.3660    0.8820   -2.3740 hc        1 OID      0.044700
     21 H4A         0.3460   -0.9230   -2.3710 hc        1 OID      0.044700
     22 H5          2.3880    0.8530   -3.8770 hc        1 OID      0.026700
     23 H5A         2.3930   -0.9510   -3.8500 hc        1 OID      0.026700
     24 H6          0.0940   -0.9810   -4.8620 hc        1 OID      0.037700
     25 H6A         0.0670    0.8240   -4.8670 hc        1 OID      0.037700
     26 H7          2.1290   -0.9560   -6.3460 hc        1 OID      0.035200
     27 H7A         2.1020    0.8490   -6.3510 hc        1 OID      0.035200
     28 H8         -0.1720   -1.0000   -7.3580 hc        1 OID      0.041200
     29 H8A        -0.2160    0.8040   -7.3490 hc        1 OID      0.041200
     30 H9          1.8260    0.8610   -8.8220 hc        1 OID      0.039200
     31 H9A         1.8670   -0.9440   -8.8340 hc        1 OID      0.039200
     32 H10        -0.4330   -0.9960   -9.8550 hc        1 OID      0.054700
     33 H10A       -0.4890    0.8090   -9.8320 hc        1 OID      0.054700
     34 H11         1.6350   -0.9290  -11.3000 h1        1 OID      0.058700
     35 H11A        1.6050    0.8970  -11.2540 h1        1 OID      0.058700
     36 H16         0.2710   -2.0940  -13.0960 h5        1 OID      0.058100
     37 H14        -1.9440    1.1590  -14.6990 h4        1 OID      0.037100
     38 H13        -0.5630    2.0540  -12.4290 h4        1 OID      0.176000
@<TRIPOS>BOND
     1    1    2 1   
     2    2    3 1   
     3    2    4 1   
     4    4    5 1   
     5    4   18 1   
     6    4   19 1   
     7    5    6 1   
     8    5   20 1   
     9    5   21 1   
    10    6    7 1   
    11    6   22 1   
    12    6   23 1   
    13    7    8 1   
    14    7   24 1   
    15    7   25 1   
    16    8    9 1   
    17    8   26 1   
    18    8   27 1   
    19    9   10 1   
    20    9   28 1   
    21    9   29 1   
    22   10   11 1   
    23   10   30 1   
    24   10   31 1   
    25   11   12 1   
    26   11   32 1   
    27   11   33 1   
    28   12   13 1   
    29   12   34 1   
    30   12   35 1   
    31   13   14 1   
    32   13   17 1   
    33   14   15 2   
    34   14   36 1   
    35   15   16 1   
    36   16   17 2   
    37   16   37 1   
    38   17   38 1   
@<TRIPOS>SUBSTRUCTURE
     1 OID         1 TEMP              0 ****  ****    0 ROOT
