@<TRIPOS>MOLECULE
OID
   38    38     1     0     0
SMALL
bcc


@<TRIPOS>ATOM
      1 O17         6.9800   -1.1530    1.1240 o         1 OID     -0.852300
      2 C2          7.0240   -0.2860    0.2040 c         1 OID      0.907600
      3 O1          8.0310   -0.0960   -0.5380 o         1 OID     -0.852300
      4 C3          5.7930    0.6120   -0.0190 c3        1 OID     -0.194400
      5 C4          4.5190   -0.1960   -0.0180 c3        1 OID     -0.065400
      6 C5          3.2900    0.6880   -0.0320 c3        1 OID     -0.078400
      7 C6          2.0170   -0.1310   -0.0470 c3        1 OID     -0.079400
      8 C7          0.7890    0.7530   -0.0350 c3        1 OID     -0.079400
      9 C8         -0.4830   -0.0660   -0.0490 c3        1 OID     -0.078400
     10 C9         -1.7080    0.8240   -0.0180 c3        1 OID     -0.079400
     11 C10        -2.9800    0.0040   -0.0290 c3        1 OID     -0.100400
     12 C11        -4.1920    0.9360    0.0210 c3        1 OID      0.036300
     13 N12        -5.4640    0.2740    0.0400 na        1 OID     -0.200900
     14 C16        -6.3410    0.1040   -1.0430 cc        1 OID      0.383400
     15 N15        -7.4390   -0.5960   -0.6820 nd        1 OID     -0.675000
     16 C14        -7.2670   -0.9030    0.6660 cd        1 OID      0.281200
     17 C13        -6.0460   -0.3780    1.1300 cc        1 OID     -0.254600
     18 H3          5.7680    1.3670    0.8070 hc        1 OID      0.018700
     19 H3A         5.9060    1.1630   -0.9860 hc        1 OID      0.018700
     20 H4          4.5040   -0.8720   -0.9130 hc        1 OID      0.044700
     21 H4A         4.5120   -0.8540    0.8920 hc        1 OID      0.044700
     22 H5          3.2960    1.3530    0.8720 hc        1 OID      0.026700
     23 H5A         3.3160    1.3570   -0.9320 hc        1 OID      0.026700
     24 H6          2.0020   -0.7840   -0.9600 hc        1 OID      0.037700
     25 H6A         2.0010   -0.8120    0.8440 hc        1 OID      0.037700
     26 H7          0.8060    1.4050    0.8780 hc        1 OID      0.035200
     27 H7A         0.8080    1.4340   -0.9260 hc        1 OID      0.035200
     28 H8         -0.5070   -0.7080   -0.9690 hc        1 OID      0.041200
     29 H8A        -0.4960   -0.7560    0.8360 hc        1 OID      0.041200
     30 H9         -1.6790    1.4660    0.9010 hc        1 OID      0.039200
     31 H9A        -1.6930    1.5120   -0.9040 hc        1 OID      0.039200
     32 H10        -3.0170   -0.6280   -0.9540 hc        1 OID      0.054200
     33 H10A       -2.9930   -0.6900    0.8510 hc        1 OID      0.054200
     34 H11        -4.1180    1.5770    0.9480 h1        1 OID      0.058700
     35 H11A       -4.1680    1.6170   -0.8780 h1        1 OID      0.058700
     36 H16        -6.1360    0.5100   -2.0370 h5        1 OID      0.058100
     37 H14        -8.0110   -1.4710    1.2210 h4        1 OID      0.037100
     38 H13        -5.5720   -0.4130    2.1080 h4        1 OID      0.176000
@<TRIPOS>BOND
     1    1    2 1   
     2    2    3 1   
     3    2    4 1   
     4    4    5 1   
     5    4   18 1   
     6    4   19 1   
     7    5    6 1   
     8    5   20 1   
     9    5   21 1   
    10    6    7 1   
    11    6   22 1   
    12    6   23 1   
    13    7    8 1   
    14    7   24 1   
    15    7   25 1   
    16    8    9 1   
    17    8   26 1   
    18    8   27 1   
    19    9   10 1   
    20    9   28 1   
    21    9   29 1   
    22   10   11 1   
    23   10   30 1   
    24   10   31 1   
    25   11   12 1   
    26   11   32 1   
    27   11   33 1   
    28   12   13 1   
    29   12   34 1   
    30   12   35 1   
    31   13   14 1   
    32   13   17 1   
    33   14   15 2   
    34   14   36 1   
    35   15   16 1   
    36   16   17 2   
    37   16   37 1   
    38   17   38 1   
@<TRIPOS>SUBSTRUCTURE
     1 OID         1 TEMP              0 ****  ****    0 ROOT
