@<TRIPOS>MOLECULE
OIL
   20    18     1     0     0
SMALL
bcc


@<TRIPOS>ATOM
      1 C          -0.0830   -0.2250    0.1810 c         1 OIL      0.894600
      2 O          -0.6260    0.8660   -0.1620 o         1 OIL     -0.834800
      3 O1          1.9920    0.8110   -0.5830 oh        1 OIL     -0.648800
      4 CA          1.4700   -0.2270    0.2320 c3        1 OIL      0.022100
      5 CB          1.9620   -0.0550    1.6820 c3        1 OIL     -0.054500
      6 CG1         3.4070    0.2970    1.7260 c2        1 OIL     -0.118200
      7 CG2         1.6320   -1.2930    2.4880 c3        1 OIL     -0.093100
      8 OXT        -0.7050   -1.2840    0.4620 o         1 OIL     -0.834800
      9 HO1         4.2860    2.5830   -1.0290 ha        1 OIL      0.000500
     10 HA          1.2880    1.4720   -0.6820 ho        1 OIL      0.424000
     11 HB          1.8730   -1.1830   -0.1930 h1        1 OIL      0.046700
     12 HD1         1.3960    0.8230    2.1160 hc        1 OIL      0.060700
     13 HD1A        5.3280    0.2180    2.6360 ha        1 OIL      0.092000
     14 HD1B        4.0060   -0.7470    3.4930 ha        1 OIL      0.092000
     15 HG1         3.7490    2.1700   -1.0060 ha        1 OIL      0.000500
     16 HG1A        3.7280    0.9530    0.8930 ha        1 OIL      0.131000
     17 HG2         1.7460   -1.0920    3.5800 hc        1 OIL      0.036033
     18 HG2A        2.3120   -2.1340    2.2110 hc        1 OIL      0.036033
     19 HG2B        0.5760   -1.6050    2.2800 hc        1 OIL      0.036033
     20 CD1         4.2770   -0.0930    2.6560 c2        1 OIL     -0.287000
@<TRIPOS>BOND
     1    1    2 1   
     2    1    4 1   
     3    1    8 1   
     4    3    4 1   
     5    3   10 1   
     6    4    5 1   
     7    4   11 1   
     8    5    6 1   
     9    5    7 1   
    10    5   12 1   
    11    6   16 1   
    12    6   20 2   
    13    7   17 1   
    14    7   18 1   
    15    7   19 1   
    16    9   15 1   
    17   13   20 1   
    18   14   20 1   
@<TRIPOS>SUBSTRUCTURE
     1 OIL         1 TEMP              0 ****  ****    0 ROOT
