@<TRIPOS>MOLECULE
OIL
   20    17     1     0     0
SMALL
bcc


@<TRIPOS>ATOM
      1 C           0.2410   -0.1390    0.0590 c2        1 OIL      0.349000
      2 O          -0.1350    0.8790   -0.6050 o         1 OIL     -0.578000
      3 O1          1.6420    2.4550   -1.5920 oh        1 OIL     -0.453000
      4 CA          1.6940   -0.1650    0.4630 c2        1 OIL     -0.175000
      5 CB          2.2550   -0.8330    1.4790 c2        1 OIL     -0.170000
      6 CG1         3.7180   -0.7130    1.7620 c3        1 OIL     -0.214000
      7 CG2         1.5220   -1.7390    2.3930 c3        1 OIL     -0.180000
      8 OXT        -0.5380   -1.0880    0.3510 o         1 OIL     -0.578000
      9 HO1         1.1850    2.5040   -0.7430 ho        1 OIL      0.218500
     10 HA          1.2200    1.6920   -2.0030 ho        1 OIL      0.218500
     11 HB          2.3160    0.4910   -0.1760 ha        1 OIL      0.108000
     12 HD1         3.3060    0.2710    3.6590 ha        1 OIL      0.033000
     13 HD1A        4.6030    2.0690    2.3130 ha        1 OIL      0.008500
     14 HD1B        3.9320    2.1680    2.2680 ha        1 OIL      0.008500
     15 HG1         4.2470   -0.1900    0.9120 hc        1 OIL      0.130500
     16 HG1A        4.1740   -1.7480    1.8180 hc        1 OIL      0.130500
     17 HG2         1.8920   -2.7880    2.2720 hc        1 OIL      0.077667
     18 HG2A        1.6860   -1.4340    3.4570 hc        1 OIL      0.077667
     19 HG2B        0.4230   -1.7240    2.1700 hc        1 OIL      0.077667
     20 CD1         4.1190   -0.0480    2.9860 c1        1 OIL     -0.092000
@<TRIPOS>BOND
     1    1    2 1   
     2    1    4 1   
     3    1    8 1   
     4    3    9 1   
     5    3   10 1   
     6    4    5 1   
     7    4   11 1   
     8    5    6 1   
     9    5    7 1   
    10    6   15 1   
    11    6   16 1   
    12    6   20 1   
    13    7   17 1   
    14    7   18 1   
    15    7   19 1   
    16   12   20 1   
    17   13   14 1   
@<TRIPOS>SUBSTRUCTURE
     1 OIL         1 TEMP              0 ****  ****    0 ROOT
