@<TRIPOS>MOLECULE
OIL
   20    19     1     0     0
SMALL
bcc


@<TRIPOS>ATOM
      1 C           1.6820    0.0270    0.1930 c         1 OIL      0.893600
      2 O           2.1750   -0.7490    1.0630 o         1 OIL     -0.837800
      3 O1          0.2320   -1.8550   -0.3690 oh        1 OIL     -0.646800
      4 CA          0.3660   -0.4460   -0.4820 c3        1 OIL      0.020100
      5 CB         -0.8500    0.2500    0.1490 c3        1 OIL     -0.071700
      6 CG1        -2.1450   -0.4090   -0.3030 c3        1 OIL     -0.079400
      7 CG2        -0.8360    1.7230   -0.1950 c3        1 OIL     -0.093100
      8 OXT         2.1910    1.1250   -0.1610 o         1 OIL     -0.837800
      9 HO1         0.7740   -2.1280    0.3890 ho        1 OIL      0.422000
     10 HA          0.3960   -0.2310   -1.5830 h1        1 OIL      0.041700
     11 HB         -0.7620    0.1330    1.2650 hc        1 OIL      0.046700
     12 HD1        -3.1750   -0.1870    1.5930 hc        1 OIL      0.017033
     13 HD1A       -3.5070    1.1310    0.3990 hc        1 OIL      0.017033
     14 HD1B       -4.2570   -0.5020    0.1740 hc        1 OIL      0.017033
     15 HG1        -2.3210   -0.1760   -1.3860 hc        1 OIL      0.039200
     16 HG1A       -2.0290   -1.5230   -0.2170 hc        1 OIL      0.039200
     17 HG2        -1.5870    2.2770    0.4180 hc        1 OIL      0.032033
     18 HG2A        0.1830    2.1460   -0.0000 hc        1 OIL      0.032033
     19 HG2B       -1.0800    1.8780   -1.2740 hc        1 OIL      0.032033
     20 CD1        -3.3350    0.0330    0.5090 c3        1 OIL     -0.085100
@<TRIPOS>BOND
     1    1    2 1   
     2    1    4 1   
     3    1    8 1   
     4    3    4 1   
     5    3    9 1   
     6    4    5 1   
     7    4   10 1   
     8    5    6 1   
     9    5    7 1   
    10    5   11 1   
    11    6   15 1   
    12    6   16 1   
    13    6   20 1   
    14    7   17 1   
    15    7   18 1   
    16    7   19 1   
    17   12   20 1   
    18   13   20 1   
    19   14   20 1   
@<TRIPOS>SUBSTRUCTURE
     1 OIL         1 TEMP              0 ****  ****    0 ROOT
