@<TRIPOS>MOLECULE
OIL
   20    18     1     0     0
SMALL
bcc


@<TRIPOS>ATOM
      1 C          -0.2360    1.5340   -1.9230 c1        1 OIL      0.313000
      2 O          -1.1660    2.3530   -2.1440 o         1 OIL     -0.572500
      3 O1          0.0110   -0.8370   -1.9890 oh        1 OIL     -0.374000
      4 CA         -0.5320    0.2210   -1.2350 c2        1 OIL     -0.041000
      5 CB          0.0860    0.2250    0.1450 c3        1 OIL     -0.111000
      6 CD1         1.2730   -1.4940    1.4650 c3        1 OIL     -0.203000
      7 CG1        -0.0160   -1.1600    0.7470 c3        1 OIL     -0.158000
      8 CG2        -0.6490    1.2130    1.0250 c3        1 OIL     -0.211000
      9 OXT         0.9410    1.8090   -2.2750 o         1 OIL     -0.572500
     10 HO1        -0.5370   -1.0330   -2.6610 ho        1 OIL      0.221000
     11 HA         -1.4990    0.1040   -1.1580 h4        1 OIL      0.081000
     12 HB          1.0250    0.4830    0.0810 hc        1 OIL      0.086000
     13 HD1         2.0280   -1.3870    0.8480 hc        1 OIL      0.056333
     14 HD1A        1.2400   -2.4210    1.7820 hc        1 OIL      0.056333
     15 HD1B        1.3880   -0.8910    2.2290 hc        1 OIL      0.056333
     16 HG1        -0.1730   -1.8130    0.0370 hc        1 OIL      0.078500
     17 HG1A       -0.7590   -1.1850    1.3830 hc        1 OIL      0.078500
     18 HG2        -0.4390    2.1260    0.7370 hc        1 OIL      0.071333
     19 HG2A       -1.6150    1.0610    0.9500 hc        1 OIL      0.071333
     20 HG2B       -0.3710    1.0910    1.9560 hc        1 OIL      0.071333
@<TRIPOS>BOND
     1    1    2 1   
     2    1    9 1   
     3    3    4 1   
     4    3   10 1   
     5    4    5 1   
     6    4   11 1   
     7    5    7 1   
     8    5    8 1   
     9    5   12 1   
    10    6    7 1   
    11    6   13 1   
    12    6   14 1   
    13    6   15 1   
    14    7   16 1   
    15    7   17 1   
    16    8   18 1   
    17    8   19 1   
    18    8   20 1   
@<TRIPOS>SUBSTRUCTURE
     1 OIL         1 TEMP              0 ****  ****    0 ROOT
