@<TRIPOS>MOLECULE
OIN
   44    44     1     0     0
SMALL
bcc


@<TRIPOS>ATOM
      1 C10        -5.0660    1.2790   -1.2810 c3        1 OIN     -0.132000
      2 N          -3.6190    1.2190   -1.2040 n3        1 OIN     -0.220000
      3 C11        -3.2410    1.2440    0.0680 c3        1 OIN     -0.042500
      4 C17        -3.6870   -0.1590    0.4950 c3        1 OIN     -0.185500
      5 C16        -3.6450   -0.9510   -0.9220 c3        1 OIN     -0.185500
      6 C15        -3.1840    0.1600   -1.8720 c3        1 OIN     -0.042500
      7 C14        -1.6760    0.0200   -1.9870 c3        1 OIN     -0.151500
      8 C13        -0.8740    0.6330   -0.8090 c3        1 OIN      0.049000
      9 C12        -1.7560    1.3060    0.3130 c3        1 OIN     -0.151500
     10 O2         -0.1120   -0.3770   -0.2230 os        1 OIN     -0.275000
     11 C7          1.2700   -0.0390   -0.0540 c2        1 OIN      0.317000
     12 O3          1.6730    1.0570   -0.3980 o         1 OIN     -0.367000
     13 C9          2.2450   -1.0740    0.4800 c3        1 OIN     -0.065000
     14 C8          1.8440   -1.4680    1.8810 c3        1 OIN     -0.016000
     15 OH          0.9000   -2.5260    1.8230 oh        1 OIN     -0.333000
     16 C6          3.6500   -0.4880    0.5000 c2        1 OIN     -0.086000
     17 C5          4.7130   -1.2160   -0.0250 c2        1 OIN     -0.113000
     18 C4          6.0120   -0.7380    0.0990 c1        1 OIN     -0.133000
     19 C3          6.2510    0.4670    0.7460 c1        1 OIN     -0.125500
     20 C2          5.1910    1.1940    1.2710 c1        1 OIN     -0.125500
     21 C1          3.8890    0.7160    1.1470 c1        1 OIN     -0.119000
     22 H101       -5.3780    0.7290   -2.0400 h1        1 OIN      0.071667
     23 H102       -5.3500    2.2150   -1.4150 h1        1 OIN      0.071667
     24 H103       -5.4560    0.9320   -0.4390 h1        1 OIN      0.071667
     25 H11        -3.7180    1.9330    0.5690 h1        1 OIN      0.102500
     26 H171       -4.5910   -0.1430    0.8600 hc        1 OIN      0.091000
     27 H172       -3.0560   -0.5480    1.1310 hc        1 OIN      0.091000
     28 H161       -4.5360   -1.2780   -1.1690 hc        1 OIN      0.091000
     29 H162       -2.9950   -1.6810   -0.8970 hc        1 OIN      0.091000
     30 H15        -3.6200    0.0830   -2.7430 h1        1 OIN      0.102500
     31 H141       -1.4590   -0.9310   -2.0450 hc        1 OIN      0.099000
     32 H142       -1.3860    0.4550   -2.8180 hc        1 OIN      0.099000
     33 H13        -0.2620    1.3140   -1.1710 h1        1 OIN      0.107000
     34 H121       -1.5640    0.8600    1.1660 hc        1 OIN      0.099000
     35 H122       -1.4950    2.2440    0.3880 hc        1 OIN      0.099000
     36 H9          2.2300   -1.8670   -0.0990 hc        1 OIN      0.144000
     37 H81         1.4400   -0.6930    2.3370 h1        1 OIN      0.085500
     38 H82         2.6360   -1.7630    2.3770 h1        1 OIN      0.085500
     39 HOH         0.7960   -2.8790    2.6390 ho        1 OIN      0.207000
     40 H5          4.5460   -2.0630   -0.4800 ha        1 OIN      0.136000
     41 H4          6.7610   -1.2510   -0.2710 ha        1 OIN      0.134000
     42 H3          7.1690    0.8040    0.8330 ha        1 OIN      0.134500
     43 H2          5.3600    2.0460    1.7280 ha        1 OIN      0.134500
     44 H1          3.1500    1.2230    1.5120 ha        1 OIN      0.153000
@<TRIPOS>BOND
     1    1    2 1   
     2    1   22 1   
     3    1   23 1   
     4    1   24 1   
     5    2    3 1   
     6    2    6 1   
     7    3    4 1   
     8    3    9 1   
     9    3   25 1   
    10    4    5 1   
    11    4   26 1   
    12    4   27 1   
    13    5    6 1   
    14    5   28 1   
    15    5   29 1   
    16    6    7 1   
    17    6   30 1   
    18    7    8 1   
    19    7   31 1   
    20    7   32 1   
    21    8    9 1   
    22    8   10 1   
    23    8   33 1   
    24    9   34 1   
    25    9   35 1   
    26   10   11 1   
    27   11   12 1   
    28   11   13 1   
    29   13   14 1   
    30   13   16 1   
    31   13   36 1   
    32   14   15 1   
    33   14   37 1   
    34   14   38 1   
    35   15   39 1   
    36   16   17 1   
    37   16   21 1   
    38   17   18 1   
    39   17   40 1   
    40   18   41 1   
    41   19   20 1   
    42   19   42 1   
    43   20   43 1   
    44   21   44 1   
@<TRIPOS>SUBSTRUCTURE
     1 OIN         1 TEMP              0 ****  ****    0 ROOT
