@<TRIPOS>MOLECULE
OIN
   44    46     1     0     0
SMALL
bcc


@<TRIPOS>ATOM
      1 C10         0.1170   -1.4660    0.1110 c3        1 OIN      0.143100
      2 N           0.8050   -0.8410    1.2140 n3        1 OIN     -0.692600
      3 C11         0.7590    0.6420    1.1870 c3        1 OIN      0.157500
      4 C17        -0.6200    1.0520    1.7780 c3        1 OIN     -0.112400
      5 C16        -1.0020   -0.1230    2.6820 c3        1 OIN     -0.112400
      6 C15         0.1890   -1.1140    2.5360 c3        1 OIN      0.157500
      7 C14         1.2340   -0.8110    3.6200 c3        1 OIN     -0.079400
      8 C13         1.6980    0.6450    3.5300 c3        1 OIN      0.155100
      9 C12         1.8740    1.1660    2.1020 c3        1 OIN     -0.079400
     10 O2          2.9780    0.6750    4.2000 os        1 OIN     -0.458900
     11 C7          3.3910    1.8630    4.7380 c         1 OIN      0.638100
     12 O3          2.6560    2.8460    4.6410 o         1 OIN     -0.532000
     13 C9          4.7590    1.7930    5.3730 c3        1 OIN     -0.100400
     14 C8          5.6060    0.6500    4.7980 c3        1 OIN      0.144400
     15 OH          5.7490    0.7590    3.4000 oh        1 OIN     -0.599800
     16 C6          4.6390    1.6530    6.8560 ca        1 OIN     -0.087300
     17 C5          5.2510    2.5870    7.6990 ca        1 OIN     -0.115000
     18 C4          5.1580    2.4450    9.0830 ca        1 OIN     -0.128500
     19 C3          4.4530    1.3740    9.6330 ca        1 OIN     -0.121000
     20 C2          3.8380    0.4430    8.7950 ca        1 OIN     -0.128500
     21 C1          3.9290    0.5810    7.4120 ca        1 OIN     -0.115000
     22 H101        0.1820   -2.5790    0.2360 h1        1 OIN      0.034700
     23 H102        0.6370   -1.1790   -0.8400 h1        1 OIN      0.034700
     24 H103       -0.9670   -1.1780    0.0280 h1        1 OIN      0.034700
     25 H11         0.8990    1.0310    0.1460 h1        1 OIN      0.068700
     26 H171       -1.3670    1.1900    0.9600 hc        1 OIN      0.051200
     27 H172       -0.5440    2.0080    2.3470 hc        1 OIN      0.051200
     28 H161       -1.1330    0.1940    3.7430 hc        1 OIN      0.051200
     29 H162       -1.9500   -0.6030    2.3410 hc        1 OIN      0.051200
     30 H15        -0.1450   -2.1800    2.6140 h1        1 OIN      0.068700
     31 H141        0.7850   -0.9960    4.6280 hc        1 OIN      0.059950
     32 H142        2.1150   -1.4940    3.5030 hc        1 OIN      0.059950
     33 H13         0.9800    1.3110    4.0860 h1        1 OIN      0.068700
     34 H121        2.8730    0.8450    1.7070 hc        1 OIN      0.059950
     35 H122        1.8510    2.2860    2.1160 hc        1 OIN      0.059950
     36 H9          5.2640    2.7710    5.1170 hc        1 OIN      0.098700
     37 H81         5.1510   -0.3370    5.0780 h1        1 OIN      0.059200
     38 H82         6.6510    0.7190    5.2030 h1        1 OIN      0.059200
     39 HOH         4.8940    0.5390    3.0040 ho        1 OIN      0.413000
     40 H5          5.8030    3.4360    7.2710 ha        1 OIN      0.138500
     41 H4          5.6410    3.1820    9.7410 ha        1 OIN      0.134500
     42 H3          4.3810    1.2650   10.7250 ha        1 OIN      0.134000
     43 H2          3.2780   -0.4000    9.2260 ha        1 OIN      0.134500
     44 H1          3.4390   -0.1470    6.7460 ha        1 OIN      0.138500
@<TRIPOS>BOND
     1    1    2 1   
     2    1   22 1   
     3    1   23 1   
     4    1   24 1   
     5    2    3 1   
     6    2    6 1   
     7    3    4 1   
     8    3    9 1   
     9    3   25 1   
    10    4    5 1   
    11    4   26 1   
    12    4   27 1   
    13    5    6 1   
    14    5   28 1   
    15    5   29 1   
    16    6    7 1   
    17    6   30 1   
    18    7    8 1   
    19    7   31 1   
    20    7   32 1   
    21    8    9 1   
    22    8   10 1   
    23    8   33 1   
    24    9   34 1   
    25    9   35 1   
    26   10   11 1   
    27   11   12 2   
    28   11   13 1   
    29   13   14 1   
    30   13   16 1   
    31   13   36 1   
    32   14   15 1   
    33   14   37 1   
    34   14   38 1   
    35   15   39 1   
    36   16   17 ar  
    37   16   21 ar  
    38   17   18 ar  
    39   17   40 1   
    40   18   19 ar  
    41   18   41 1   
    42   19   20 ar  
    43   19   42 1   
    44   20   21 ar  
    45   20   43 1   
    46   21   44 1   
@<TRIPOS>SUBSTRUCTURE
     1 OIN         1 TEMP              0 ****  ****    0 ROOT
