@<TRIPOS>MOLECULE
OIN
   44    46     1     0     0
SMALL
bcc


@<TRIPOS>ATOM
      1 C10         0.0500   -0.9620   -0.7900 c3        1 OIN      0.143100
      2 N           1.4410   -0.6850   -0.5300 n3        1 OIN     -0.691600
      3 C11         1.6700    0.1720    0.6590 c3        1 OIN      0.157500
      4 C17         1.5910   -0.7650    1.8990 c3        1 OIN     -0.112900
      5 C16         1.9690   -2.1430    1.3480 c3        1 OIN     -0.112900
      6 C15         2.2320   -1.8860   -0.1640 c3        1 OIN      0.157500
      7 C14         3.7190   -1.5580   -0.3700 c3        1 OIN     -0.079400
      8 C13         4.1290   -0.3620    0.4930 c3        1 OIN      0.156100
      9 C12         3.0870    0.7550    0.5570 c3        1 OIN     -0.079400
     10 O2          5.3340    0.1490   -0.1240 os        1 OIN     -0.430900
     11 C7          6.2010    0.8500    0.6560 c         1 OIN      0.643100
     12 O3          5.9580    0.9840    1.8600 o         1 OIN     -0.564000
     13 C9          7.4040    1.3470   -0.1100 c3        1 OIN     -0.101400
     14 C8          8.6760    1.1730    0.7300 c3        1 OIN      0.145400
     15 OH          8.6750    1.8680    1.9540 oh        1 OIN     -0.599800
     16 C6          7.1880    2.7570   -0.5600 ca        1 OIN     -0.093300
     17 C5          7.1190    3.0410   -1.9290 ca        1 OIN     -0.106500
     18 C4          6.9270    4.3510   -2.3640 ca        1 OIN     -0.133500
     19 C3          6.8010    5.3860   -1.4370 ca        1 OIN     -0.120000
     20 C2          6.8670    5.1070   -0.0720 ca        1 OIN     -0.133500
     21 C1          7.0580    3.7980    0.3670 ca        1 OIN     -0.106500
     22 H101       -0.4660    0.0050   -1.0280 h1        1 OIN      0.034367
     23 H102       -0.4860   -1.4510    0.0680 h1        1 OIN      0.034367
     24 H103       -0.0180   -1.6360   -1.6840 h1        1 OIN      0.034367
     25 H11         0.9160    0.9980    0.7130 h1        1 OIN      0.068200
     26 H171        0.5570   -0.7680    2.3180 hc        1 OIN      0.050950
     27 H172        2.2920   -0.4300    2.6990 hc        1 OIN      0.050950
     28 H161        2.8740   -2.5580    1.8490 hc        1 OIN      0.050950
     29 H162        1.1330   -2.8710    1.4770 hc        1 OIN      0.050950
     30 H15         1.9440   -2.7670   -0.7920 h1        1 OIN      0.068200
     31 H141        4.3350   -2.4490   -0.0880 hc        1 OIN      0.062450
     32 H142        3.9150   -1.3270   -1.4490 hc        1 OIN      0.062450
     33 H13         4.3740   -0.7080    1.5370 h1        1 OIN      0.064700
     34 H121        3.2920    1.3970    1.4520 hc        1 OIN      0.062450
     35 H122        3.1690    1.3970   -0.3580 hc        1 OIN      0.062450
     36 H9          7.5200    0.6890   -1.0220 hc        1 OIN      0.090700
     37 H81         9.5520    1.5940    0.1650 h1        1 OIN      0.053200
     38 H82         8.8360    0.0740    0.9120 h1        1 OIN      0.053200
     39 HOH         7.9280    1.5480    2.4800 ho        1 OIN      0.424000
     40 H5          7.2130    2.2300   -2.6670 ha        1 OIN      0.143500
     41 H4          6.8740    4.5680   -3.4410 ha        1 OIN      0.134000
     42 H3          6.6490    6.4190   -1.7820 ha        1 OIN      0.132000
     43 H2          6.7690    5.9200    0.6620 ha        1 OIN      0.134000
     44 H1          7.1200    3.5740    1.4450 ha        1 OIN      0.143500
@<TRIPOS>BOND
     1    1    2 1   
     2    1   22 1   
     3    1   23 1   
     4    1   24 1   
     5    2    3 1   
     6    2    6 1   
     7    3    4 1   
     8    3    9 1   
     9    3   25 1   
    10    4    5 1   
    11    4   26 1   
    12    4   27 1   
    13    5    6 1   
    14    5   28 1   
    15    5   29 1   
    16    6    7 1   
    17    6   30 1   
    18    7    8 1   
    19    7   31 1   
    20    7   32 1   
    21    8    9 1   
    22    8   10 1   
    23    8   33 1   
    24    9   34 1   
    25    9   35 1   
    26   10   11 1   
    27   11   12 2   
    28   11   13 1   
    29   13   14 1   
    30   13   16 1   
    31   13   36 1   
    32   14   15 1   
    33   14   37 1   
    34   14   38 1   
    35   15   39 1   
    36   16   17 ar  
    37   16   21 ar  
    38   17   18 ar  
    39   17   40 1   
    40   18   19 ar  
    41   18   41 1   
    42   19   20 ar  
    43   19   42 1   
    44   20   21 ar  
    45   20   43 1   
    46   21   44 1   
@<TRIPOS>SUBSTRUCTURE
     1 OIN         1 TEMP              0 ****  ****    0 ROOT
