@<TRIPOS>MOLECULE
OIN
   44    46     1     0     0
SMALL
bcc


@<TRIPOS>ATOM
      1 C10         0.0450   -0.9460   -0.7850 c3        1 OIN      0.143100
      2 N           1.4390   -0.6730   -0.5350 n3        1 OIN     -0.691600
      3 C11         1.6810    0.1460    0.6790 c3        1 OIN      0.157500
      4 C17         1.6220   -0.8320    1.8880 c3        1 OIN     -0.112900
      5 C16         1.9960   -2.1890    1.2880 c3        1 OIN     -0.112900
      6 C15         2.2380   -1.8830   -0.2190 c3        1 OIN      0.157500
      7 C14         3.7210   -1.5440   -0.4330 c3        1 OIN     -0.079400
      8 C13         4.1390   -0.3750    0.4620 c3        1 OIN      0.156100
      9 C12         3.0950    0.7360    0.5770 c3        1 OIN     -0.079400
     10 O2          5.3340    0.1600   -0.1540 os        1 OIN     -0.430900
     11 C7          6.2100    0.8390    0.6370 c         1 OIN      0.643100
     12 O3          5.9820    0.9340    1.8470 o         1 OIN     -0.564000
     13 C9          7.4000    1.3650   -0.1300 c3        1 OIN     -0.101400
     14 C8          8.6840    1.1720    0.6890 c3        1 OIN      0.145400
     15 OH          8.6950    1.8290    1.9330 oh        1 OIN     -0.599800
     16 C6          7.1720    2.7860   -0.5350 ca        1 OIN     -0.093300
     17 C5          7.0770    3.1080   -1.8940 ca        1 OIN     -0.106500
     18 C4          6.8730    4.4300   -2.2890 ca        1 OIN     -0.133500
     19 C3          6.7600    5.4370   -1.3310 ca        1 OIN     -0.120000
     20 C2          6.8520    5.1200    0.0240 ca        1 OIN     -0.133500
     21 C1          7.0560    3.8000    0.4230 ca        1 OIN     -0.106500
     22 H101       -0.0330   -1.5910   -1.7000 h1        1 OIN      0.034367
     23 H102       -0.4780   -1.4650    0.0640 h1        1 OIN      0.034367
     24 H103       -0.4770    0.0270   -0.9840 h1        1 OIN      0.034367
     25 H11         0.9250    0.9670    0.7700 h1        1 OIN      0.068200
     26 H171        0.5930   -0.8520    2.3210 hc        1 OIN      0.050950
     27 H172        2.3320   -0.5210    2.6890 hc        1 OIN      0.050950
     28 H161        2.9090   -2.6170    1.7620 hc        1 OIN      0.050950
     29 H162        1.1640   -2.9240    1.4040 hc        1 OIN      0.050950
     30 H15         1.9440   -2.7440   -0.8710 h1        1 OIN      0.068200
     31 H141        3.9020   -1.2770   -1.5070 hc        1 OIN      0.062200
     32 H142        4.3430   -2.4410   -0.1890 hc        1 OIN      0.062200
     33 H13         4.4000   -0.7530    1.4910 h1        1 OIN      0.064700
     34 H121        3.1630    1.4080   -0.3180 hc        1 OIN      0.062200
     35 H122        3.3100    1.3490    1.4890 hc        1 OIN      0.062200
     36 H9          7.5080    0.7340   -1.0620 hc        1 OIN      0.090700
     37 H81         9.5500    1.6160    0.1260 h1        1 OIN      0.053200
     38 H82         8.8510    0.0700    0.8350 h1        1 OIN      0.053200
     39 HOH         7.9570    1.4890    2.4590 ho        1 OIN      0.424000
     40 H5          7.1600    2.3180   -2.6560 ha        1 OIN      0.143500
     41 H4          6.8000    4.6760   -3.3580 ha        1 OIN      0.134000
     42 H3          6.5990    6.4790   -1.6440 ha        1 OIN      0.132000
     43 H2          6.7640    5.9120    0.7830 ha        1 OIN      0.134000
     44 H1          7.1380    3.5460    1.4920 ha        1 OIN      0.143500
@<TRIPOS>BOND
     1    1    2 1   
     2    1   22 1   
     3    1   23 1   
     4    1   24 1   
     5    2    3 1   
     6    2    6 1   
     7    3    4 1   
     8    3    9 1   
     9    3   25 1   
    10    4    5 1   
    11    4   26 1   
    12    4   27 1   
    13    5    6 1   
    14    5   28 1   
    15    5   29 1   
    16    6    7 1   
    17    6   30 1   
    18    7    8 1   
    19    7   31 1   
    20    7   32 1   
    21    8    9 1   
    22    8   10 1   
    23    8   33 1   
    24    9   34 1   
    25    9   35 1   
    26   10   11 1   
    27   11   12 2   
    28   11   13 1   
    29   13   14 1   
    30   13   16 1   
    31   13   36 1   
    32   14   15 1   
    33   14   37 1   
    34   14   38 1   
    35   15   39 1   
    36   16   17 ar  
    37   16   21 ar  
    38   17   18 ar  
    39   17   40 1   
    40   18   19 ar  
    41   18   41 1   
    42   19   20 ar  
    43   19   42 1   
    44   20   21 ar  
    45   20   43 1   
    46   21   44 1   
@<TRIPOS>SUBSTRUCTURE
     1 OIN         1 TEMP              0 ****  ****    0 ROOT
