@<TRIPOS>MOLECULE
OIN
   44    46     1     0     0
SMALL
bcc


@<TRIPOS>ATOM
      1 C10         0.0270   -0.8970   -0.7940 c3        1 OIN      0.143100
      2 N           1.4240   -0.6400   -0.5440 n3        1 OIN     -0.691600
      3 C11         1.6760    0.1660    0.6770 c3        1 OIN      0.157500
      4 C17         1.6100   -0.8220    1.8770 c3        1 OIN     -0.112900
      5 C16         1.9700   -2.1770    1.2640 c3        1 OIN     -0.112900
      6 C15         2.2130   -1.8590   -0.2400 c3        1 OIN      0.157500
      7 C14         3.6980   -1.5310   -0.4540 c3        1 OIN     -0.079400
      8 C13         4.1290   -0.3740    0.4510 c3        1 OIN      0.156100
      9 C12         3.0940    0.7450    0.5770 c3        1 OIN     -0.079400
     10 O2          5.3270    0.1550   -0.1620 os        1 OIN     -0.430900
     11 C7          6.2100    0.8200    0.6330 c         1 OIN      0.643100
     12 O3          5.9850    0.9050    1.8440 o         1 OIN     -0.564000
     13 C9          7.4040    1.3420   -0.1310 c3        1 OIN     -0.101400
     14 C8          8.6870    1.1290    0.6830 c3        1 OIN      0.145400
     15 OH          8.7070    1.7740    1.9330 oh        1 OIN     -0.599800
     16 C6          7.1880    2.7690   -0.5210 ca        1 OIN     -0.093300
     17 C5          7.0980    3.1070   -1.8770 ca        1 OIN     -0.106500
     18 C4          6.9060    4.4340   -2.2570 ca        1 OIN     -0.133500
     19 C3          6.8000    5.4320   -1.2880 ca        1 OIN     -0.120000
     20 C2          6.8870    5.1000    0.0630 ca        1 OIN     -0.133500
     21 C1          7.0790    3.7740    0.4480 ca        1 OIN     -0.106500
     22 H101       -0.4990   -1.4200    0.0510 h1        1 OIN      0.034367
     23 H102       -0.0580   -1.5340   -1.7140 h1        1 OIN      0.034367
     24 H103       -0.4860    0.0820   -0.9840 h1        1 OIN      0.034367
     25 H11         0.9270    0.9930    0.7760 h1        1 OIN      0.068200
     26 H171        0.5820   -0.8370    2.3110 hc        1 OIN      0.050950
     27 H172        2.3240   -0.5250    2.6800 hc        1 OIN      0.050950
     28 H161        1.1320   -2.9060    1.3750 hc        1 OIN      0.050950
     29 H162        2.8810   -2.6180    1.7330 hc        1 OIN      0.050950
     30 H15         1.9100   -2.7120   -0.9000 h1        1 OIN      0.068200
     31 H141        3.8800   -1.2560   -1.5260 hc        1 OIN      0.062450
     32 H142        4.3130   -2.4360   -0.2200 hc        1 OIN      0.062450
     33 H13         4.3880   -0.7640    1.4750 h1        1 OIN      0.064700
     34 H121        3.3170    1.3470    1.4950 hc        1 OIN      0.062450
     35 H122        3.1670    1.4240   -0.3110 hc        1 OIN      0.062450
     36 H9          7.5030    0.7190   -1.0690 hc        1 OIN      0.090700
     37 H81         8.8440    0.0240    0.8190 h1        1 OIN      0.053200
     38 H82         9.5560    1.5690    0.1220 h1        1 OIN      0.053200
     39 HOH         7.9660    1.4370    2.4580 ho        1 OIN      0.424000
     40 H5          7.1750    2.3250   -2.6470 ha        1 OIN      0.143500
     41 H4          6.8360    4.6930   -3.3240 ha        1 OIN      0.134000
     42 H3          6.6480    6.4790   -1.5900 ha        1 OIN      0.132000
     43 H2          6.8060    5.8840    0.8310 ha        1 OIN      0.134000
     44 H1          7.1580    3.5070    1.5140 ha        1 OIN      0.143500
@<TRIPOS>BOND
     1    1    2 1   
     2    1   22 1   
     3    1   23 1   
     4    1   24 1   
     5    2    3 1   
     6    2    6 1   
     7    3    4 1   
     8    3    9 1   
     9    3   25 1   
    10    4    5 1   
    11    4   26 1   
    12    4   27 1   
    13    5    6 1   
    14    5   28 1   
    15    5   29 1   
    16    6    7 1   
    17    6   30 1   
    18    7    8 1   
    19    7   31 1   
    20    7   32 1   
    21    8    9 1   
    22    8   10 1   
    23    8   33 1   
    24    9   34 1   
    25    9   35 1   
    26   10   11 1   
    27   11   12 2   
    28   11   13 1   
    29   13   14 1   
    30   13   16 1   
    31   13   36 1   
    32   14   15 1   
    33   14   37 1   
    34   14   38 1   
    35   15   39 1   
    36   16   17 ar  
    37   16   21 ar  
    38   17   18 ar  
    39   17   40 1   
    40   18   19 ar  
    41   18   41 1   
    42   19   20 ar  
    43   19   42 1   
    44   20   21 ar  
    45   20   43 1   
    46   21   44 1   
@<TRIPOS>SUBSTRUCTURE
     1 OIN         1 TEMP              0 ****  ****    0 ROOT
