@<TRIPOS>MOLECULE
OIO
   32    32     1     0     0
SMALL
bcc


@<TRIPOS>ATOM
      1 C1          0.0620   -0.0220   -0.0550 c3        1 OIO      0.034300
      2 C2          1.5910   -0.0590   -0.0420 c3        1 OIO     -0.099400
      3 C3          2.0880   -0.0390    1.3880 c3        1 OIO     -0.079400
      4 C4          3.6010   -0.0480    1.4440 c3        1 OIO     -0.078400
      5 C5          4.0980   -0.0280    2.8740 c3        1 OIO     -0.078400
      6 C6          5.6110    0.0020    2.9340 c3        1 OIO     -0.066400
      7 C7          6.1160    0.0060    4.3560 c3        1 OIO     -0.195400
      8 C8          7.6340    0.2590    4.4090 c         1 OIO      0.908600
      9 O9          8.1150    1.1850    3.6930 o         1 OIO     -0.851800
     10 O10         8.3230   -0.4630    5.1850 o         1 OIO     -0.851800
     11 N11        -0.5320   -0.0060   -1.3610 na        1 OIO     -0.197900
     12 C12        -0.5220    1.0570   -2.2670 cc        1 OIO     -0.253600
     13 C13        -1.2020    0.6030   -3.4120 cd        1 OIO      0.278200
     14 N14        -1.6200   -0.7140   -3.2300 nd        1 OIO     -0.678000
     15 C15        -1.2010   -1.0650   -1.9940 cc        1 OIO      0.381400
     16 H1         -0.2820    0.9010    0.4960 h1        1 OIO      0.057700
     17 H1A        -0.3310   -0.9240    0.4950 h1        1 OIO      0.057700
     18 H2          2.0020    0.8240   -0.5990 hc        1 OIO      0.053700
     19 H2A         1.9610   -0.9820   -0.5600 hc        1 OIO      0.053700
     20 H3          1.6870   -0.9310    1.9390 hc        1 OIO      0.036700
     21 H3A         1.7000    0.8750    1.9110 hc        1 OIO      0.036700
     22 H4          4.0040    0.8440    0.8960 hc        1 OIO      0.040200
     23 H4A         3.9920   -0.9610    0.9230 hc        1 OIO      0.040200
     24 H5          3.7160   -0.9320    3.4170 hc        1 OIO      0.026700
     25 H5A         3.6840    0.8720    3.4020 hc        1 OIO      0.026700
     26 H6          6.0010    0.9160    2.4130 hc        1 OIO      0.045200
     27 H6A         6.0240   -0.8890    2.3930 hc        1 OIO      0.045200
     28 H7          5.6140    0.8200    4.9390 hc        1 OIO      0.019200
     29 H7A         5.8850   -0.9680    4.8560 hc        1 OIO      0.019200
     30 H12        -0.0530    2.0110   -2.0370 h4        1 OIO      0.177000
     31 H13        -1.4070    1.1430   -4.3340 h4        1 OIO      0.035100
     32 H15        -1.3530   -2.0360   -1.5160 h5        1 OIO      0.057100
@<TRIPOS>BOND
     1    1    2 1   
     2    1   11 1   
     3    1   16 1   
     4    1   17 1   
     5    2    3 1   
     6    2   18 1   
     7    2   19 1   
     8    3    4 1   
     9    3   20 1   
    10    3   21 1   
    11    4    5 1   
    12    4   22 1   
    13    4   23 1   
    14    5    6 1   
    15    5   24 1   
    16    5   25 1   
    17    6    7 1   
    18    6   26 1   
    19    6   27 1   
    20    7    8 1   
    21    7   28 1   
    22    7   29 1   
    23    8    9 1   
    24    8   10 1   
    25   11   12 1   
    26   11   15 1   
    27   12   13 2   
    28   12   30 1   
    29   13   14 1   
    30   13   31 1   
    31   14   15 2   
    32   15   32 1   
@<TRIPOS>SUBSTRUCTURE
     1 OIO         1 TEMP              0 ****  ****    0 ROOT
