@<TRIPOS>MOLECULE
OIO
   32    29     1     0     0
SMALL
bcc


@<TRIPOS>ATOM
      1 C1         -2.4780    0.9930   -1.0520 c3        1 OIO      0.034300
      2 C2         -1.3230    0.0320   -0.9480 c3        1 OIO     -0.099400
      3 C3         -0.8230    0.0040    0.4880 c3        1 OIO     -0.079400
      4 C4          0.3950   -0.9460    0.6040 c3        1 OIO     -0.078400
      5 C5          1.2030   -0.6190    1.9370 c3        1 OIO     -0.078400
      6 C6          2.5090   -1.4500    1.9520 c3        1 OIO     -0.066400
      7 C7          3.4180   -0.9590    3.0790 c3        1 OIO     -0.195400
      8 C8          4.7860   -1.6250    2.9590 c         1 OIO      0.908600
      9 O9          5.6080   -1.2060    2.1340 o         1 OIO     -0.851800
     10 O10         5.1250   -2.5550    3.7890 o         1 OIO     -0.851800
     11 N11        -2.7150    1.2960   -2.4030 n3        1 OIO     -0.079400
     12 C12        -2.2780    2.3740   -3.0450 c1        1 OIO     -0.218300
     13 C13        -2.8590    2.3880   -4.3050 cg        1 OIO     -0.135000
     14 N14        -3.6470    1.3080   -4.4070 ne        1 OIO     -0.424400
     15 C15        -3.5720    0.6210   -3.2450 c1        1 OIO      0.113400
     16 H1         -3.2740    0.5880   -0.6660 h1        1 OIO      0.057700
     17 H1A        -2.2510    1.8600   -0.5410 h1        1 OIO      0.057700
     18 H2         -0.5940    0.3230   -1.5460 hc        1 OIO      0.053700
     19 H2A        -1.6270   -0.8820   -1.2140 hc        1 OIO      0.053700
     20 H3         -0.5480    0.9390    0.7650 hc        1 OIO      0.036700
     21 H3A        -1.5510   -0.3180    1.0820 hc        1 OIO      0.036700
     22 H4          0.0960   -1.8410    0.6340 hc        1 OIO      0.040200
     23 H4A         0.9770   -0.8240   -0.1620 hc        1 OIO      0.040200
     24 H5          1.4290    0.3710    1.9660 hc        1 OIO      0.026700
     25 H5A         0.6580   -0.8530    2.7180 hc        1 OIO      0.026700
     26 H6          2.2890   -2.4200    2.0980 hc        1 OIO      0.045200
     27 H6A         2.9780   -1.3440    1.0790 hc        1 OIO      0.045200
     28 H7          3.0300   -1.1820    3.9190 hc        1 OIO      0.019200
     29 H7A         3.5200    0.0070    3.0140 hc        1 OIO      0.019200
     30 H12        -1.7060    3.0870   -2.6610 DU        1 OIO      0.181000
     31 H13        -2.7210    3.0590   -4.9890 DU        1 OIO      0.181000
     32 H15        -4.0540   -0.2290   -3.0320 DU        1 OIO      0.181000
@<TRIPOS>BOND
     1    1    2 1   
     2    1   11 1   
     3    1   16 1   
     4    1   17 1   
     5    2    3 1   
     6    2   18 1   
     7    2   19 1   
     8    3    4 1   
     9    3   20 1   
    10    3   21 1   
    11    4    5 1   
    12    4   22 1   
    13    4   23 1   
    14    5    6 1   
    15    5   24 1   
    16    5   25 1   
    17    6    7 1   
    18    6   26 1   
    19    6   27 1   
    20    7    8 1   
    21    7   28 1   
    22    7   29 1   
    23    8    9 1   
    24    8   10 1   
    25   11   12 1   
    26   11   15 2   
    27   12   13 3   
    28   13   14 1   
    29   14   15 2   
@<TRIPOS>SUBSTRUCTURE
     1 OIO         1 TEMP              0 ****  ****    0 ROOT
