@<TRIPOS>MOLECULE
OIO
   32    32     1     0     0
SMALL
bcc


@<TRIPOS>ATOM
      1 C1          0.0620   -0.0210   -0.0560 c3        1 OIO      0.034300
      2 C2          1.5920   -0.0470   -0.0430 c3        1 OIO     -0.099400
      3 C3          2.0880   -0.0520    1.3870 c3        1 OIO     -0.079400
      4 C4          3.6010   -0.0490    1.4420 c3        1 OIO     -0.078400
      5 C5          4.0990   -0.0540    2.8720 c3        1 OIO     -0.078400
      6 C6          5.6110   -0.0120    2.9330 c3        1 OIO     -0.066400
      7 C7          6.1170   -0.0340    4.3540 c3        1 OIO     -0.195400
      8 C8          7.6330    0.2330    4.4110 c         1 OIO      0.908600
      9 O9          8.1050    1.1780    3.7160 o         1 OIO     -0.851800
     10 O10         8.3290   -0.5000    5.1710 o         1 OIO     -0.851800
     11 N11        -0.5320    0.0160   -1.3610 na        1 OIO     -0.197900
     12 C12        -0.5270    1.0960   -2.2460 cc        1 OIO     -0.253600
     13 C13        -1.2060    0.6610   -3.4000 cd        1 OIO      0.278200
     14 N14        -1.6180   -0.6610   -3.2420 nd        1 OIO     -0.678000
     15 C15        -1.1980   -1.0330   -2.0130 cc        1 OIO      0.381400
     16 H1         -0.2890    0.8880    0.5150 h1        1 OIO      0.057700
     17 H1A        -0.3230   -0.9380    0.4760 h1        1 OIO      0.057700
     18 H2          1.9950    0.8500   -0.5820 hc        1 OIO      0.053700
     19 H2A         1.9680   -0.9560   -0.5800 hc        1 OIO      0.053700
     20 H3          1.6960   -0.9580    1.9200 hc        1 OIO      0.036700
     21 H3A         1.6930    0.8480    1.9280 hc        1 OIO      0.036700
     22 H4          3.9960    0.8580    0.9130 hc        1 OIO      0.040200
     23 H4A         4.0010   -0.9470    0.9020 hc        1 OIO      0.040200
     24 H5          3.7250   -0.9730    3.3960 hc        1 OIO      0.026700
     25 H5A         3.6780    0.8310    3.4190 hc        1 OIO      0.026700
     26 H6          5.9930    0.9170    2.4300 hc        1 OIO      0.045200
     27 H6A         6.0330   -0.8870    2.3720 hc        1 OIO      0.045200
     28 H7          5.6080    0.7630    4.9540 hc        1 OIO      0.019200
     29 H7A         5.8950   -1.0200    4.8330 hc        1 OIO      0.019200
     30 H12        -0.0620    2.0480   -2.0000 h4        1 OIO      0.177000
     31 H13        -1.4130    1.2180   -4.3120 h4        1 OIO      0.035100
     32 H15        -1.3460   -2.0140   -1.5530 h5        1 OIO      0.057100
@<TRIPOS>BOND
     1    1    2 1   
     2    1   11 1   
     3    1   16 1   
     4    1   17 1   
     5    2    3 1   
     6    2   18 1   
     7    2   19 1   
     8    3    4 1   
     9    3   20 1   
    10    3   21 1   
    11    4    5 1   
    12    4   22 1   
    13    4   23 1   
    14    5    6 1   
    15    5   24 1   
    16    5   25 1   
    17    6    7 1   
    18    6   26 1   
    19    6   27 1   
    20    7    8 1   
    21    7   28 1   
    22    7   29 1   
    23    8    9 1   
    24    8   10 1   
    25   11   12 1   
    26   11   15 1   
    27   12   13 2   
    28   12   30 1   
    29   13   14 1   
    30   13   31 1   
    31   14   15 2   
    32   15   32 1   
@<TRIPOS>SUBSTRUCTURE
     1 OIO         1 TEMP              0 ****  ****    0 ROOT
