@<TRIPOS>MOLECULE
OIO
   32    32     1     0     0
SMALL
bcc


@<TRIPOS>ATOM
      1 C1         -2.9600    0.9700    0.0070 c3        1 OIO      0.034300
      2 C2         -1.7550    0.0280    0.0420 c3        1 OIO     -0.099400
      3 C3         -0.4760    0.8380    0.0420 c3        1 OIO     -0.079400
      4 C4          0.7430   -0.0600    0.0470 c3        1 OIO     -0.078400
      5 C5          2.0220    0.7500    0.0480 c3        1 OIO     -0.078400
      6 C6          3.2430   -0.1450    0.0140 c3        1 OIO     -0.066400
      7 C7          4.5240    0.6520    0.0310 c3        1 OIO     -0.195400
      8 C8          5.7460   -0.2480   -0.2270 c         1 OIO      0.908600
      9 O9          5.6840   -1.0940   -1.1660 o         1 OIO     -0.851800
     10 O10         6.7630   -0.0810    0.5060 o         1 OIO     -0.851800
     11 N11        -4.2370    0.3190   -0.0260 na        1 OIO     -0.197900
     12 C12        -4.7830   -0.3860   -1.1010 cc        1 OIO     -0.253600
     13 C13        -6.0340   -0.8630   -0.6630 cd        1 OIO      0.278200
     14 N14        -6.2590   -0.4720    0.6560 nd        1 OIO     -0.678000
     15 C15        -5.1650    0.2310    1.0230 cc        1 OIO      0.381400
     16 H1         -2.9320    1.6340    0.9180 h1        1 OIO      0.057700
     17 H1A        -2.8780    1.6280   -0.9070 h1        1 OIO      0.057700
     18 H2         -1.7950   -0.6190    0.9560 hc        1 OIO      0.053700
     19 H2A        -1.7740   -0.6520   -0.8500 hc        1 OIO      0.053700
     20 H3         -0.4480    1.5010   -0.8630 hc        1 OIO      0.036700
     21 H3A        -0.4530    1.5070    0.9430 hc        1 OIO      0.036700
     22 H4          0.7180   -0.7240    0.9510 hc        1 OIO      0.040200
     23 H4A         0.7230   -0.7280   -0.8540 hc        1 OIO      0.040200
     24 H5          2.0330    1.4320   -0.8420 hc        1 OIO      0.026700
     25 H5A         2.0550    1.3990    0.9620 hc        1 OIO      0.026700
     26 H6          3.2230   -0.8390    0.8950 hc        1 OIO      0.045200
     27 H6A         3.2300   -0.7830   -0.9100 hc        1 OIO      0.045200
     28 H7          4.5000    1.4330   -0.7720 hc        1 OIO      0.019200
     29 H7A         4.6470    1.1730    1.0130 hc        1 OIO      0.019200
     30 H12        -4.2650   -0.4900   -2.0510 h4        1 OIO      0.177000
     31 H13        -6.7620   -1.4520   -1.2160 h4        1 OIO      0.035100
     32 H15        -4.9960    0.6920    2.0000 h5        1 OIO      0.057100
@<TRIPOS>BOND
     1    1    2 1   
     2    1   11 1   
     3    1   16 1   
     4    1   17 1   
     5    2    3 1   
     6    2   18 1   
     7    2   19 1   
     8    3    4 1   
     9    3   20 1   
    10    3   21 1   
    11    4    5 1   
    12    4   22 1   
    13    4   23 1   
    14    5    6 1   
    15    5   24 1   
    16    5   25 1   
    17    6    7 1   
    18    6   26 1   
    19    6   27 1   
    20    7    8 1   
    21    7   28 1   
    22    7   29 1   
    23    8    9 1   
    24    8   10 1   
    25   11   12 1   
    26   11   15 1   
    27   12   13 2   
    28   12   30 1   
    29   13   14 1   
    30   13   31 1   
    31   14   15 2   
    32   15   32 1   
@<TRIPOS>SUBSTRUCTURE
     1 OIO         1 TEMP              0 ****  ****    0 ROOT
