@<TRIPOS>MOLECULE
OIP
   33    35     1     0     0
SMALL
bcc


@<TRIPOS>ATOM
      1 P          -0.0040   -1.0400   -4.3540 p5        1 OIP      1.331900
      2 OP1        -1.1180   -1.9060   -3.8440 o         1 OIP     -0.930167
      3 OP2        -0.0200   -0.6280   -5.7930 o         1 OIP     -0.930167
      4 OP3         1.3490   -1.3490   -3.7420 o         1 OIP     -0.930167
      5 O5'        -0.3130    0.4530   -3.4960 os        1 OIP     -0.553200
      6 C5'        -0.3740    0.3030   -2.1400 c3        1 OIP      0.228400
      7 C4'         0.9490    0.7640   -1.4830 c3        1 OIP      0.053100
      8 O4'         0.6670    1.4610   -0.2380 os        1 OIP     -0.433600
      9 C3'         1.9240   -0.3870   -1.1670 c3        1 OIP      0.158100
     10 O3'         3.1080   -0.2760   -1.9240 oh        1 OIP     -0.673800
     11 C2'         2.2790   -0.2270    0.3190 c3        1 OIP     -0.129400
     12 C1'         1.2800    0.8150    0.8610 c3        1 OIP      0.250800
     13 N9          0.2420    0.2480    1.7310 na        1 OIP     -0.175900
     14 C8         -0.9960   -0.3050    1.3520 cc        1 OIP      0.452400
     15 N7         -1.7530   -0.6940    2.4060 nd        1 OIP     -0.633000
     16 C5         -0.9900   -0.3870    3.5280 cd        1 OIP      0.205800
     17 C6         -1.2700   -0.5740    4.9390 c         1 OIP      0.636000
     18 O6         -2.2820   -1.0580    5.4760 o         1 OIP     -0.644500
     19 N1         -0.2240   -0.1280    5.7910 n         1 OIP     -0.507400
     20 C2          0.9440    0.4340    5.2860 cd        1 OIP      0.447800
     21 N3          1.2510    0.6300    4.0200 nc        1 OIP     -0.575100
     22 C4          0.2680    0.2100    3.1230 cc        1 OIP      0.024800
     23 H5'        -0.5870   -0.7690   -1.8600 h1        1 OIP     -0.004300
     24 H5''       -1.1940    0.9590   -1.7190 h1        1 OIP     -0.004300
     25 H4'         1.4430    1.5310   -2.1380 h1        1 OIP      0.082700
     26 H3'         1.4420   -1.3840   -1.3720 h1        1 OIP      0.105700
     27 HO3'        2.8670   -0.5940   -2.8260 ho        1 OIP      0.502000
     28 H2'         2.2220   -1.2040    0.8510 hc        1 OIP      0.054200
     29 H2''        3.3160    0.1760    0.4300 hc        1 OIP      0.054200
     30 H1'         1.7900    1.6190    1.4700 h2        1 OIP      0.067700
     31 H8         -1.2700   -0.3850    0.2820 h5        1 OIP      0.118100
     32 HN1        -0.3390   -0.2290    6.7710 hn        1 OIP      0.316500
     33 H2          1.6940    0.7490    6.0400 h5        1 OIP      0.031800
@<TRIPOS>BOND
     1    1    2 1   
     2    1    3 1   
     3    1    4 1   
     4    1    5 1   
     5    5    6 1   
     6    6    7 1   
     7    6   23 1   
     8    6   24 1   
     9    7    8 1   
    10    7    9 1   
    11    7   25 1   
    12    8   12 1   
    13    9   10 1   
    14    9   11 1   
    15    9   26 1   
    16   10   27 1   
    17   11   12 1   
    18   11   28 1   
    19   11   29 1   
    20   12   13 1   
    21   12   30 1   
    22   13   14 1   
    23   13   22 1   
    24   14   15 2   
    25   14   31 1   
    26   15   16 1   
    27   16   17 1   
    28   16   22 2   
    29   17   18 2   
    30   17   19 1   
    31   19   20 1   
    32   19   32 1   
    33   20   21 2   
    34   20   33 1   
    35   21   22 1   
@<TRIPOS>SUBSTRUCTURE
     1 OIP         1 TEMP              0 ****  ****    0 ROOT
