@<TRIPOS>MOLECULE
OIP
   33    31     1     0     0
SMALL
bcc


@<TRIPOS>ATOM
      1 P           4.4790   -1.8100    2.0720 p3        1 OIP      2.535000
      2 OP1         5.8270   -2.2070    1.4720 o         1 OIP     -1.241000
      3 OP2         4.7060   -0.9510    3.2990 os        1 OIP     -1.252000
      4 OP3         3.7190   -3.0500    2.4620 o         1 OIP     -1.241000
      5 O5'         3.6310   -0.9800    0.9850 os        1 OIP     -0.730000
      6 C5'         2.3280   -0.4810    1.3610 c3        1 OIP      0.073000
      7 C4'         1.8870    0.5740    0.3700 c3        1 OIP     -0.048000
      8 O4'         1.3900    0.0240   -0.6580 os        1 OIP     -0.294000
      9 C3'         0.6980    1.4920    1.0160 c3        1 OIP     -0.003000
     10 O3'         1.2920    2.5890    1.8630 oh        1 OIP     -0.387000
     11 C2'         0.0970    1.9720    0.0790 c3        1 OIP     -0.197000
     12 C1'         0.3060    0.9550   -1.1060 c3        1 OIP      0.160000
     13 N9         -0.8160    0.2800   -1.3410 n3        1 OIP     -0.148000
     14 C8         -0.5240   -0.1510   -2.6120 c1        1 OIP     -0.021000
     15 N7         -1.6000   -0.8340   -3.0840 n2        1 OIP     -0.123000
     16 C5         -2.5570   -0.8310   -2.1170 c1        1 OIP     -0.201000
     17 C6         -3.9750   -1.3430   -2.1010 c1        1 OIP      0.380000
     18 O6         -4.3850   -2.0260   -3.0180 o         1 OIP     -0.380000
     19 N1         -4.7940   -1.0990   -0.9910 n3        1 OIP     -0.348000
     20 C2         -4.2840   -0.3640    0.1260 c2        1 OIP      0.005000
     21 N3         -2.9210    0.1260    0.1100 n1        1 OIP     -0.148000
     22 C4         -2.0650   -0.1370   -1.0360 c1        1 OIP     -0.047000
     23 H5'         2.3750   -0.0880    2.2600 h1        1 OIP      0.038000
     24 H5''        1.6770   -1.2260    1.3600 h1        1 OIP      0.038000
     25 H4'         2.6390    1.1310    0.1190 h1        1 OIP      0.087000
     26 H3'         0.1050    0.9430    1.5480 h1        1 OIP      0.196000
     27 HO3'        0.7190    2.8120    2.5000 ho        1 OIP      0.283000
     28 H2'         0.4660    2.8350   -0.1510 hc        1 OIP      0.090500
     29 H2''       -0.8620    2.0550    0.2940 hc        1 OIP      0.090500
     30 H1'         0.5860    1.4320   -1.9120 h2        1 OIP      0.108000
     31 H8          0.3160    0.0320   -3.1110 DU        1 OIP      0.347000
     32 HN1        -5.6160   -1.4770   -0.9450 hn        1 OIP      0.224000
     33 H2         -4.8460   -0.1970    0.8870 h5        1 OIP      0.153000
@<TRIPOS>BOND
     1    1    2 1   
     2    1    4 1   
     3    1    5 1   
     4    5    6 1   
     5    6    7 1   
     6    6   23 1   
     7    6   24 1   
     8    7    8 1   
     9    7    9 1   
    10    7   25 1   
    11    8   12 1   
    12    9   10 1   
    13    9   11 1   
    14    9   26 1   
    15   10   27 1   
    16   11   12 1   
    17   11   28 1   
    18   11   29 1   
    19   12   13 1   
    20   12   30 1   
    21   13   14 1   
    22   13   22 1   
    23   14   15 1   
    24   15   16 1   
    25   16   22 1   
    26   17   18 1   
    27   17   19 1   
    28   19   20 1   
    29   19   32 1   
    30   20   21 1   
    31   20   33 1   
@<TRIPOS>SUBSTRUCTURE
     1 OIP         1 TEMP              0 ****  ****    0 ROOT
