@<TRIPOS>MOLECULE
OIR
   51    52     1     0     0
SMALL
bcc


@<TRIPOS>ATOM
      1 O19         1.8080    0.7490    1.2200 o         1 OIR     -0.596100
      2 C18         1.6900    0.1210    0.1500 c         1 OIR      0.645100
      3 C20         2.7850   -0.8280   -0.3280 c3        1 OIR     -0.038600
      4 C21         3.7100   -1.2120    0.8150 c3        1 OIR     -0.036100
      5 C23         5.0960   -1.5080    0.3540 ca        1 OIR     -0.078300
      6 C24         6.1630   -0.7070    0.7760 ca        1 OIR     -0.124000
      7 C25         7.4650   -0.9980    0.3700 ca        1 OIR     -0.136000
      8 C26         7.7110   -2.0890   -0.4620 ca        1 OIR     -0.137000
      9 C27         6.6510   -2.8900   -0.8880 ca        1 OIR     -0.136000
     10 C28         5.3490   -2.6020   -0.4820 ca        1 OIR     -0.124000
     11 S26         2.1340   -2.2660   -1.1650 sh        1 OIR     -0.432900
     12 N9          0.6210    0.3330   -0.7130 n         1 OIR     -0.511900
     13 C2         -0.6620    0.7500   -0.1750 c3        1 OIR     -0.000300
     14 C11        -1.5310   -0.4700    0.2570 c         1 OIR      0.623100
     15 O12        -1.0620   -1.6300    0.1730 o         1 OIR     -0.666100
     16 N13        -2.7570   -0.1860    0.8120 n         1 OIR     -0.478900
     17 C14        -3.8480   -1.1500    0.7210 c3        1 OIR     -0.068300
     18 C15        -4.8780   -0.7800   -0.4070 c         1 OIR      0.906600
     19 O16        -5.8410   -1.5700   -0.5740 o         1 OIR     -0.837300
     20 O17        -4.6780    0.2700   -1.0860 o         1 OIR     -0.837300
     21 C19        -4.5970   -1.2840    2.0400 c3        1 OIR     -0.074100
     22 C1         -1.4570    1.6000   -1.1920 c3        1 OIR     -0.055100
     23 C3         -1.9570    2.8580   -0.5710 ca        1 OIR     -0.089300
     24 C4         -1.0590    3.8460   -0.1480 ca        1 OIR     -0.125500
     25 C5         -1.5310    5.0360    0.4010 ca        1 OIR     -0.141500
     26 C6         -2.9030    5.2490    0.5330 ca        1 OIR     -0.142000
     27 C7         -3.8010    4.2670    0.1160 ca        1 OIR     -0.141500
     28 C8         -3.3350    3.0720   -0.4340 ca        1 OIR     -0.125500
     29 H20         3.3730   -0.2950   -1.1250 h1        1 OIR      0.109700
     30 H211        3.7320   -0.3740    1.5680 hc        1 OIR      0.076700
     31 H212        3.2940   -2.1140    1.3390 hc        1 OIR      0.076700
     32 H24         5.9740    0.1570    1.4320 ha        1 OIR      0.147000
     33 H25         8.2970   -0.3640    0.7060 ha        1 OIR      0.125500
     34 H1          8.7370   -2.3180   -0.7820 ha        1 OIR      0.122000
     35 H27         6.8400   -3.7500   -1.5460 ha        1 OIR      0.125500
     36 H28         4.5020   -3.2240   -0.8230 ha        1 OIR      0.147000
     37 H26         1.0600   -2.5280   -0.4040 hs        1 OIR      0.277800
     38 HN9         0.5410   -0.3240   -1.4670 hn        1 OIR      0.313500
     39 H2         -0.4570    1.3680    0.7520 h1        1 OIR      0.105700
     40 H13        -3.0820    0.7520    0.6560 hn        1 OIR      0.305500
     41 H14        -3.4140   -2.1570    0.4500 h1        1 OIR      0.073700
     42 H191       -4.9930   -0.2990    2.3820 hc        1 OIR      0.029700
     43 H192       -5.4610   -1.9740    1.8690 hc        1 OIR      0.029700
     44 H193       -3.9420   -1.7030    2.8400 hc        1 OIR      0.029700
     45 H11        -0.8090    1.8730   -2.0680 hc        1 OIR      0.083700
     46 H12        -2.3250    1.0040   -1.5970 hc        1 OIR      0.083700
     47 H4          0.0230    3.6750   -0.2480 ha        1 OIR      0.169500
     48 H5         -0.8200    5.8060    0.7330 ha        1 OIR      0.123000
     49 H6         -3.2750    6.1880    0.9660 ha        1 OIR      0.115000
     50 H7         -4.8830    4.4280    0.2220 ha        1 OIR      0.123000
     51 H8         -4.0500    2.2870   -0.7600 ha        1 OIR      0.169500
@<TRIPOS>BOND
     1    1    2 2   
     2    2    3 1   
     3    2   12 1   
     4    3    4 1   
     5    3   11 1   
     6    3   29 1   
     7    4    5 1   
     8    4   30 1   
     9    4   31 1   
    10    5    6 ar  
    11    5   10 ar  
    12    6    7 ar  
    13    6   32 1   
    14    7    8 ar  
    15    7   33 1   
    16    8    9 ar  
    17    8   34 1   
    18    9   10 ar  
    19    9   35 1   
    20   10   36 1   
    21   11   37 1   
    22   12   13 1   
    23   12   38 1   
    24   13   14 1   
    25   13   22 1   
    26   13   39 1   
    27   14   15 2   
    28   14   16 1   
    29   16   17 1   
    30   16   40 1   
    31   17   18 1   
    32   17   21 1   
    33   17   41 1   
    34   18   19 1   
    35   18   20 1   
    36   21   42 1   
    37   21   43 1   
    38   21   44 1   
    39   22   23 1   
    40   22   45 1   
    41   22   46 1   
    42   23   24 ar  
    43   23   28 ar  
    44   24   25 ar  
    45   24   47 1   
    46   25   26 ar  
    47   25   48 1   
    48   26   27 ar  
    49   26   49 1   
    50   27   28 ar  
    51   27   50 1   
    52   28   51 1   
@<TRIPOS>SUBSTRUCTURE
     1 OIR         1 TEMP              0 ****  ****    0 ROOT
