@<TRIPOS>MOLECULE
OIR
   51    47     1     0     0
SMALL
bcc


@<TRIPOS>ATOM
      1 O19        -1.2940    0.3560    1.0080 o         1 OIR     -0.349000
      2 C18        -0.0540    0.4550    1.0150 c1        1 OIR      0.287000
      3 C20         0.6940    0.6110    2.3500 c2        1 OIR     -0.205000
      4 C21        -0.2840    0.7820    3.4460 c3        1 OIR     -0.114000
      5 C23         0.4160    1.3240    4.6700 c2        1 OIR     -0.071000
      6 C24         1.0600    0.4560    5.5430 c1        1 OIR     -0.127000
      7 C25         1.7050    0.9520    6.6570 c1        1 OIR     -0.139500
      8 C26         1.7100    2.3010    6.8990 c1        1 OIR     -0.139500
      9 C27         1.0650    3.1660    6.0240 c1        1 OIR     -0.136000
     10 C28         0.4230    2.6680    4.9150 c2        1 OIR     -0.126000
     11 S26         1.6960   -0.8580    2.6590 sh        1 OIR     -0.073000
     12 N9          0.6780    0.3760   -0.2180 n3        1 OIR     -0.326000
     13 C2          0.0920   -0.2780   -1.3630 c3        1 OIR     -0.027000
     14 C11         0.5560   -1.6710   -1.4120 c2        1 OIR      0.268000
     15 O12         1.6370   -1.9640   -0.9460 o         1 OIR     -0.428000
     16 N13        -0.3010   -2.7120   -1.9670 n         1 OIR     -0.286000
     17 C14         0.2860   -3.8680   -2.5680 c3        1 OIR     -0.096000
     18 C15         0.1020   -3.8070   -4.0670 c2        1 OIR      0.326000
     19 O16         1.1130   -3.8370   -4.8310 o         1 OIR     -0.571000
     20 O17        -1.0690   -3.7040   -4.5620 o         1 OIR     -0.571000
     21 C19        -0.3760   -5.1110   -2.0320 c3        1 OIR     -0.192000
     22 C1          0.5290    0.4610   -2.6560 c3        1 OIR     -0.142000
     23 C3         -0.6830    1.2710   -3.2360 c2        1 OIR     -0.084000
     24 C4         -1.7340    0.5960   -3.8700 c2        1 OIR     -0.120000
     25 C5         -2.7250    1.3160   -4.5230 c1        1 OIR     -0.137000
     26 C6         -2.6760    2.6910   -4.5470 c1        1 OIR     -0.139500
     27 C7         -1.6280    3.3660   -3.9150 c1        1 OIR     -0.139500
     28 C8         -0.6360    2.6500   -3.2620 c1        1 OIR     -0.131000
     29 H20         1.2700    1.3910    2.3090 h4        1 OIR      0.129000
     30 H211       -0.6770   -0.0540    3.6530 hc        1 OIR      0.120500
     31 H212       -0.9870    1.4160    3.1620 hc        1 OIR      0.120500
     32 H24         0.9600   -0.5090    5.4300 ha        1 OIR      0.157000
     33 H25         2.0860    0.3360    7.3150 ha        1 OIR      0.120750
     34 H1          2.1350    2.6460    7.6920 ha        1 OIR      0.120750
     35 H27         1.0550    4.1070    6.2000 ha        1 OIR      0.124000
     36 H28        -0.0870    3.3790    4.5510 ha        1 OIR      0.132000
     37 H26         2.8430   -0.6010    2.4830 hs        1 OIR      0.103000
     38 HN9         1.4750    0.8360   -0.3110 hn        1 OIR      0.216000
     39 H2         -0.8710   -0.2600   -1.2900 h1        1 OIR      0.145000
     40 H13        -1.2130   -2.6350   -1.9120 hn        1 OIR      0.219000
     41 H14         1.2670   -3.8920   -2.3510 h1        1 OIR      0.114000
     42 H191       -1.3520   -5.0100   -2.0760 hc        1 OIR      0.069333
     43 H192       -0.0990   -5.2510   -1.0930 hc        1 OIR      0.069333
     44 H193       -0.0980   -5.9010   -2.5840 hc        1 OIR      0.069333
     45 H11         1.2650    1.0830   -2.4440 hc        1 OIR      0.123500
     46 H12         0.8400   -0.2060   -3.3330 hc        1 OIR      0.123500
     47 H4         -1.7680   -0.3550   -3.8540 ha        1 OIR      0.208000
     48 H5         -3.5030    0.8180   -4.9920 ha        1 OIR      0.129000
     49 H6         -3.3640    3.1900   -5.0000 ha        1 OIR      0.120750
     50 H7         -1.5930    4.3580   -3.9340 ha        1 OIR      0.120750
     51 H8          0.1140    3.1270   -2.8320 ha        1 OIR      0.133000
@<TRIPOS>BOND
     1    1    2 1   
     2    2   12 1   
     3    3    4 1   
     4    3   11 1   
     5    3   29 1   
     6    4    5 1   
     7    4   30 1   
     8    4   31 1   
     9    5    6 1   
    10    5   10 1   
    11    6   32 1   
    12    7    8 1   
    13    7   33 1   
    14    8   34 1   
    15    9   10 1   
    16    9   35 1   
    17   10   36 1   
    18   11   37 1   
    19   12   13 1   
    20   12   38 1   
    21   13   14 1   
    22   13   22 1   
    23   13   39 1   
    24   14   15 1   
    25   14   16 1   
    26   16   17 1   
    27   16   40 1   
    28   17   18 1   
    29   17   21 1   
    30   17   41 1   
    31   18   19 1   
    32   18   20 1   
    33   21   42 1   
    34   21   43 1   
    35   21   44 1   
    36   22   23 1   
    37   22   45 1   
    38   22   46 1   
    39   23   24 1   
    40   23   28 1   
    41   24   25 1   
    42   24   47 1   
    43   25   48 1   
    44   26   27 1   
    45   26   49 1   
    46   27   50 1   
    47   28   51 1   
@<TRIPOS>SUBSTRUCTURE
     1 OIR         1 TEMP              0 ****  ****    0 ROOT
