@<TRIPOS>MOLECULE
OIR
   53    54     1     0     0
SMALL
bcc


@<TRIPOS>ATOM
      1 O19         0.3060    2.3950   -0.1030 o         1 OIR     -0.411100
      2 C18         1.3380    1.7700    0.0870 c         1 OIR      0.560100
      3 C20         1.9370    1.4070    1.4210 c3        1 OIR     -0.056600
      4 C21         1.3230    0.0970    1.9060 c3        1 OIR     -0.040100
      5 C23         1.7530   -0.2280    3.2920 ca        1 OIR     -0.138300
      6 C24         1.2810    0.5280    4.3710 ca        1 OIR     -0.120500
      7 C25         1.6600    0.2040    5.6720 ca        1 OIR     -0.117000
      8 C26         2.5080   -0.8800    5.9040 ca        1 OIR     -0.100000
      9 C27         2.9740   -1.6420    4.8320 ca        1 OIR     -0.117000
     10 C28         2.5990   -1.3190    3.5280 ca        1 OIR     -0.120500
     11 S26         3.7110    1.3840    1.2720 sh        1 OIR     -0.375900
     12 N9          2.1020    1.3080   -1.1300 n4        1 OIR     -0.672800
     13 C2          1.2360    0.7460   -2.2180 c3        1 OIR      0.041500
     14 C11         0.9440   -0.7520   -1.9550 c         1 OIR      0.649100
     15 O12         1.6180   -1.3730   -1.1060 o         1 OIR     -0.609100
     16 N13        -0.1020   -1.3060   -2.6470 n         1 OIR     -0.501900
     17 C14        -0.2600   -2.7460   -2.7330 c3        1 OIR     -0.002300
     18 C15         0.4420   -3.3110   -3.9720 c         1 OIR      0.600100
     19 O16         0.8880   -2.6520   -4.9110 o         1 OIR     -0.490000
     20 O17         0.6170   -4.6530   -4.0820 oh        1 OIR     -0.543100
     21 C19        -1.7310   -3.1600   -2.7760 c3        1 OIR     -0.110100
     22 C1          1.9120    0.8800   -3.5950 c3        1 OIR     -0.051100
     23 C3          2.3160    2.2840   -3.8690 ca        1 OIR     -0.160300
     24 C4          3.6520    2.6750   -3.7070 ca        1 OIR     -0.129000
     25 C5          4.0380    3.9830   -3.9940 ca        1 OIR     -0.114000
     26 C6          3.0960    4.9080   -4.4450 ca        1 OIR     -0.097000
     27 C7          1.7650    4.5210   -4.6130 ca        1 OIR     -0.114000
     28 C8          1.3760    3.2130   -4.3280 ca        1 OIR     -0.129000
     29 H20         1.6570    2.2290    2.1430 h1        1 OIR      0.151700
     30 H211        0.2020    0.2000    1.8850 hc        1 OIR      0.083700
     31 H212        1.6000   -0.7350    1.2000 hc        1 OIR      0.083700
     32 H24         0.6020    1.3760    4.1940 ha        1 OIR      0.134500
     33 H25         1.2860    0.8010    6.5180 ha        1 OIR      0.150500
     34 H1          2.8050   -1.1380    6.9330 ha        1 OIR      0.152000
     35 H27         3.6360   -2.5030    5.0130 ha        1 OIR      0.150500
     36 H28         2.9540   -1.9360    2.6890 ha        1 OIR      0.134500
     37 H26         3.9940    0.3390    2.0620 hs        1 OIR      0.287800
     38 HN9         2.7900    0.5870   -0.8220 hn        1 OIR      0.488800
     39 H2          0.2720    1.3430   -2.2170 hx        1 OIR      0.135700
     40 H13         0.2400   -5.1080   -3.3140 ho        1 OIR      0.437000
     41 H14         0.2300   -3.2050   -1.8180 h1        1 OIR      0.112700
     42 H191       -2.2580   -2.8310   -1.8480 hc        1 OIR      0.068367
     43 H192       -1.7910   -4.2740   -2.8450 hc        1 OIR      0.068367
     44 H193       -2.2520   -2.7210   -3.6610 hc        1 OIR      0.068367
     45 H11         2.8000    0.1930   -3.6540 hc        1 OIR      0.098700
     46 H12         1.1750    0.5340   -4.3720 hc        1 OIR      0.098700
     47 H4          4.4100    1.9400   -3.3930 ha        1 OIR      0.137500
     48 H5          5.0920    4.2820   -3.8780 ha        1 OIR      0.155500
     49 H6          3.4040    5.9400   -4.6790 ha        1 OIR      0.157000
     50 H7          1.0220    5.2470   -4.9820 ha        1 OIR      0.155500
     51 H8          0.3290    2.9090   -4.4810 ha        1 OIR      0.137500
     52 H92         2.6250    2.1120   -1.5170 hn        1 OIR      0.488800
     53 H132       -0.5010   -0.7890   -3.4020 hn        1 OIR      0.332500
@<TRIPOS>BOND
     1    1    2 2   
     2    2    3 1   
     3    2   12 1   
     4    3    4 1   
     5    3   11 1   
     6    3   29 1   
     7    4    5 1   
     8    4   30 1   
     9    4   31 1   
    10    5    6 ar  
    11    5   10 ar  
    12    6    7 ar  
    13    6   32 1   
    14    7    8 ar  
    15    7   33 1   
    16    8    9 ar  
    17    8   34 1   
    18    9   10 ar  
    19    9   35 1   
    20   10   36 1   
    21   11   37 1   
    22   12   13 1   
    23   12   38 1   
    24   12   52 1   
    25   13   14 1   
    26   13   22 1   
    27   13   39 1   
    28   14   15 2   
    29   14   16 1   
    30   16   17 1   
    31   16   53 1   
    32   17   18 1   
    33   17   21 1   
    34   17   41 1   
    35   18   19 2   
    36   18   20 1   
    37   20   40 1   
    38   21   42 1   
    39   21   43 1   
    40   21   44 1   
    41   22   23 1   
    42   22   45 1   
    43   22   46 1   
    44   23   24 ar  
    45   23   28 ar  
    46   24   25 ar  
    47   24   47 1   
    48   25   26 ar  
    49   25   48 1   
    50   26   27 ar  
    51   26   49 1   
    52   27   28 ar  
    53   27   50 1   
    54   28   51 1   
@<TRIPOS>SUBSTRUCTURE
     1 OIR         1 TEMP              0 ****  ****    0 ROOT
