@<TRIPOS>MOLECULE
OIR
   53    54     1     0     0
SMALL
bcc


@<TRIPOS>ATOM
      1 O19         0.3550    2.4170   -0.0950 o         1 OIR     -0.411100
      2 C18         1.3740    1.7710    0.0900 c         1 OIR      0.560100
      3 C20         1.9700    1.3920    1.4210 c3        1 OIR     -0.056600
      4 C21         1.3310    0.0940    1.9060 c3        1 OIR     -0.040100
      5 C23         1.7590   -0.2430    3.2890 ca        1 OIR     -0.138300
      6 C24         1.3060    0.5210    4.3720 ca        1 OIR     -0.120500
      7 C25         1.6840    0.1850    5.6710 ca        1 OIR     -0.117000
      8 C26         2.5100   -0.9160    5.8970 ca        1 OIR     -0.100000
      9 C27         2.9560   -1.6850    4.8210 ca        1 OIR     -0.117000
     10 C28         2.5830   -1.3510    3.5200 ca        1 OIR     -0.120500
     11 S26         3.7430    1.3340    1.2660 sh        1 OIR     -0.375900
     12 N9          2.1250    1.2960   -1.1310 ny        1 OIR     -0.672800
     13 C2          1.2430    0.7540   -2.2170 c3        1 OIR      0.041500
     14 C11         0.9220   -0.7380   -1.9560 c         1 OIR      0.649100
     15 O12         1.5850   -1.3750   -1.1110 o         1 OIR     -0.609100
     16 N13        -0.1380   -1.2680   -2.6460 ns        1 OIR     -0.501900
     17 C14        -0.3260   -2.7050   -2.7350 c3        1 OIR     -0.002300
     18 C15         0.3600   -3.2820   -3.9780 c         1 OIR      0.600100
     19 O16         0.8170   -2.6300   -4.9170 o         1 OIR     -0.490000
     20 O17         0.5060   -4.6260   -4.0910 oh        1 OIR     -0.543100
     21 C19        -1.8050   -3.0890   -2.7740 c3        1 OIR     -0.110100
     22 C1          1.9170    0.8770   -3.5960 c3        1 OIR     -0.051100
     23 C3          2.3500    2.2740   -3.8680 ca        1 OIR     -0.160300
     24 C4          3.6940    2.6360   -3.7100 ca        1 OIR     -0.129000
     25 C5          4.1070    3.9370   -3.9950 ca        1 OIR     -0.114000
     26 C6          3.1820    4.8820   -4.4410 ca        1 OIR     -0.097000
     27 C7          1.8430    4.5240   -4.6050 ca        1 OIR     -0.114000
     28 C8          1.4270    3.2240   -4.3220 ca        1 OIR     -0.129000
     29 H20         1.7100    2.2190    2.1460 h1        1 OIR      0.151700
     30 H211        0.2120    0.2200    1.8890 hc        1 OIR      0.083700
     31 H212        1.5880   -0.7410    1.1960 hc        1 OIR      0.083700
     32 H24         0.6440    1.3830    4.1990 ha        1 OIR      0.134500
     33 H25         1.3250    0.7880    6.5190 ha        1 OIR      0.150500
     34 H1          2.8050   -1.1820    6.9240 ha        1 OIR      0.152000
     35 H27         3.6010   -2.5600    4.9990 ha        1 OIR      0.150500
     36 H28         2.9230   -1.9740    2.6780 ha        1 OIR      0.134500
     37 H26         4.0070    0.2810    2.0530 hs        1 OIR      0.287800
     38 HN9         2.6620    2.0900   -1.5180 hn        1 OIR      0.488800
     39 H2          0.2920    1.3710   -2.2110 hx        1 OIR      0.135700
     40 H13        -0.5290   -0.7420   -3.3990 hn        1 OIR      0.332500
     41 H14         0.1570   -3.1760   -1.8220 h1        1 OIR      0.112700
     42 H191       -1.8890   -4.2010   -2.8450 hc        1 OIR      0.068367
     43 H192       -2.3220   -2.7500   -1.8440 hc        1 OIR      0.068367
     44 H193       -2.3200   -2.6360   -3.6560 hc        1 OIR      0.068367
     45 H11         2.7900    0.1720   -3.6590 hc        1 OIR      0.098700
     46 H12         1.1710    0.5490   -4.3710 hc        1 OIR      0.098700
     47 H4          4.4380    1.8850   -3.4000 ha        1 OIR      0.137500
     48 H5          5.1670    4.2130   -3.8820 ha        1 OIR      0.155500
     49 H6          3.5100    5.9080   -4.6730 ha        1 OIR      0.157000
     50 H7          1.1140    5.2650   -4.9700 ha        1 OIR      0.155500
     51 H8          0.3740    2.9410   -4.4710 ha        1 OIR      0.137500
     52 H92         2.7980    0.5600   -0.8260 hn        1 OIR      0.488800
     53 H132        0.1230   -5.0760   -3.3230 ho        1 OIR      0.437000
@<TRIPOS>BOND
     1    1    2 2   
     2    2    3 1   
     3    2   12 1   
     4    3    4 1   
     5    3   11 1   
     6    3   29 1   
     7    4    5 1   
     8    4   30 1   
     9    4   31 1   
    10    5    6 ar  
    11    5   10 ar  
    12    6    7 ar  
    13    6   32 1   
    14    7    8 ar  
    15    7   33 1   
    16    8    9 ar  
    17    8   34 1   
    18    9   10 ar  
    19    9   35 1   
    20   10   36 1   
    21   11   37 1   
    22   12   13 1   
    23   12   38 1   
    24   12   52 1   
    25   13   14 1   
    26   13   22 1   
    27   13   39 1   
    28   14   15 2   
    29   14   16 1   
    30   16   17 1   
    31   16   40 1   
    32   17   18 1   
    33   17   21 1   
    34   17   41 1   
    35   18   19 2   
    36   18   20 1   
    37   20   53 1   
    38   21   42 1   
    39   21   43 1   
    40   21   44 1   
    41   22   23 1   
    42   22   45 1   
    43   22   46 1   
    44   23   24 ar  
    45   23   28 ar  
    46   24   25 ar  
    47   24   47 1   
    48   25   26 ar  
    49   25   48 1   
    50   26   27 ar  
    51   26   49 1   
    52   27   28 ar  
    53   27   50 1   
    54   28   51 1   
@<TRIPOS>SUBSTRUCTURE
     1 OIR         1 TEMP              0 ****  ****    0 ROOT
