@<TRIPOS>MOLECULE
OIR
   53    54     1     0     0
SMALL
bcc


@<TRIPOS>ATOM
      1 O19         0.4080    2.4500   -0.1000 o         1 OIR     -0.411100
      2 C18         1.4110    1.7780    0.0870 c         1 OIR      0.560100
      3 C20         1.9980    1.3890    1.4190 c3        1 OIR     -0.056600
      4 C21         1.3260    0.1080    1.9070 c3        1 OIR     -0.040100
      5 C23         1.7460   -0.2360    3.2910 ca        1 OIR     -0.138300
      6 C24         1.3130    0.5420    4.3720 ca        1 OIR     -0.120500
      7 C25         1.6820    0.2010    5.6720 ca        1 OIR     -0.117000
      8 C26         2.4800   -0.9210    5.9010 ca        1 OIR     -0.100000
      9 C27         2.9070   -1.7030    4.8270 ca        1 OIR     -0.117000
     10 C28         2.5420   -1.3640    3.5250 ca        1 OIR     -0.120500
     11 S26         3.7680    1.2850    1.2630 sh        1 OIR     -0.375900
     12 N9          2.1490    1.2810   -1.1330 n4        1 OIR     -0.672800
     13 C2          1.2540    0.7590   -2.2170 c3        1 OIR      0.041500
     14 C11         0.8940   -0.7240   -1.9520 c         1 OIR      0.649100
     15 O12         1.5400   -1.3750   -1.1060 o         1 OIR     -0.609100
     16 N13        -0.1790   -1.2280   -2.6420 n         1 OIR     -0.501900
     17 C14        -0.4040   -2.6600   -2.7260 c3        1 OIR     -0.002300
     18 C15         0.2680   -3.2570   -3.9670 c         1 OIR      0.600100
     19 O16         0.7420   -2.6210   -4.9070 o         1 OIR     -0.490000
     20 O17         0.3790   -4.6060   -4.0760 oh        1 OIR     -0.543100
     21 C19        -1.8930   -3.0050   -2.7650 c3        1 OIR     -0.111100
     22 C1          1.9310    0.8610   -3.5960 c3        1 OIR     -0.051100
     23 C3          2.4000    2.2450   -3.8720 ca        1 OIR     -0.160300
     24 C4          3.7530    2.5730   -3.7150 ca        1 OIR     -0.129000
     25 C5          4.1990    3.8610   -4.0040 ca        1 OIR     -0.114000
     26 C6          3.2990    4.8300   -4.4520 ca        1 OIR     -0.097000
     27 C7          1.9520    4.5050   -4.6160 ca        1 OIR     -0.114000
     28 C8          1.5020    3.2170   -4.3290 ca        1 OIR     -0.129000
     29 H20         1.7580    2.2230    2.1410 h1        1 OIR      0.151700
     30 H211        1.5620   -0.7350    1.2000 hc        1 OIR      0.083700
     31 H212        0.2100    0.2630    1.8900 hc        1 OIR      0.083700
     32 H24         0.6730    1.4200    4.1970 ha        1 OIR      0.134500
     33 H25         1.3380    0.8150    6.5190 ha        1 OIR      0.150500
     34 H1          2.7690   -1.1910    6.9290 ha        1 OIR      0.152000
     35 H27         3.5290   -2.5940    5.0070 ha        1 OIR      0.150500
     36 H28         2.8650   -1.9970    2.6850 ha        1 OIR      0.134500
     37 H26         4.0060    0.2280    2.0540 hs        1 OIR      0.287800
     38 HN9         2.8030    0.5290   -0.8260 hn        1 OIR      0.488800
     39 H2          0.3190    1.4010   -2.2140 hx        1 OIR      0.135700
     40 H13        -0.0170   -5.0430   -3.3070 ho        1 OIR      0.437000
     41 H14         0.0660   -3.1400   -1.8120 h1        1 OIR      0.112700
     42 H191       -2.4010   -2.6500   -1.8370 hc        1 OIR      0.068367
     43 H192       -2.3950   -2.5420   -3.6490 hc        1 OIR      0.068367
     44 H193       -2.0050   -4.1140   -2.8340 hc        1 OIR      0.068367
     45 H11         2.7860    0.1340   -3.6580 hc        1 OIR      0.098700
     46 H12         1.1770    0.5500   -4.3710 hc        1 OIR      0.098700
     47 H4          4.4770    1.8040   -3.4030 ha        1 OIR      0.137500
     48 H5          5.2660    4.1110   -3.8910 ha        1 OIR      0.155500
     49 H6          3.6550    5.8460   -4.6870 ha        1 OIR      0.157000
     50 H7          1.2430    5.2650   -4.9820 ha        1 OIR      0.155500
     51 H8          0.4420    2.9620   -4.4780 ha        1 OIR      0.137500
     52 H92         2.7070    2.0600   -1.5220 hn        1 OIR      0.488800
     53 H132       -0.5560   -0.6930   -3.3960 hn        1 OIR      0.332500
@<TRIPOS>BOND
     1    1    2 2   
     2    2    3 1   
     3    2   12 1   
     4    3    4 1   
     5    3   11 1   
     6    3   29 1   
     7    4    5 1   
     8    4   30 1   
     9    4   31 1   
    10    5    6 ar  
    11    5   10 ar  
    12    6    7 ar  
    13    6   32 1   
    14    7    8 ar  
    15    7   33 1   
    16    8    9 ar  
    17    8   34 1   
    18    9   10 ar  
    19    9   35 1   
    20   10   36 1   
    21   11   37 1   
    22   12   13 1   
    23   12   38 1   
    24   12   52 1   
    25   13   14 1   
    26   13   22 1   
    27   13   39 1   
    28   14   15 2   
    29   14   16 1   
    30   16   17 1   
    31   16   53 1   
    32   17   18 1   
    33   17   21 1   
    34   17   41 1   
    35   18   19 2   
    36   18   20 1   
    37   20   40 1   
    38   21   42 1   
    39   21   43 1   
    40   21   44 1   
    41   22   23 1   
    42   22   45 1   
    43   22   46 1   
    44   23   24 ar  
    45   23   28 ar  
    46   24   25 ar  
    47   24   47 1   
    48   25   26 ar  
    49   25   48 1   
    50   26   27 ar  
    51   26   49 1   
    52   27   28 ar  
    53   27   50 1   
    54   28   51 1   
@<TRIPOS>SUBSTRUCTURE
     1 OIR         1 TEMP              0 ****  ****    0 ROOT
