@<TRIPOS>MOLECULE
OJ8
   52    46     1     0     0
SMALL
bcc


@<TRIPOS>ATOM
      1 C12        -0.9400    0.3020   -0.9980 c3        1 OJ8     -0.096000
      2 C13        -1.4510    0.4630   -2.4100 c3        1 OJ8      0.117000
      3 O14        -2.5070    1.3940   -2.4240 oh        1 OJ8     -0.306000
      4 C15        -1.9490   -0.8710   -2.9210 c2        1 OJ8     -0.045000
      5 CAB         4.7950    3.4710    6.1930 c1        1 OJ8     -0.129375
      6 CAC        -1.5570   -6.0310   -6.1680 c1        1 OJ8     -0.129375
      7 CAD         3.5580    4.0490    6.4310 c1        1 OJ8     -0.129375
      8 CAE         4.9130    2.4430    5.2700 c1        1 OJ8     -0.129375
      9 CAF        -1.6070   -6.2020   -4.8150 c1        1 OJ8     -0.129375
     10 CAG        -1.8250   -4.7870   -6.7190 c1        1 OJ8     -0.129375
     11 CAH         2.4390    3.6000    5.7470 c1        1 OJ8     -0.129375
     12 CAI         3.7940    1.9930    4.5860 c1        1 OJ8     -0.157000
     13 CAJ        -1.9210   -5.1490   -4.0060 c1        1 OJ8     -0.129375
     14 CAK        -0.5790    2.6420    3.4400 c1        1 OJ8     -0.157000
     15 CAL        -1.2110    2.5310    2.1990 c1        1 OJ8     -0.107000
     16 CAM        -3.6360   -2.1890   -3.3670 c1        1 OJ8     -0.154000
     17 CAN         1.2640    1.2870    2.6310 c1        1 OJ8     -0.141000
     18 CAO         1.2300    0.3340    0.2840 c3        1 OJ8     -0.119000
     19 CAP         0.5580    0.3290   -0.9950 c3        1 OJ8     -0.159000
     20 CAQ        -1.4290    1.4520   -0.1430 c3        1 OJ8     -0.112000
     21 NAR        -2.1380   -3.7360   -5.9100 n1        1 OJ8     -0.114000
     22 NAS        -3.3010   -0.9870   -2.8670 n2        1 OJ8     -0.124000
     23 OAT         1.2550    2.0590    4.9300 os        1 OJ8     -0.161000
     24 OAU        -1.4490   -2.0170   -3.4600 os        1 OJ8     -0.084000
     25 CAV         2.5580    2.5720    4.8240 c1        1 OJ8      0.059500
     26 CAW         0.6620    2.0180    3.6560 c1        1 OJ8      0.059500
     27 CAX        -0.6110    1.8020    1.1740 c2        1 OJ8     -0.079000
     28 CAY         0.6350    1.1750    1.3910 c2        1 OJ8     -0.047000
     29 CAZ        -2.1880   -3.9060   -4.5590 c1        1 OJ8      0.046000
     30 CBA        -2.4810   -2.8310   -3.7360 c1        1 OJ8     -0.025000
     31 H12        -1.2560   -0.5430   -0.6260 hc        1 OJ8      0.119000
     32 H13        -0.7280    0.7820   -2.9840 h1        1 OJ8      0.104000
     33 HO14       -2.5210    1.8150   -3.2070 ho        1 OJ8      0.214000
     34 HAB         5.5820    3.7870    6.6740 ha        1 OJ8      0.144125
     35 HAC        -1.3330   -6.7830   -6.7480 ha        1 OJ8      0.144125
     36 HAD         3.4750    4.7730    7.0800 ha        1 OJ8      0.144125
     37 HAE         5.7840    2.0350    5.1020 ha        1 OJ8      0.144125
     38 HAF        -1.4190   -7.0780   -4.4270 ha        1 OJ8      0.144125
     39 HAG        -1.7890   -4.6640   -7.6870 ha        1 OJ8      0.144125
     40 HAH         1.5680    4.0070    5.9140 ha        1 OJ8      0.144125
     41 HAI         3.8770    1.2700    3.9360 ha        1 OJ8      0.149000
     42 HAJ        -1.9570   -5.2710   -3.0380 ha        1 OJ8      0.144125
     43 HAK        -1.0000    3.1530    4.1570 ha        1 OJ8      0.149000
     44 HAL        -2.0730    2.9650    2.0500 ha        1 OJ8      0.136000
     45 HAM        -4.5420   -2.5430   -3.4520 DU        1 OJ8      0.191000
     46 HAN         2.1260    0.8540    2.7820 ha        1 OJ8      0.149000
     47 HAO         2.1490    0.6420    0.1370 hc        1 OJ8      0.095000
     48 HAOA        1.2710   -0.5920    0.6030 hc        1 OJ8      0.095000
     49 HAP         0.8610   -0.4680   -1.4770 hc        1 OJ8      0.092000
     50 HAPA        0.8330    1.1410   -1.4680 hc        1 OJ8      0.092000
     51 HAQ        -2.3490    1.2540    0.1240 hc        1 OJ8      0.101500
     52 HAQA       -1.4450    2.2530   -0.7030 hc        1 OJ8      0.101500
@<TRIPOS>BOND
     1    1    2 1   
     2    1   19 1   
     3    1   20 1   
     4    1   31 1   
     5    2    3 1   
     6    2    4 1   
     7    2   32 1   
     8    3   33 1   
     9    4   22 1   
    10    4   24 1   
    11    5    8 1   
    12    5   34 1   
    13    6   10 1   
    14    6   35 1   
    15    7   11 1   
    16    7   36 1   
    17    8   37 1   
    18    9   13 1   
    19    9   38 1   
    20   10   39 1   
    21   11   40 1   
    22   12   25 1   
    23   12   41 1   
    24   13   42 1   
    25   14   26 1   
    26   14   43 1   
    27   15   27 1   
    28   15   44 1   
    29   16   22 1   
    30   16   30 1   
    31   17   28 1   
    32   17   46 1   
    33   18   19 1   
    34   18   28 1   
    35   18   47 1   
    36   18   48 1   
    37   19   49 1   
    38   19   50 1   
    39   20   27 1   
    40   20   51 1   
    41   20   52 1   
    42   21   29 1   
    43   23   25 1   
    44   23   26 1   
    45   24   30 1   
    46   27   28 1   
@<TRIPOS>SUBSTRUCTURE
     1 OJ8         1 TEMP              0 ****  ****    0 ROOT
