@<TRIPOS>MOLECULE
OJ8
   52    56     1     0     0
SMALL
bcc


@<TRIPOS>ATOM
      1 C12         0.7810   -1.9830   -0.3280 c3        1 OJ8     -0.091700
      2 C13         2.1300   -2.5620    0.1230 c3        1 OJ8      0.129800
      3 O14         2.0080   -3.6730    0.9830 oh        1 OJ8     -0.575800
      4 C15         2.9800   -1.4880    0.7370 cc        1 OJ8      0.456700
      5 CAB        -7.2050    3.4540    0.1100 ca        1 OJ8     -0.151000
      6 CAC         7.2940    2.7910   -1.0400 ca        1 OJ8     -0.239300
      7 CAD        -5.8310    3.4310   -0.1270 ca        1 OJ8     -0.107500
      8 CAE        -7.9360    2.2650    0.1100 ca        1 OJ8     -0.107500
      9 CAF         7.2050    2.6860    0.3470 ca        1 OJ8     -0.091000
     10 CAG         6.4380    1.9920   -1.8240 ca        1 OJ8      0.400200
     11 CAH        -5.1770    2.2230   -0.3670 ca        1 OJ8     -0.159000
     12 CAI        -7.3030    1.0460   -0.1210 ca        1 OJ8     -0.159000
     13 CAJ         6.2790    1.8010    0.9020 ca        1 OJ8     -0.228300
     14 CAK        -3.5320    0.0070    0.9180 ca        1 OJ8     -0.171000
     15 CAL        -2.2350   -0.3620    1.2590 ca        1 OJ8     -0.105000
     16 CAM         4.0730   -0.0520    1.9620 cd        1 OJ8      0.250900
     17 CAN        -3.3000   -1.2170   -1.1790 ca        1 OJ8     -0.142000
     18 CAO        -1.2060   -2.4010   -1.7820 c3        1 OJ8     -0.036100
     19 CAP         0.0430   -3.0050   -1.1770 c3        1 OJ8     -0.071400
     20 CAQ        -0.0960   -1.5570    0.8380 c3        1 OJ8     -0.033100
     21 NAR         5.5380    1.1350   -1.3180 nb        1 OJ8     -0.640000
     22 NAS         3.1170   -1.0700    1.9980 nd        1 OJ8     -0.673000
     23 OAU         3.8080   -0.7870   -0.1520 os        1 OJ8     -0.337800
     24 CAV        -5.9200    1.0370   -0.3620 ca        1 OJ8      0.107100
     25 CAW        -4.0580   -0.4290   -0.3040 ca        1 OJ8      0.104100
     26 CAX        -1.4620   -1.1570    0.4030 ca        1 OJ8     -0.089300
     27 CAY        -1.9990   -1.5860   -0.8210 ca        1 OJ8     -0.050300
     28 CAZ         5.4580    1.0380    0.0380 ca        1 OJ8      0.376300
     29 CBA         4.5020    0.1320    0.6470 cc        1 OJ8      0.103400
     30 H12         1.0060   -1.0780   -0.9600 hc        1 OJ8      0.073700
     31 H13         2.6780   -2.9730   -0.7780 h1        1 OJ8      0.104700
     32 HO14        1.5940   -3.3780    1.8050 ho        1 OJ8      0.418000
     33 HAC         8.0090    3.4730   -1.5170 ha        1 OJ8      0.148000
     34 HAD        -5.2560    4.3690   -0.1290 ha        1 OJ8      0.134500
     35 HAE        -9.0200    2.2860    0.2960 ha        1 OJ8      0.134500
     36 HAF         7.8540    3.2890    0.9990 ha        1 OJ8      0.143000
     37 HAG         6.4730    2.0420   -2.9280 h4        1 OJ8      0.028100
     38 HAH        -4.0940    2.1960   -0.5550 ha        1 OJ8      0.149000
     39 HAI        -7.8640    0.1020   -0.1280 ha        1 OJ8      0.149000
     40 HAJ         6.1870    1.6930    1.9910 ha        1 OJ8      0.147000
     41 HAK        -4.1390    0.6300    1.5900 ha        1 OJ8      0.148000
     42 HAL        -1.8100   -0.0280    2.2180 ha        1 OJ8      0.136000
     43 HAM         4.3760    0.4670    2.8710 h4        1 OJ8      0.053100
     44 HAN        -3.7370   -1.5490   -2.1320 ha        1 OJ8      0.150000
     45 HAO        -0.9190   -1.7400   -2.6470 hc        1 OJ8      0.055700
     46 HAOA       -1.8490   -3.2240   -2.1950 hc        1 OJ8      0.055700
     47 HAP         0.7110   -3.3720   -2.0000 hc        1 OJ8      0.053200
     48 HAPA       -0.2200   -3.8890   -0.5380 hc        1 OJ8      0.053200
     49 HAQ        -0.2020   -2.4100    1.5650 hc        1 OJ8      0.057700
     50 HAQA        0.3940   -0.7090    1.3860 hc        1 OJ8      0.057700
     51 OAT        -5.3780   -0.2040   -0.6850 os        1 OJ8     -0.250200
     52 HAB        -7.7140    4.4100    0.2960 ha        1 OJ8      0.134000
@<TRIPOS>BOND
     1    1    2 1   
     2    1   19 1   
     3    1   20 1   
     4    1   30 1   
     5    2    3 1   
     6    2    4 1   
     7    2   31 1   
     8    3   32 1   
     9    4   22 2   
    10    4   23 1   
    11    5    7 ar  
    12    5    8 ar  
    13    5   52 1   
    14    6    9 ar  
    15    6   10 ar  
    16    6   33 1   
    17    7   11 ar  
    18    7   34 1   
    19    8   12 ar  
    20    8   35 1   
    21    9   13 ar  
    22    9   36 1   
    23   10   21 ar  
    24   10   37 1   
    25   11   24 ar  
    26   11   38 1   
    27   12   24 ar  
    28   12   39 1   
    29   13   28 ar  
    30   13   40 1   
    31   14   15 ar  
    32   14   25 ar  
    33   14   41 1   
    34   15   26 ar  
    35   15   42 1   
    36   16   22 1   
    37   16   29 2   
    38   16   43 1   
    39   17   25 ar  
    40   17   27 ar  
    41   17   44 1   
    42   18   19 1   
    43   18   27 1   
    44   18   45 1   
    45   18   46 1   
    46   19   47 1   
    47   19   48 1   
    48   20   26 1   
    49   20   49 1   
    50   20   50 1   
    51   21   28 ar  
    52   23   29 1   
    53   24   51 1   
    54   25   51 1   
    55   26   27 ar  
    56   28   29 1   
@<TRIPOS>SUBSTRUCTURE
     1 OJ8         1 TEMP              0 ****  ****    0 ROOT
