@<TRIPOS>MOLECULE
OJ8
   52    52     1     0     0
SMALL
bcc


@<TRIPOS>ATOM
      1 C12         3.2650   -1.0650   -0.0970 c2        1 OJ8     -0.206000
      2 C13        -1.0450    0.1710   -1.0800 c1        1 OJ8      0.098000
      3 O14        -0.3570    1.0580   -1.7740 oh        1 OJ8     -0.216000
      4 C15        -2.4470    0.0710   -1.5210 c2        1 OJ8     -0.103000
      5 CAB        -1.2050    1.6740    8.4540 c2        1 OJ8     -0.100000
      6 CAC        -8.0650   -3.5630   -0.7020 c2        1 OJ8     -0.172000
      7 CAD        -1.4740    1.5760    7.1420 c2        1 OJ8     -0.104000
      8 CAE         0.1160    1.7760    9.0300 c2        1 OJ8     -0.452000
      9 CAF        -7.9760   -2.2390   -0.8430 c2        1 OJ8     -0.157000
     10 CAG        -4.8360   -3.5580    0.8200 c1        1 OJ8      0.168000
     11 CAH        -0.5310    1.5180    6.0520 c2        1 OJ8     -0.239000
     12 CAI         0.4740    1.5140   10.2700 c1        1 OJ8      0.197000
     13 CAJ        -6.8000   -1.4970   -1.2310 c2        1 OJ8     -0.097000
     14 CAK         1.3190    2.9300    3.9580 c2        1 OJ8     -0.132000
     15 CAL         1.1500    3.6280    2.8180 c2        1 OJ8     -0.115000
     16 CAM        -4.4660    0.1260   -2.3620 c2        1 OJ8     -0.173000
     17 CAN         1.1960    0.7950    2.7590 c2        1 OJ8     -0.137000
     18 CAO         2.2710    1.1110    0.5610 c3        1 OJ8     -0.131000
     19 CAP         2.1950   -0.2950    0.0910 c2        1 OJ8     -0.195000
     20 CAQ         0.6000    3.6960    0.4480 c2        1 OJ8     -0.214000
     21 NAR        -5.1550   -2.7110    0.0560 n2        1 OJ8     -0.301000
     22 NAS        -3.1970    0.6790   -2.4520 n2        1 OJ8     -0.084000
     23 OAU        -3.1940   -0.8880   -0.8010 os        1 OJ8     -0.057000
     24 CAV         0.6530    0.8830    6.1120 c2        1 OJ8     -0.002000
     25 CAW         1.3170    1.4800    3.9140 c2        1 OJ8      0.016000
     26 CAX         0.9370    2.9790    1.5330 c2        1 OJ8     -0.078000
     27 CAY         1.0740    1.4840    1.4450 c3        1 OJ8     -0.048000
     28 CAZ        -5.5160   -1.7160   -0.8260 c2        1 OJ8      0.112000
     29 CBA        -4.4720   -0.8410   -1.3450 c2        1 OJ8     -0.013000
     30 H12         4.2890   -0.7220    0.1010 ha        1 OJ8      0.114500
     31 H13         3.1840   -2.0980   -0.4600 ha        1 OJ8      0.114500
     32 HO14        0.5540    1.0500   -1.4150 ho        1 OJ8      0.273000
     33 HAC        -7.2250   -4.2510   -0.8650 ha        1 OJ8      0.122500
     34 HAD        -2.5330    1.5510    6.8210 ha        1 OJ8      0.130000
     35 HAE         0.9150    2.1330    8.3380 ha        1 OJ8      0.195000
     36 HAF        -8.8700   -1.6040   -0.6900 ha        1 OJ8      0.134000
     37 HAG        -9.0110   -4.0490   -0.4230 ha        1 OJ8      0.122500
     38 HAH        -0.8510    2.0150    5.1200 ha        1 OJ8      0.145000
     39 HAI         1.0410    0.3180    6.9790 h4        1 OJ8      0.170000
     40 HAJ        -6.9910   -0.6470   -1.9130 ha        1 OJ8      0.145000
     41 HAK         1.1550    4.7300    2.8210 ha        1 OJ8      0.134000
     42 HAL         1.4690    3.4130    4.9340 ha        1 OJ8      0.145000
     43 HAM        -5.2770    0.4450   -3.0180 h4        1 OJ8      0.195000
     44 HAN         0.1340    1.0840    0.9490 hc        1 OJ8      0.119000
     45 HAO         1.2100   -0.3040    2.7280 ha        1 OJ8      0.154000
     46 HAOA        2.2880    1.7950   -0.3330 hc        1 OJ8      0.093500
     47 HAP         3.2220    1.2910    1.1280 hc        1 OJ8      0.093500
     48 HAPA        1.1740   -0.6760   -0.1020 ha        1 OJ8      0.139000
     49 HAQ         0.4060    3.2290   -0.5270 ha        1 OJ8      0.116500
     50 HAQA        0.4890    4.7870    0.4760 ha        1 OJ8      0.116500
     51 OAT         1.5760    0.7770    5.0940 os        1 OJ8     -0.166000
     52 HAB        -2.0390    1.7010    9.1770 ha        1 OJ8      0.128000
@<TRIPOS>BOND
     1    1   19 1   
     2    1   30 1   
     3    1   31 1   
     4    2    3 1   
     5    2    4 1   
     6    3   32 1   
     7    4   22 1   
     8    4   23 1   
     9    5    7 1   
    10    5    8 1   
    11    5   52 1   
    12    6    9 1   
    13    6   33 1   
    14    6   37 1   
    15    7   11 1   
    16    7   34 1   
    17    8   12 1   
    18    8   35 1   
    19    9   13 1   
    20    9   36 1   
    21   10   21 1   
    22   11   24 1   
    23   11   38 1   
    24   13   28 1   
    25   13   40 1   
    26   14   15 1   
    27   14   25 1   
    28   14   42 1   
    29   15   26 1   
    30   15   41 1   
    31   16   22 1   
    32   16   29 1   
    33   16   43 1   
    34   17   25 1   
    35   17   27 1   
    36   17   45 1   
    37   18   19 1   
    38   18   27 1   
    39   18   46 1   
    40   18   47 1   
    41   19   48 1   
    42   20   26 1   
    43   20   49 1   
    44   20   50 1   
    45   21   28 1   
    46   23   29 1   
    47   24   39 1   
    48   24   51 1   
    49   25   51 1   
    50   26   27 1   
    51   27   44 1   
    52   28   29 1   
@<TRIPOS>SUBSTRUCTURE
     1 OJ8         1 TEMP              0 ****  ****    0 ROOT
