@<TRIPOS>MOLECULE
OJ8
   52    53     1     0     0
SMALL
bcc


@<TRIPOS>ATOM
      1 C12         0.1450    1.0450    0.1350 c3        1 OJ8     -0.154000
      2 C13        -2.0720    0.3630   -2.3370 c1        1 OJ8      0.015000
      3 O14        -1.2110    0.9630   -3.1740 oh        1 OJ8     -0.272000
      4 C15        -3.2320   -0.1270   -2.9920 c2        1 OJ8     -0.247000
      5 CAB         1.3410    2.0020    9.9940 c2        1 OJ8     -0.099000
      6 CAC        -8.2090   -4.7120   -3.3470 c1        1 OJ8     -0.214000
      7 CAD         0.5810    2.2480    8.9140 c2        1 OJ8     -0.105000
      8 CAE         3.6180    1.7660   10.9430 c1        1 OJ8      0.196000
      9 CAF        -7.8510   -3.5720   -3.4090 c1        1 OJ8     -0.174000
     10 CAG        -6.5820   -2.3990   -0.1150 c1        1 OJ8     -0.113000
     11 CAH         0.9960    2.2550    7.5320 c2        1 OJ8     -0.244000
     12 CAI         2.7430    1.6560    9.9660 c2        1 OJ8     -0.453000
     13 CAJ        -7.4340   -2.2040   -3.5130 c3        1 OJ8      0.023000
     14 CAK         0.5890    3.1880    4.5450 c2        1 OJ8     -0.150000
     15 CAL        -0.1340    2.9940    3.4250 c2        1 OJ8     -0.099000
     16 CAM        -4.9150   -0.7500   -4.4240 c1        1 OJ8     -0.153000
     17 CAN         2.0260    1.2640    4.0420 c2        1 OJ8     -0.149000
     18 CAO         1.9330    0.3150    1.7410 c3        1 OJ8     -0.149000
     19 CAP         0.9940   -0.1090    0.6320 c3        1 OJ8     -0.153000
     20 CAQ        -0.2570    1.9920    1.1990 c2        1 OJ8     -0.128000
     21 NAR        -6.4740   -2.1380   -1.2470 n2        1 OJ8      0.131000
     22 NAS        -3.7150   -0.1450   -4.3060 n3        1 OJ8     -0.095000
     23 OAU        -4.1920   -0.7700   -2.2040 os        1 OJ8     -0.042000
     24 CAV         2.1900    2.7030    7.1060 c2        1 OJ8      0.002000
     25 CAW         1.7360    2.3370    4.8080 c2        1 OJ8      0.021000
     26 CAX         0.2160    1.9640    2.4590 c2        1 OJ8     -0.100000
     27 CAY         1.1360    0.8690    2.9160 c3        1 OJ8     -0.035000
     28 CAZ        -6.3480   -1.8340   -2.5410 c2        1 OJ8     -0.210000
     29 CBA        -5.2170   -1.1550   -3.0450 c2        1 OJ8      0.035000
     30 H12        -0.7770    0.6400   -0.3770 hc        1 OJ8      0.106000
     31 H13         0.7220    1.6250   -0.6390 hc        1 OJ8      0.106000
     32 HO14       -0.4670    1.2520   -2.6180 ho        1 OJ8      0.252000
     33 HAC        -6.6750   -2.6520    0.9170 ha        1 OJ8      0.311000
     34 HAD        -0.4960    2.4530    9.0620 ha        1 OJ8      0.128000
     35 HAE         3.1120    1.2350    9.0010 ha        1 OJ8      0.198000
     36 HAF        -8.3240   -1.5290   -3.3540 hc        1 OJ8      0.131500
     37 HAG        -8.5260   -5.7230   -3.3020 ha        1 OJ8      0.222000
     38 HAH         0.2470    1.8870    6.8090 ha        1 OJ8      0.144000
     39 HAI         2.9870    3.1250    7.7450 h4        1 OJ8      0.169000
     40 HAJ        -7.0370   -2.0030   -4.5530 hc        1 OJ8      0.131500
     41 HAK        -0.9940    3.6370    3.1820 ha        1 OJ8      0.132000
     42 HAL         0.3640    3.9810    5.2720 ha        1 OJ8      0.144000
     43 HAM        -3.2010    0.2560   -5.0550 hn        1 OJ8      0.271000
     44 HAN         0.4770    0.0330    3.3110 hc        1 OJ8      0.106000
     45 HAO         2.9060    0.6330    4.2290 ha        1 OJ8      0.143000
     46 HAOA        2.6430    1.0960    1.3660 hc        1 OJ8      0.086000
     47 HAP         2.5410   -0.5630    2.0820 hc        1 OJ8      0.086000
     48 HAPA        0.3250   -0.9280    1.0060 hc        1 OJ8      0.081500
     49 HAQ         1.5880   -0.5290   -0.2220 hc        1 OJ8      0.081500
     50 HAQA       -0.9720    2.7710    0.8850 ha        1 OJ8      0.124000
     51 OAT         2.6380    2.7270    5.8040 os        1 OJ8     -0.168000
     52 HAB         0.8820    2.0370   10.9980 ha        1 OJ8      0.127000
@<TRIPOS>BOND
     1    1   19 1   
     2    1   20 1   
     3    1   30 1   
     4    1   31 1   
     5    2    3 1   
     6    2    4 1   
     7    3   32 1   
     8    4   22 1   
     9    4   23 1   
    10    5    7 1   
    11    5   12 1   
    12    5   52 1   
    13    6    9 1   
    14    6   37 1   
    15    7   11 1   
    16    7   34 1   
    17    8   12 1   
    18    9   13 1   
    19   10   21 1   
    20   10   33 1   
    21   11   24 1   
    22   11   38 1   
    23   12   35 1   
    24   13   28 1   
    25   13   36 1   
    26   13   40 1   
    27   14   15 1   
    28   14   25 1   
    29   14   42 1   
    30   15   26 1   
    31   15   41 1   
    32   16   22 1   
    33   16   29 1   
    34   17   25 1   
    35   17   27 1   
    36   17   45 1   
    37   18   19 1   
    38   18   27 1   
    39   18   46 1   
    40   18   47 1   
    41   19   48 1   
    42   19   49 1   
    43   20   26 1   
    44   20   50 1   
    45   21   28 1   
    46   22   43 1   
    47   23   29 1   
    48   24   39 1   
    49   24   51 1   
    50   25   51 1   
    51   26   27 1   
    52   27   44 1   
    53   28   29 1   
@<TRIPOS>SUBSTRUCTURE
     1 OJ8         1 TEMP              0 ****  ****    0 ROOT
