@<TRIPOS>MOLECULE
OJD
   29    30     1     0     0
SMALL
bcc


@<TRIPOS>ATOM
      1 O01         0.1220   -0.6970   -0.1460 o         1 OJD     -0.631500
      2 C02         1.3020   -0.3220   -0.0740 c         1 OJD      0.697500
      3 C03         2.0510    0.0620    1.1970 c3        1 OJD     -0.158400
      4 C04         3.4550    0.4800    0.7400 c3        1 OJD     -0.078700
      5 C05         4.5380   -0.2970    1.4570 c3        1 OJD     -0.073400
      6 C06         5.9180    0.2620    1.1640 c3        1 OJD     -0.037100
      7 C07         6.9850   -0.5390    1.8250 ca        1 OJD     -0.081300
      8 C08         7.3190   -1.8080    1.3340 ca        1 OJD     -0.127000
      9 C09         8.3230   -2.5560    1.9440 ca        1 OJD     -0.127000
     10 C10         9.0050   -2.0440    3.0490 ca        1 OJD     -0.130000
     11 C11         8.6780   -0.7810    3.5410 ca        1 OJD     -0.127000
     12 C12         7.6730   -0.0310    2.9330 ca        1 OJD     -0.127000
     13 C13         3.4720    0.2390   -0.7960 c3        1 OJD      0.094000
     14 N14         2.1450   -0.1860   -1.1660 n         1 OJD     -0.591900
     15 H031        1.5150    0.8980    1.7070 hc        1 OJD      0.081700
     16 H032        2.0770   -0.8180    1.8860 hc        1 OJD      0.081700
     17 H14         1.9020   -0.4220   -2.0910 hn        1 OJD      0.332500
     18 H04         3.6020    1.5760    0.9330 hc        1 OJD      0.061700
     19 H051        4.4980   -1.3770    1.1560 hc        1 OJD      0.052200
     20 H052        4.3480   -0.2530    2.5630 hc        1 OJD      0.052200
     21 H131        3.7420    1.1860   -1.3390 h1        1 OJD      0.041700
     22 H132        4.2280   -0.5480   -1.0700 h1        1 OJD      0.041700
     23 H061        6.0910    0.2650    0.0540 hc        1 OJD      0.048700
     24 H062        5.9680    1.3290    1.5100 hc        1 OJD      0.048700
     25 H08         6.7820   -2.2120    0.4630 ha        1 OJD      0.130500
     26 H12         7.4200    0.9660    3.3250 ha        1 OJD      0.130500
     27 H09         8.5790   -3.5520    1.5530 ha        1 OJD      0.132000
     28 H10         9.7970   -2.6360    3.5290 ha        1 OJD      0.132000
     29 H11         9.2140   -0.3750    4.4110 ha        1 OJD      0.132000
@<TRIPOS>BOND
     1    1    2 2   
     2    2    3 1   
     3    2   14 1   
     4    3    4 1   
     5    3   15 1   
     6    3   16 1   
     7    4    5 1   
     8    4   13 1   
     9    4   18 1   
    10    5    6 1   
    11    5   19 1   
    12    5   20 1   
    13    6    7 1   
    14    6   23 1   
    15    6   24 1   
    16    7    8 ar  
    17    7   12 ar  
    18    8    9 ar  
    19    8   25 1   
    20    9   10 ar  
    21    9   27 1   
    22   10   11 ar  
    23   10   28 1   
    24   11   12 ar  
    25   11   29 1   
    26   12   26 1   
    27   13   14 1   
    28   13   21 1   
    29   13   22 1   
    30   14   17 1   
@<TRIPOS>SUBSTRUCTURE
     1 OJD         1 TEMP              0 ****  ****    0 ROOT
