@<TRIPOS>MOLECULE
OJD
   29    30     1     0     0
SMALL
bcc


@<TRIPOS>ATOM
      1 O01         0.1200   -0.7040   -0.1380 o         1 OJD     -0.631500
      2 C02         1.2990   -0.3270   -0.0670 c         1 OJD      0.697500
      3 C03         2.0500    0.0560    1.2040 c3        1 OJD     -0.158400
      4 C04         3.4530    0.4780    0.7460 c3        1 OJD     -0.078700
      5 C05         4.5380   -0.2990    1.4590 c3        1 OJD     -0.073400
      6 C06         5.9170    0.2640    1.1650 c3        1 OJD     -0.037100
      7 C07         6.9870   -0.5370    1.8220 ca        1 OJD     -0.081300
      8 C08         7.3220   -1.8030    1.3270 ca        1 OJD     -0.127000
      9 C09         8.3290   -2.5510    1.9330 ca        1 OJD     -0.127000
     10 C10         9.0110   -2.0420    3.0380 ca        1 OJD     -0.130000
     11 C11         8.6820   -0.7810    3.5340 ca        1 OJD     -0.127000
     12 C12         7.6750   -0.0310    2.9300 ca        1 OJD     -0.127000
     13 C13         3.4670    0.2410   -0.7910 c3        1 OJD      0.094000
     14 N14         2.1400   -0.1860   -1.1590 ns        1 OJD     -0.591900
     15 H031        2.0790   -0.8260    1.8910 hc        1 OJD      0.081700
     16 H032        1.5130    0.8890    1.7170 hc        1 OJD      0.081700
     17 H14         1.8970   -0.4200   -2.0850 hn        1 OJD      0.332500
     18 H04         3.5970    1.5740    0.9410 hc        1 OJD      0.061700
     19 H051        4.5000   -1.3790    1.1550 hc        1 OJD      0.052200
     20 H052        4.3500   -0.2580    2.5650 hc        1 OJD      0.052200
     21 H131        4.2240   -0.5440   -1.0680 h1        1 OJD      0.041700
     22 H132        3.7340    1.1900   -1.3320 h1        1 OJD      0.041700
     23 H061        6.0870    0.2710    0.0540 hc        1 OJD      0.048700
     24 H062        5.9650    1.3300    1.5140 hc        1 OJD      0.048700
     25 H08         6.7850   -2.2060    0.4550 ha        1 OJD      0.130500
     26 H12         7.4210    0.9640    3.3260 ha        1 OJD      0.130500
     27 H09         8.5860   -3.5450    1.5380 ha        1 OJD      0.132000
     28 H10         9.8060   -2.6330    3.5150 ha        1 OJD      0.132000
     29 H11         9.2190   -0.3760    4.4050 ha        1 OJD      0.132000
@<TRIPOS>BOND
     1    1    2 2   
     2    2    3 1   
     3    2   14 1   
     4    3    4 1   
     5    3   15 1   
     6    3   16 1   
     7    4    5 1   
     8    4   13 1   
     9    4   18 1   
    10    5    6 1   
    11    5   19 1   
    12    5   20 1   
    13    6    7 1   
    14    6   23 1   
    15    6   24 1   
    16    7    8 ar  
    17    7   12 ar  
    18    8    9 ar  
    19    8   25 1   
    20    9   10 ar  
    21    9   27 1   
    22   10   11 ar  
    23   10   28 1   
    24   11   12 ar  
    25   11   29 1   
    26   12   26 1   
    27   13   14 1   
    28   13   21 1   
    29   13   22 1   
    30   14   17 1   
@<TRIPOS>SUBSTRUCTURE
     1 OJD         1 TEMP              0 ****  ****    0 ROOT
