@<TRIPOS>MOLECULE
OKD
   81    81     1     0     0
SMALL
bcc


@<TRIPOS>ATOM
      1 CAA         0.2130   -2.1960   -2.1720 c3        1 OKD      0.117700
      2 OBC         0.1580   -1.0990   -1.2780 os        1 OKD     -0.426600
      3 CAL         1.1940   -0.1470   -1.5160 c3        1 OKD      0.123400
      4 CAM         1.1190    0.8700   -0.3810 c3        1 OKD      0.128400
      5 OBD         2.3080    0.7040    0.3880 os        1 OKD     -0.428600
      6 CAN         2.3160    1.5220    1.5560 c3        1 OKD      0.126400
      7 CAO         3.7220    1.4310    2.1390 c3        1 OKD      0.129400
      8 OBE         4.3130    2.7160    1.9630 os        1 OKD     -0.430600
      9 CAP         5.6840    2.7320    2.3570 c3        1 OKD      0.127400
     10 CAQ         6.1650    4.1640    2.1400 c3        1 OKD      0.131400
     11 OBF         7.4950    4.2050    2.6480 os        1 OKD     -0.433600
     12 CAR         8.0770    5.5010    2.5000 c3        1 OKD      0.128400
     13 CAS         9.4850    5.3950    3.0790 c3        1 OKD      0.128400
     14 OBG        10.0270    6.7090    3.0070 os        1 OKD     -0.414600
     15 CAX        11.3690    6.7550    3.5110 c3        1 OKD      0.134100
     16 CBL        11.8430    8.1480    3.4170 cc        1 OKD      0.191600
     17 CAI        12.7650    8.6950    2.5000 cd        1 OKD     -0.145600
     18 NAY        11.4360    9.2040    4.2690 nc        1 OKD     -0.352000
     19 NAZ        12.0330   10.2740    3.9380 nd        1 OKD     -0.203800
     20 NBO        12.8390   10.0420    2.8690 na        1 OKD      0.054400
     21 CAW        13.7340   11.0020    2.2530 c3        1 OKD      0.047300
     22 CAK        15.0730   11.1540    2.9760 c3        1 OKD     -0.103400
     23 CAJ        16.0080   12.0000    2.1370 c3        1 OKD     -0.081400
     24 CB         17.3420   12.1950    2.8270 c3        1 OKD     -0.094400
     25 CA         18.4580   12.5450    1.8590 c3        1 OKD     -0.045500
     26 C          19.6300   13.3420    2.6050 c         1 OKD      0.929600
     27 OXT        19.2620   14.2730    3.3450 o         1 OKD     -0.776800
     28 O          20.8000   12.9540    2.3400 o         1 OKD     -0.776800
     29 N          19.0670   11.3440    1.1890 n4        1 OKD     -0.643800
     30 CBK        18.3050   10.8770   -0.0280 c         1 OKD      0.611100
     31 OAE        18.2700   11.6770   -0.9770 o         1 OKD     -0.541100
     32 NBB        17.8330    9.5760   -0.0540 n         1 OKD     -0.480900
     33 CBN        16.5990    9.3180   -0.8060 c3        1 OKD     -0.078300
     34 CBJ        15.4640    8.8010    0.1550 c         1 OKD      0.900600
     35 OAH        14.2930    8.8100   -0.2990 o         1 OKD     -0.810800
     36 OAD        15.7900    8.4460    1.3230 o         1 OKD     -0.810800
     37 CAV        16.7970    8.2870   -1.9150 c3        1 OKD     -0.074400
     38 CAT        17.6210    8.8220   -3.0710 c3        1 OKD     -0.183400
     39 CBH        18.7700    7.9310   -3.4320 c         1 OKD      0.630100
     40 OAF        19.0570    7.5050   -4.5520 o         1 OKD     -0.512000
     41 OAB        19.6510    7.5370   -2.4620 oh        1 OKD     -0.593100
     42 HAA1       -0.6490   -2.8430   -1.8750 h1        1 OKD      0.031700
     43 HAA2        1.1770   -2.7520   -2.0580 h1        1 OKD      0.031700
     44 HAA3        0.0980   -1.8500   -3.2290 h1        1 OKD      0.031700
     45 HAL1        2.1940   -0.6560   -1.5280 h1        1 OKD      0.043700
     46 HAL2        1.0140    0.3510   -2.5040 h1        1 OKD      0.043700
     47 HAM1        1.0840    1.9140   -0.7900 h1        1 OKD      0.043200
     48 HAM2        0.2150    0.6860    0.2600 h1        1 OKD      0.043200
     49 HAN1        2.0640    2.5830    1.2910 h1        1 OKD      0.043200
     50 HAN2        1.5600    1.1260    2.2840 h1        1 OKD      0.043200
     51 HAO1        4.3260    0.6490    1.6060 h1        1 OKD      0.043200
     52 HAO2        3.6790    1.1900    3.2340 h1        1 OKD      0.043200
     53 HAP1        5.7780    2.4430    3.4370 h1        1 OKD      0.040200
     54 HAP2        6.2730    2.0150    1.7280 h1        1 OKD      0.040200
     55 HAQ1        5.5160    4.8890    2.6980 h1        1 OKD      0.040700
     56 HAQ2        6.1580    4.4250    1.0500 h1        1 OKD      0.040700
     57 HAR1        8.1140    5.7840    1.4160 h1        1 OKD      0.043700
     58 HAR2        7.4740    6.2600    3.0640 h1        1 OKD      0.043700
     59 HAS1        9.4500    5.0450    4.1440 h1        1 OKD      0.033700
     60 HAS2       10.1080    4.6820    2.4780 h1        1 OKD      0.033700
     61 HAX1       12.0200    6.0850    2.8860 h1        1 OKD      0.035700
     62 HAX2       11.3730    6.3950    4.5770 h1        1 OKD      0.035700
     63 HAI        13.3580    8.2840    1.6680 h4        1 OKD      0.253000
     64 HAW1       13.9260   10.6270    1.2010 h1        1 OKD      0.078700
     65 HAW2       13.2160   12.0000    2.2040 h1        1 OKD      0.078700
     66 HAK1       15.5300   10.1380    3.1280 hc        1 OKD      0.066200
     67 HAK2       14.9230   11.6250    3.9810 hc        1 OKD      0.066200
     68 HAJ1       15.5440   13.0000    1.9320 hc        1 OKD      0.037700
     69 HAJ2       16.1520   11.4970    1.1420 hc        1 OKD      0.037700
     70 HB1C       17.6050   11.2870    3.4330 hc        1 OKD      0.079200
     71 HB2C       17.2710   13.0560    3.5510 hc        1 OKD      0.079200
     72 HA         18.0750   13.2230    1.0440 hx        1 OKD      0.103700
     73 H          20.0220   11.6530    0.9050 hn        1 OKD      0.462300
     74 HBB        19.3680    7.8850   -1.6050 ho        1 OKD      0.432000
     75 HBN        16.2310   10.2790   -1.2700 h1        1 OKD      0.081700
     76 HAV1       17.2460    7.3490   -1.4970 hc        1 OKD      0.074700
     77 HAV2       15.7640    8.0220   -2.2770 hc        1 OKD      0.074700
     78 HAT1       18.0410    9.8370   -2.8270 hc        1 OKD      0.085200
     79 HAT2       16.9740    8.9410   -3.9800 hc        1 OKD      0.085200
     80 H2         19.1710   10.6060    1.8870 hn        1 OKD      0.462300
     81 HBB2       17.8130    9.0750    0.8250 hn        1 OKD      0.333500
@<TRIPOS>BOND
     1    1    2 1   
     2    1   42 1   
     3    1   43 1   
     4    1   44 1   
     5    2    3 1   
     6    3    4 1   
     7    3   45 1   
     8    3   46 1   
     9    4    5 1   
    10    4   47 1   
    11    4   48 1   
    12    5    6 1   
    13    6    7 1   
    14    6   49 1   
    15    6   50 1   
    16    7    8 1   
    17    7   51 1   
    18    7   52 1   
    19    8    9 1   
    20    9   10 1   
    21    9   53 1   
    22    9   54 1   
    23   10   11 1   
    24   10   55 1   
    25   10   56 1   
    26   11   12 1   
    27   12   13 1   
    28   12   57 1   
    29   12   58 1   
    30   13   14 1   
    31   13   59 1   
    32   13   60 1   
    33   14   15 1   
    34   15   16 1   
    35   15   61 1   
    36   15   62 1   
    37   16   17 2   
    38   16   18 1   
    39   17   20 1   
    40   17   63 1   
    41   18   19 2   
    42   19   20 1   
    43   20   21 1   
    44   21   22 1   
    45   21   64 1   
    46   21   65 1   
    47   22   23 1   
    48   22   66 1   
    49   22   67 1   
    50   23   24 1   
    51   23   68 1   
    52   23   69 1   
    53   24   25 1   
    54   24   70 1   
    55   24   71 1   
    56   25   26 1   
    57   25   29 1   
    58   25   72 1   
    59   26   27 1   
    60   26   28 1   
    61   29   30 1   
    62   29   73 1   
    63   29   80 1   
    64   30   31 2   
    65   30   32 1   
    66   32   33 1   
    67   32   81 1   
    68   33   34 1   
    69   33   37 1   
    70   33   75 1   
    71   34   35 1   
    72   34   36 1   
    73   37   38 1   
    74   37   76 1   
    75   37   77 1   
    76   38   39 1   
    77   38   78 1   
    78   38   79 1   
    79   39   40 2   
    80   39   41 1   
    81   41   74 1   
@<TRIPOS>SUBSTRUCTURE
     1 OKD         1 TEMP              0 ****  ****    0 ROOT
