@<TRIPOS>MOLECULE
OKD
   79    79     1     0     0
SMALL
bcc


@<TRIPOS>ATOM
      1 CAA         4.7550   -0.9140   -2.0600 c3        1 OKD      0.099700
      2 OBC         4.3500   -1.8240   -3.0770 os        1 OKD     -0.451600
      3 CAL         3.2560   -2.6420   -2.6730 c3        1 OKD      0.078400
      4 CAM         3.7400   -3.9420   -2.0390 c3        1 OKD      0.110400
      5 OBD         4.4400   -3.7560   -0.8200 os        1 OKD     -0.440600
      6 CAN         3.5760   -3.4110    0.2710 c3        1 OKD      0.041400
      7 CAO         4.4440   -3.3070    1.5140 c3        1 OKD      0.135400
      8 OBE         5.2010   -2.1080    1.6310 os        1 OKD     -0.447600
      9 CAP         4.4400   -0.9080    1.6770 c3        1 OKD      0.078400
     10 CAQ         3.4840   -0.8780    2.8660 c3        1 OKD      0.105400
     11 OBF         3.1780    0.4550    3.2530 os        1 OKD     -0.442600
     12 CAR         2.3820    1.1600    2.2990 c3        1 OKD      0.085400
     13 CAS         3.0270    2.5140    2.0300 c3        1 OKD      0.113400
     14 OBG         4.1860    2.3090    1.2180 os        1 OKD     -0.419600
     15 CAX         4.4470    3.3590    0.3010 c3        1 OKD      0.135100
     16 CBL         3.4150    3.4840   -0.7510 cc        1 OKD      0.146600
     17 CAI         2.4550    2.5340   -1.1720 cd        1 OKD     -0.151600
     18 NAY         3.2140    4.6420   -1.5380 nc        1 OKD     -0.397000
     19 NAZ         2.2450    4.4500   -2.3410 nd        1 OKD     -0.230800
     20 NBO         1.7470    3.2000   -2.1760 na        1 OKD      0.072400
     21 CAW         0.5680    2.6660   -2.8370 c3        1 OKD      0.018300
     22 CAK        -0.7540    3.2920   -2.3930 c3        1 OKD     -0.078400
     23 CAJ        -1.1860    2.7790   -1.0360 c3        1 OKD     -0.105400
     24 CB         -2.6260    3.1270   -0.7420 c3        1 OKD     -0.095400
     25 CA         -3.1160    2.6310    0.6320 c3        1 OKD     -0.025300
     26 C          -4.6050    3.1150    0.7410 c         1 OKD      0.918600
     27 OXT        -4.8190    4.1710    1.4020 o         1 OKD     -0.854800
     28 O          -5.5040    2.4690    0.1310 o         1 OKD     -0.854800
     29 N          -3.0170    1.2020    0.8350 n         1 OKD     -0.516900
     30 CBK        -1.7520    0.6150    1.0610 c         1 OKD      0.728100
     31 OAE        -0.8880    1.2200    1.7500 o         1 OKD     -0.678100
     32 NBB        -1.5420   -0.7310    0.6530 n         1 OKD     -0.501900
     33 CBN        -0.1700   -1.2120    0.5600 c3        1 OKD     -0.029300
     34 CBJ         0.6180   -0.6280   -0.6430 c         1 OKD      0.888600
     35 OAH         0.0150   -0.2780   -1.7000 o         1 OKD     -0.872800
     36 OAD         1.8820   -0.5120   -0.5310 o         1 OKD     -0.872800
     37 CAV        -0.1030   -2.7450    0.4480 c3        1 OKD     -0.053400
     38 CAT        -0.4120   -3.4660    1.7360 c3        1 OKD     -0.180400
     39 CBH        -0.0600   -4.9560    1.6670 c         1 OKD      0.902600
     40 OAF        -0.9040   -5.8000    2.0990 o         1 OKD     -0.876300
     41 OAB         1.0710   -5.3140    1.2140 o         1 OKD     -0.876300
     42 HAA1        5.1820   -1.4780   -1.1910 h1        1 OKD      0.043033
     43 HAA2        5.5370   -0.2800   -2.5470 h1        1 OKD      0.043033
     44 HAA3        3.8860   -0.2950   -1.7160 h1        1 OKD      0.043033
     45 HAL1        2.5640   -2.0790   -1.9820 h1        1 OKD      0.074700
     46 HAL2        2.7200   -2.8800   -3.6310 h1        1 OKD      0.074700
     47 HAM1        2.8600   -4.6230   -1.8830 h1        1 OKD      0.034200
     48 HAM2        4.4970   -4.4380   -2.7050 h1        1 OKD      0.034200
     49 HAN1        3.0570   -2.4390    0.0470 h1        1 OKD      0.102700
     50 HAN2        2.8040   -4.2230    0.4200 h1        1 OKD      0.102700
     51 HAO1        3.7850   -3.4260    2.4160 h1        1 OKD      0.041700
     52 HAO2        5.2340   -4.1060    1.5070 h1        1 OKD      0.041700
     53 HAP1        5.2140   -0.1000    1.7820 h1        1 OKD      0.075200
     54 HAP2        3.8780   -0.7540    0.7150 h1        1 OKD      0.075200
     55 HAQ1        2.5400   -1.4370    2.6240 h1        1 OKD      0.047200
     56 HAQ2        3.9670   -1.3220    3.7770 h1        1 OKD      0.047200
     57 HAR1        2.2560    0.5850    1.3390 h1        1 OKD      0.098700
     58 HAR2        1.3700    1.3150    2.7670 h1        1 OKD      0.098700
     59 HAS1        2.2810    3.1720    1.5120 h1        1 OKD      0.035200
     60 HAS2        3.3690    2.9970    2.9830 h1        1 OKD      0.035200
     61 HAX1        4.5630    4.3300    0.8560 h1        1 OKD      0.032200
     62 HAX2        5.4360    3.0690   -0.1540 h1        1 OKD      0.032200
     63 HAI         2.2440    1.4910   -0.8640 h4        1 OKD      0.274000
     64 HAW1        0.6950    2.8250   -3.9450 h1        1 OKD      0.092700
     65 HAW2        0.5420    1.5480   -2.6180 h1        1 OKD      0.092700
     66 HAK1       -0.6900    4.4100   -2.3860 hc        1 OKD      0.032700
     67 HAK2       -1.5210    3.0030   -3.1600 hc        1 OKD      0.032700
     68 HAJ1       -1.0440    1.6600   -1.0200 hc        1 OKD      0.068700
     69 HAJ2       -0.5250    3.1990   -0.2340 hc        1 OKD      0.068700
     70 HB1C       -2.7590    4.2410   -0.7530 hc        1 OKD      0.034700
     71 HB2C       -3.2910    2.7010   -1.5380 hc        1 OKD      0.034700
     72 HA         -2.5100    3.1340    1.4380 h1        1 OKD      0.070700
     73 H          -3.6660    0.6910    0.2760 hn        1 OKD      0.289500
     74 HBB        -2.0720   -1.0010   -0.1510 hn        1 OKD      0.272500
     75 HBN         0.3660   -0.8860    1.5000 h1        1 OKD      0.073700
     76 HAV1       -0.7930   -3.1010   -0.3600 hc        1 OKD      0.043700
     77 HAV2        0.9430   -3.0080    0.1300 hc        1 OKD      0.043700
     78 HAT1        0.1840   -3.0160    2.5720 hc        1 OKD      0.027700
     79 HAT2       -1.4960   -3.3550    1.9940 hc        1 OKD      0.027700
@<TRIPOS>BOND
     1    1    2 1   
     2    1   42 1   
     3    1   43 1   
     4    1   44 1   
     5    2    3 1   
     6    3    4 1   
     7    3   45 1   
     8    3   46 1   
     9    4    5 1   
    10    4   47 1   
    11    4   48 1   
    12    5    6 1   
    13    6    7 1   
    14    6   49 1   
    15    6   50 1   
    16    7    8 1   
    17    7   51 1   
    18    7   52 1   
    19    8    9 1   
    20    9   10 1   
    21    9   53 1   
    22    9   54 1   
    23   10   11 1   
    24   10   55 1   
    25   10   56 1   
    26   11   12 1   
    27   12   13 1   
    28   12   57 1   
    29   12   58 1   
    30   13   14 1   
    31   13   59 1   
    32   13   60 1   
    33   14   15 1   
    34   15   16 1   
    35   15   61 1   
    36   15   62 1   
    37   16   17 2   
    38   16   18 1   
    39   17   20 1   
    40   17   63 1   
    41   18   19 2   
    42   19   20 1   
    43   20   21 1   
    44   21   22 1   
    45   21   64 1   
    46   21   65 1   
    47   22   23 1   
    48   22   66 1   
    49   22   67 1   
    50   23   24 1   
    51   23   68 1   
    52   23   69 1   
    53   24   25 1   
    54   24   70 1   
    55   24   71 1   
    56   25   26 1   
    57   25   29 1   
    58   25   72 1   
    59   26   27 1   
    60   26   28 1   
    61   29   30 1   
    62   29   73 1   
    63   30   31 2   
    64   30   32 1   
    65   32   33 1   
    66   32   74 1   
    67   33   34 1   
    68   33   37 1   
    69   33   75 1   
    70   34   35 1   
    71   34   36 1   
    72   37   38 1   
    73   37   76 1   
    74   37   77 1   
    75   38   39 1   
    76   38   78 1   
    77   38   79 1   
    78   39   40 1   
    79   39   41 1   
@<TRIPOS>SUBSTRUCTURE
     1 OKD         1 TEMP              0 ****  ****    0 ROOT
