@<TRIPOS>MOLECULE
OKD
   81    81     1     0     0
SMALL
bcc


@<TRIPOS>ATOM
      1 CAA         0.0250   -1.5500   -2.8920 c3        1 OKD      0.119700
      2 OBC         0.0250   -0.6540   -1.7950 os        1 OKD     -0.425600
      3 CAL         1.3100   -0.5480   -1.1840 c3        1 OKD      0.124400
      4 CAM         1.1570    0.4780   -0.0650 c3        1 OKD      0.129400
      5 OBD         2.3780    0.4350    0.6680 os        1 OKD     -0.429600
      6 CAN         2.3940    1.3800    1.7380 c3        1 OKD      0.128400
      7 CAO         3.8020    1.3400    2.3250 c3        1 OKD      0.129400
      8 OBE         4.3740    2.6230    2.0820 os        1 OKD     -0.429600
      9 CAP         5.7420    2.6820    2.4830 c3        1 OKD      0.127400
     10 CAQ         6.2020    4.1080    2.1930 c3        1 OKD      0.131400
     11 OBF         7.5180    4.2030    2.7300 os        1 OKD     -0.433600
     12 CAR         8.0820    5.4980    2.5190 c3        1 OKD      0.128400
     13 CAS         9.4750    5.4540    3.1400 c3        1 OKD      0.128400
     14 OBG         9.9980    6.7690    3.0000 os        1 OKD     -0.414600
     15 CAX        11.3230    6.8700    3.5390 c3        1 OKD      0.134100
     16 CBL        11.7800    8.2610    3.3670 cc        1 OKD      0.191600
     17 CAI        12.7240    8.7620    2.4460 cd        1 OKD     -0.145600
     18 NAY        11.3300    9.3650    4.1340 nc        1 OKD     -0.352000
     19 NAZ        11.9220   10.4210    3.7520 nd        1 OKD     -0.203800
     20 NBO        12.7660   10.1320    2.7270 na        1 OKD      0.054400
     21 CAW        13.6670   11.0630    2.0760 c3        1 OKD      0.047300
     22 CAK        14.9790   11.2850    2.8310 c3        1 OKD     -0.103400
     23 CAJ        15.9290   12.0890    1.9680 c3        1 OKD     -0.081400
     24 CB         17.2370   12.3510    2.6860 c3        1 OKD     -0.094400
     25 CA         18.3790   12.6550    1.7330 c3        1 OKD     -0.045500
     26 C          19.5140   13.5190    2.4610 c         1 OKD      0.929600
     27 OXT        19.1080   14.4910    3.1250 o         1 OKD     -0.776800
     28 O          20.6970   13.1340    2.2610 o         1 OKD     -0.776800
     29 N          19.0270   11.4220    1.1650 n4        1 OKD     -0.643800
     30 CBK        18.3130   10.8630   -0.0420 c         1 OKD      0.611100
     31 OAE        18.2970   11.5970   -1.0430 o         1 OKD     -0.541100
     32 NBB        17.8610    9.5560    0.0040 n         1 OKD     -0.480900
     33 CBN        16.6560    9.2270   -0.7680 c3        1 OKD     -0.078300
     34 CBJ        15.4980    8.7560    0.1890 c         1 OKD      0.900600
     35 OAH        14.3430    8.7160   -0.3030 o         1 OKD     -0.810800
     36 OAD        15.7910    8.4850    1.3870 o         1 OKD     -0.810800
     37 CAV        16.9060    8.1290   -1.7990 c3        1 OKD     -0.074400
     38 CAT        17.7600    8.5990   -2.9610 c3        1 OKD     -0.183400
     39 CBH        18.9330    7.7060   -3.2250 c         1 OKD      0.630100
     40 OAF        19.2620    7.2110   -4.3040 o         1 OKD     -0.511000
     41 OAB        19.7880    7.3920   -2.2040 oh        1 OKD     -0.593100
     42 HAA1        0.7280   -1.2000   -3.6880 h1        1 OKD      0.032700
     43 HAA2        0.3090   -2.5800   -2.5610 h1        1 OKD      0.032700
     44 HAA3       -1.0300   -1.5340   -3.2650 h1        1 OKD      0.032700
     45 HAL1        2.0680   -0.2060   -1.9350 h1        1 OKD      0.040700
     46 HAL2        1.6210   -1.5430   -0.7700 h1        1 OKD      0.040700
     47 HAM1        0.9930    1.5040   -0.4860 h1        1 OKD      0.040200
     48 HAM2        0.2980    0.2100    0.6040 h1        1 OKD      0.040200
     49 HAN1        2.1520    2.4070    1.3530 h1        1 OKD      0.043700
     50 HAN2        1.6350    1.0780    2.5060 h1        1 OKD      0.043700
     51 HAO1        3.7630    1.1550    3.4310 h1        1 OKD      0.043700
     52 HAO2        4.4180    0.5410    1.8320 h1        1 OKD      0.043700
     53 HAP1        6.3460    1.9420    1.8970 h1        1 OKD      0.040200
     54 HAP2        5.8330    2.4510    3.5770 h1        1 OKD      0.040200
     55 HAQ1        5.5260    4.8510    2.6920 h1        1 OKD      0.040700
     56 HAQ2        6.2180    4.3040    1.0900 h1        1 OKD      0.040700
     57 HAR1        8.1430    5.7150    1.4210 h1        1 OKD      0.044200
     58 HAR2        7.4500    6.2790    3.0180 h1        1 OKD      0.044200
     59 HAS1        9.4150    5.1710    4.2240 h1        1 OKD      0.033700
     60 HAS2       10.1250    4.7150    2.6020 h1        1 OKD      0.033700
     61 HAX1       11.3000    6.5810    4.6250 h1        1 OKD      0.035700
     62 HAX2       12.0030    6.1720    2.9780 h1        1 OKD      0.035700
     63 HAI        13.3500    8.3070    1.6630 h4        1 OKD      0.253000
     64 HAW1       13.1370   12.0470    1.9450 h1        1 OKD      0.078200
     65 HAW2       13.8990   10.6230    1.0590 h1        1 OKD      0.078200
     66 HAK1       14.7890   11.8190    3.7970 hc        1 OKD      0.066200
     67 HAK2       15.4460   10.2890    3.0640 hc        1 OKD      0.066200
     68 HAJ1       16.1130   11.5240    1.0140 hc        1 OKD      0.037700
     69 HAJ2       15.4570   13.0660    1.6810 hc        1 OKD      0.037700
     70 HB1C       17.1290   13.2580    3.3480 hc        1 OKD      0.079200
     71 HB2C       17.4920   11.4910    3.3590 hc        1 OKD      0.079200
     72 HA         18.0140   13.2710    0.8630 hx        1 OKD      0.103700
     73 H          19.9860   11.7270    0.8910 hn        1 OKD      0.462300
     74 HBB        17.8190    9.1130    0.9140 hn        1 OKD      0.333500
     75 HBN        16.2900   10.1490   -1.3070 h1        1 OKD      0.081700
     76 HAV1       15.8900    7.8220   -2.1740 hc        1 OKD      0.074700
     77 HAV2       17.3560    7.2280   -1.3050 hc        1 OKD      0.074700
     78 HAT1       17.1410    8.6480   -3.8960 hc        1 OKD      0.085200
     79 HAT2       18.1570    9.6350   -2.7720 hc        1 OKD      0.085200
     80 H2         19.1190   10.7350    1.9140 hn        1 OKD      0.462300
     81 HBB2       19.4710    7.7910   -1.3810 ho        1 OKD      0.432000
@<TRIPOS>BOND
     1    1    2 1   
     2    1   42 1   
     3    1   43 1   
     4    1   44 1   
     5    2    3 1   
     6    3    4 1   
     7    3   45 1   
     8    3   46 1   
     9    4    5 1   
    10    4   47 1   
    11    4   48 1   
    12    5    6 1   
    13    6    7 1   
    14    6   49 1   
    15    6   50 1   
    16    7    8 1   
    17    7   51 1   
    18    7   52 1   
    19    8    9 1   
    20    9   10 1   
    21    9   53 1   
    22    9   54 1   
    23   10   11 1   
    24   10   55 1   
    25   10   56 1   
    26   11   12 1   
    27   12   13 1   
    28   12   57 1   
    29   12   58 1   
    30   13   14 1   
    31   13   59 1   
    32   13   60 1   
    33   14   15 1   
    34   15   16 1   
    35   15   61 1   
    36   15   62 1   
    37   16   17 2   
    38   16   18 1   
    39   17   20 1   
    40   17   63 1   
    41   18   19 2   
    42   19   20 1   
    43   20   21 1   
    44   21   22 1   
    45   21   64 1   
    46   21   65 1   
    47   22   23 1   
    48   22   66 1   
    49   22   67 1   
    50   23   24 1   
    51   23   68 1   
    52   23   69 1   
    53   24   25 1   
    54   24   70 1   
    55   24   71 1   
    56   25   26 1   
    57   25   29 1   
    58   25   72 1   
    59   26   27 1   
    60   26   28 1   
    61   29   30 1   
    62   29   73 1   
    63   29   80 1   
    64   30   31 2   
    65   30   32 1   
    66   32   33 1   
    67   32   74 1   
    68   33   34 1   
    69   33   37 1   
    70   33   75 1   
    71   34   35 1   
    72   34   36 1   
    73   37   38 1   
    74   37   76 1   
    75   37   77 1   
    76   38   39 1   
    77   38   78 1   
    78   38   79 1   
    79   39   40 2   
    80   39   41 1   
    81   41   81 1   
@<TRIPOS>SUBSTRUCTURE
     1 OKD         1 TEMP              0 ****  ****    0 ROOT
