@<TRIPOS>MOLECULE
OKD
   79    77     1     0     0
SMALL
bcc


@<TRIPOS>ATOM
      1 CAA        10.8780    8.8100   -2.4640 c3        1 OKD     -0.070000
      2 OBC         9.7960    8.1940   -1.8160 os        1 OKD     -0.283000
      3 CAL         9.5830    6.8520   -2.2110 c3        1 OKD     -0.028000
      4 CAM         8.4330    6.2720   -1.4270 c3        1 OKD     -0.026000
      5 OBD         7.8700    5.2200   -2.1430 os        1 OKD     -0.290000
      6 CAN         6.5740    4.8680   -1.7120 c3        1 OKD     -0.062000
      7 CAO         5.9550    3.7820   -2.7070 c3        1 OKD     -0.019000
      8 OBE         4.6370    4.2190   -3.1480 os        1 OKD     -0.294000
      9 CAP         3.7880    3.1400   -3.6030 c3        1 OKD     -0.068000
     10 CAQ         2.6020    3.7050   -4.3240 c3        1 OKD     -0.020000
     11 OBF         1.6600    4.2120   -3.3660 os        1 OKD     -0.292000
     12 CAR         0.2830    3.9870   -3.7250 c3        1 OKD     -0.043000
     13 CAS        -0.6140    4.6810   -2.7290 c3        1 OKD     -0.027000
     14 OBG        -1.5430    3.7460   -2.1860 os        1 OKD     -0.282000
     15 CAX        -1.7660    3.9040   -0.8210 c3        1 OKD      0.080000
     16 CBL        -1.6070    2.5330   -0.1100 c2        1 OKD     -0.285000
     17 CAI        -1.5840    2.3230    1.2450 c1        1 OKD     -0.040000
     18 NAY        -1.4450    1.3630   -0.7070 n2        1 OKD     -0.150000
     19 NAZ        -1.3200    0.4060    0.2640 n2        1 OKD     -0.084000
     20 NBO        -1.4070    1.0090    1.4560 n2        1 OKD     -0.131000
     21 CAW        -1.2740    0.3690    2.7410 c2        1 OKD     -0.035000
     22 CAK        -0.8940   -1.1660    2.5440 c3        1 OKD     -0.185000
     23 CAJ        -1.7680   -2.0270    3.4520 c3        1 OKD     -0.135000
     24 CB         -1.8790   -3.4390    2.8660 c3        1 OKD     -0.189000
     25 CA         -2.9040   -4.2450    3.6610 c3        1 OKD     -0.023000
     26 C          -4.1910   -3.4370    3.8030 c2        1 OKD      0.323000
     27 OXT        -4.8460   -3.1050    2.7730 o         1 OKD     -0.603000
     28 O          -4.6230   -3.1270    4.9560 o         1 OKD     -0.603000
     29 N          -3.1790   -5.4660    2.9790 n         1 OKD     -0.340000
     30 CBK        -4.5110   -6.0780    3.0740 c2        1 OKD      0.351000
     31 OAE        -5.1910   -5.9080    4.0820 o         1 OKD     -0.449000
     32 NBB        -4.9480   -7.0120    2.0530 n         1 OKD     -0.290000
     33 CBN        -6.2500   -7.5130    2.0740 c3        1 OKD     -0.074000
     34 CBJ        -6.3340   -8.7110    3.0780 c2        1 OKD      0.312000
     35 OAH        -5.5820   -9.7370    2.9170 o         1 OKD     -0.598000
     36 OAD        -7.1450   -8.6650    4.0560 o         1 OKD     -0.598000
     37 CAV        -6.6300   -7.9860    0.6860 c3        1 OKD     -0.122000
     38 CAT        -8.1100   -8.3600    0.6610 c3        1 OKD     -0.204000
     39 CBH        -8.2710   -9.7810    0.1070 c2        1 OKD      0.322000
     40 OAF        -8.0170  -10.0200   -1.1310 o         1 OKD     -0.620000
     41 OAB        -8.5360  -10.7210    0.8800 o         1 OKD     -0.620000
     42 HAA1       10.8650    8.5820   -3.4040 h1        1 OKD      0.065667
     43 HAA2       10.8090    9.7670   -2.3650 h1        1 OKD      0.065667
     44 HAA3       11.6990    8.5060   -2.0720 h1        1 OKD      0.065667
     45 HAL1        9.3720    6.8230   -3.1670 h1        1 OKD      0.084500
     46 HAL2       10.3990    6.3240   -2.0370 h1        1 OKD      0.084500
     47 HAM1        8.7630    5.9370   -0.5510 h1        1 OKD      0.097000
     48 HAM2        7.7620    6.9560   -1.2800 h1        1 OKD      0.097000
     49 HAN1        5.9840    5.6960   -1.7040 h1        1 OKD      0.090000
     50 HAN2        6.6220    4.4890   -0.7990 h1        1 OKD      0.090000
     51 HAO1        6.5640    3.6750   -3.5130 h1        1 OKD      0.089500
     52 HAO2        5.8740    2.9150   -2.2400 h1        1 OKD      0.089500
     53 HAP1        3.4870    2.6220   -2.8390 h1        1 OKD      0.102500
     54 HAP2        4.2840    2.5710   -4.2000 h1        1 OKD      0.102500
     55 HAQ1        2.1720    2.9910   -4.8680 h1        1 OKD      0.083000
     56 HAQ2        2.8930    4.4280   -4.9100 h1        1 OKD      0.083000
     57 HAR1        0.0950    3.0170   -3.7210 h1        1 OKD      0.093500
     58 HAR2        0.1150    4.3480   -4.6220 h1        1 OKD      0.093500
     59 HAS1       -1.1140    5.4220   -3.1890 h1        1 OKD      0.079000
     60 HAS2       -0.0760    5.0500   -2.0170 h1        1 OKD      0.079000
     61 HAX1       -1.1050    4.5480   -0.4520 h1        1 OKD      0.092000
     62 HAX2       -2.6880    4.2530   -0.6720 h1        1 OKD      0.092000
     63 HAI        -1.7310    3.0040    1.9360 DU        1 OKD      0.292000
     64 HAW1       -0.5650    0.8150    3.2550 ha        1 OKD      0.127500
     65 HAW2       -2.1410    0.4370    3.2360 ha        1 OKD      0.127500
     66 HAK1       -1.0430   -1.4300    1.5870 hc        1 OKD      0.098500
     67 HAK2        0.0690   -1.3040    2.7830 hc        1 OKD      0.098500
     68 HAJ1       -2.6820   -1.6190    3.5200 hc        1 OKD      0.064500
     69 HAJ2       -1.3490   -2.0770    4.3770 hc        1 OKD      0.064500
     70 HB1C       -0.9830   -3.8930    2.9170 hc        1 OKD      0.094500
     71 HB2C       -2.1670   -3.3820    1.9140 hc        1 OKD      0.094500
     72 HA         -2.5450   -4.4430    4.5440 h1        1 OKD      0.108000
     73 H          -2.5000   -5.9140    2.5500 hn        1 OKD      0.203000
     74 HBB        -4.3460   -7.3260    1.4290 hn        1 OKD      0.200000
     75 HBN        -6.8670   -6.8040    2.3590 h1        1 OKD      0.111000
     76 HAV1       -6.4620   -7.2520    0.0260 hc        1 OKD      0.082000
     77 HAV2       -6.1000   -8.7550    0.4540 hc        1 OKD      0.082000
     78 HAT1       -8.4670   -8.3220    1.5590 hc        1 OKD      0.063500
     79 HAT2       -8.5860   -7.7420    0.1000 hc        1 OKD      0.063500
@<TRIPOS>BOND
     1    1    2 1   
     2    1   42 1   
     3    1   43 1   
     4    1   44 1   
     5    2    3 1   
     6    3    4 1   
     7    3   45 1   
     8    3   46 1   
     9    4    5 1   
    10    4   47 1   
    11    4   48 1   
    12    5    6 1   
    13    6    7 1   
    14    6   49 1   
    15    6   50 1   
    16    7    8 1   
    17    7   51 1   
    18    7   52 1   
    19    8    9 1   
    20    9   10 1   
    21    9   53 1   
    22    9   54 1   
    23   10   11 1   
    24   10   55 1   
    25   10   56 1   
    26   11   12 1   
    27   12   13 1   
    28   12   57 1   
    29   12   58 1   
    30   13   14 1   
    31   13   59 1   
    32   13   60 1   
    33   14   15 1   
    34   15   16 1   
    35   15   61 1   
    36   15   62 1   
    37   16   17 1   
    38   16   18 1   
    39   17   20 1   
    40   18   19 1   
    41   19   20 1   
    42   21   22 1   
    43   21   64 1   
    44   21   65 1   
    45   22   23 1   
    46   22   66 1   
    47   22   67 1   
    48   23   24 1   
    49   23   68 1   
    50   23   69 1   
    51   24   25 1   
    52   24   70 1   
    53   24   71 1   
    54   25   26 1   
    55   25   29 1   
    56   25   72 1   
    57   26   27 1   
    58   26   28 1   
    59   29   30 1   
    60   29   73 1   
    61   30   31 1   
    62   30   32 1   
    63   32   33 1   
    64   32   74 1   
    65   33   34 1   
    66   33   37 1   
    67   33   75 1   
    68   34   35 1   
    69   34   36 1   
    70   37   38 1   
    71   37   76 1   
    72   37   77 1   
    73   38   39 1   
    74   38   78 1   
    75   38   79 1   
    76   39   40 1   
    77   39   41 1   
@<TRIPOS>SUBSTRUCTURE
     1 OKD         1 TEMP              0 ****  ****    0 ROOT
