@<TRIPOS>MOLECULE
OKD
   81    81     1     0     0
SMALL
bcc


@<TRIPOS>ATOM
      1 CAA        -0.6210   -0.4490   -2.1880 c3        1 OKD      0.117700
      2 OBC        -0.1970    0.6500   -1.4030 os        1 OKD     -0.425600
      3 CAL         1.1290    1.0710   -1.7210 c3        1 OKD      0.123400
      4 CAM         1.5050    2.1370   -0.6980 c3        1 OKD      0.128400
      5 OBD         2.5190    1.5660    0.1260 os        1 OKD     -0.429600
      6 CAN         2.8900    2.4270    1.2010 c3        1 OKD      0.127400
      7 CAO         4.1280    1.8100    1.8440 c3        1 OKD      0.128400
      8 OBE         5.2270    2.6430    1.4840 os        1 OKD     -0.427600
      9 CAP         6.4780    2.0970    1.9000 c3        1 OKD      0.127400
     10 CAQ         7.5300    3.1670    1.6290 c3        1 OKD      0.129400
     11 OBF         7.9370    3.6630    2.9030 os        1 OKD     -0.433600
     12 CAR         8.8770    4.7300    2.7830 c3        1 OKD      0.126400
     13 CAS         9.2480    5.1220    4.2110 c3        1 OKD      0.131400
     14 OBG        10.3890    5.9660    4.0910 os        1 OKD     -0.425600
     15 CAX        10.8450    6.4230    5.3690 c3        1 OKD      0.129100
     16 CBL        12.0530    7.2410    5.1380 cc        1 OKD      0.213600
     17 CAI        12.7440    7.5030    3.9390 cd        1 OKD     -0.175600
     18 NAY        12.7480    7.9260    6.1660 nc        1 OKD     -0.369000
     19 NAZ        13.7460    8.5370    5.6680 nd        1 OKD     -0.185800
     20 NBO        13.8070    8.3220    4.3330 na        1 OKD      0.063400
     21 CAW        14.8090    8.8660    3.4320 c3        1 OKD      0.029300
     22 CAK        14.8480   10.3930    3.3840 c3        1 OKD     -0.080400
     23 CAJ        15.7290   10.8160    2.2260 c3        1 OKD     -0.102400
     24 CB         15.8890   12.3170    2.1690 c3        1 OKD     -0.095400
     25 CA         16.2920   12.8480    0.8030 c3        1 OKD     -0.048500
     26 C          16.3750   14.4450    0.9040 c         1 OKD      0.932600
     27 OXT        15.3180   15.0100    1.2380 o         1 OKD     -0.773300
     28 O          17.4980   14.9500    0.6330 o         1 OKD     -0.773300
     29 N          17.6070   12.3170    0.3090 ny        1 OKD     -0.649800
     30 CBK        17.4680   11.3360   -0.8350 c         1 OKD      0.611100
     31 OAE        17.4970   11.8470   -1.9670 o         1 OKD     -0.543100
     32 NBB        17.4680    9.9880   -0.5520 ns        1 OKD     -0.484900
     33 CBN        16.8270    9.0680   -1.4960 c3        1 OKD     -0.085300
     34 CBJ        15.7700    8.1480   -0.7540 c         1 OKD      0.922600
     35 OAH        15.1270    7.3580   -1.4790 o         1 OKD     -0.809800
     36 OAD        15.6550    8.2910    0.4960 o         1 OKD     -0.809800
     37 CAV        17.8290    8.1590   -2.2060 c3        1 OKD     -0.077400
     38 CAT        18.6920    8.8950   -3.2130 c3        1 OKD     -0.185400
     39 CBH        20.1580    8.6800   -3.0030 c         1 OKD      0.631100
     40 OAF        20.9940    8.3670   -3.8530 o         1 OKD     -0.514000
     41 OAB        20.7020    8.8700   -1.7610 oh        1 OKD     -0.596100
     42 HAA1       -0.6180   -0.1840   -3.2740 h1        1 OKD      0.031700
     43 HAA2        0.0350   -1.3370   -2.0120 h1        1 OKD      0.031700
     44 HAA3       -1.6630   -0.6580   -1.8380 h1        1 OKD      0.031700
     45 HAL1        1.8350    0.2000   -1.6670 h1        1 OKD      0.042700
     46 HAL2        1.1390    1.4990   -2.7570 h1        1 OKD      0.042700
     47 HAM1        1.9130    3.0470   -1.2110 h1        1 OKD      0.043200
     48 HAM2        0.6160    2.4230   -0.0740 h1        1 OKD      0.043200
     49 HAN1        2.0460    2.4750    1.9390 h1        1 OKD      0.043700
     50 HAN2        3.1140    3.4580    0.8170 h1        1 OKD      0.043700
     51 HAO1        4.2930    0.7650    1.4700 h1        1 OKD      0.041700
     52 HAO2        4.0230    1.7990    2.9610 h1        1 OKD      0.041700
     53 HAP1        6.6930    1.1740    1.3000 h1        1 OKD      0.041700
     54 HAP2        6.4450    1.8390    2.9920 h1        1 OKD      0.041700
     55 HAQ1        8.4160    2.7210    1.1040 h1        1 OKD      0.046200
     56 HAQ2        7.1040    4.0000    1.0090 h1        1 OKD      0.046200
     57 HAR1        8.4090    5.5930    2.2420 h1        1 OKD      0.046200
     58 HAR2        9.7840    4.3850    2.2200 h1        1 OKD      0.046200
     59 HAS1        8.4070    5.6740    4.7050 h1        1 OKD      0.037200
     60 HAS2        9.5010    4.2130    4.8180 h1        1 OKD      0.037200
     61 HAX1       11.0820    5.5370    6.0210 h1        1 OKD      0.039700
     62 HAX2       10.0340    7.0330    5.8560 h1        1 OKD      0.039700
     63 HAI        12.5710    7.1810    2.9120 h4        1 OKD      0.212000
     64 HAW1       15.8180    8.4830    3.7590 h1        1 OKD      0.097700
     65 HAW2       14.5990    8.4560    2.3970 h1        1 OKD      0.097700
     66 HAK1       15.2450   10.8020    4.3480 hc        1 OKD      0.053200
     67 HAK2       13.8170   10.8100    3.2400 hc        1 OKD      0.053200
     68 HAJ1       16.7340   10.3260    2.3410 hc        1 OKD      0.053200
     69 HAJ2       15.2760   10.4260    1.2730 hc        1 OKD      0.053200
     70 HB1C       16.6250   12.6560    2.9460 hc        1 OKD      0.078200
     71 HB2C       14.9120   12.8250    2.4070 hc        1 OKD      0.078200
     72 HA         15.5090   12.6000    0.0350 hx        1 OKD      0.100700
     73 H          18.1260   11.9180    1.0890 hn        1 OKD      0.460800
     74 HBB        17.2690    9.7110    0.4020 hn        1 OKD      0.339500
     75 HBN        16.2610    9.6570   -2.2730 h1        1 OKD      0.077700
     76 HAV1       17.2120    7.3800   -2.7340 hc        1 OKD      0.074700
     77 HAV2       18.4590    7.6160   -1.4540 hc        1 OKD      0.074700
     78 HAT1       18.5010   10.0040   -3.1700 hc        1 OKD      0.086700
     79 HAT2       18.4370    8.5570   -4.2530 hc        1 OKD      0.086700
     80 H2         18.1250   13.1590   -0.0450 hn        1 OKD      0.460800
     81 HBB2       20.0000    9.0850   -1.1300 ho        1 OKD      0.431000
@<TRIPOS>BOND
     1    1    2 1   
     2    1   42 1   
     3    1   43 1   
     4    1   44 1   
     5    2    3 1   
     6    3    4 1   
     7    3   45 1   
     8    3   46 1   
     9    4    5 1   
    10    4   47 1   
    11    4   48 1   
    12    5    6 1   
    13    6    7 1   
    14    6   49 1   
    15    6   50 1   
    16    7    8 1   
    17    7   51 1   
    18    7   52 1   
    19    8    9 1   
    20    9   10 1   
    21    9   53 1   
    22    9   54 1   
    23   10   11 1   
    24   10   55 1   
    25   10   56 1   
    26   11   12 1   
    27   12   13 1   
    28   12   57 1   
    29   12   58 1   
    30   13   14 1   
    31   13   59 1   
    32   13   60 1   
    33   14   15 1   
    34   15   16 1   
    35   15   61 1   
    36   15   62 1   
    37   16   17 2   
    38   16   18 1   
    39   17   20 1   
    40   17   63 1   
    41   18   19 2   
    42   19   20 1   
    43   20   21 1   
    44   21   22 1   
    45   21   64 1   
    46   21   65 1   
    47   22   23 1   
    48   22   66 1   
    49   22   67 1   
    50   23   24 1   
    51   23   68 1   
    52   23   69 1   
    53   24   25 1   
    54   24   70 1   
    55   24   71 1   
    56   25   26 1   
    57   25   29 1   
    58   25   72 1   
    59   26   27 1   
    60   26   28 1   
    61   29   30 1   
    62   29   73 1   
    63   29   80 1   
    64   30   31 2   
    65   30   32 1   
    66   32   33 1   
    67   32   74 1   
    68   33   34 1   
    69   33   37 1   
    70   33   75 1   
    71   34   35 1   
    72   34   36 1   
    73   37   38 1   
    74   37   76 1   
    75   37   77 1   
    76   38   39 1   
    77   38   78 1   
    78   38   79 1   
    79   39   40 2   
    80   39   41 1   
    81   41   81 1   
@<TRIPOS>SUBSTRUCTURE
     1 OKD         1 TEMP              0 ****  ****    0 ROOT
