@<TRIPOS>MOLECULE
OKH
   67    71     1     0     0
SMALL
bcc


@<TRIPOS>ATOM
      1 C1         -0.4460    0.9260    0.9810 ca        1 OKH     -0.097000
      2 C2          0.8950    1.3570    0.8780 ca        1 OKH     -0.160600
      3 C3          1.8450    1.0270    1.8410 ca        1 OKH     -0.090000
      4 C4         -0.8900    0.1840    2.0630 ca        1 OKH     -0.082000
      5 C5          0.0330   -0.1530    3.0640 ca        1 OKH      0.088400
      6 C6          1.4190    0.2610    2.9300 ca        1 OKH     -0.075200
      7 N7          2.0850   -0.2330    4.0660 na        1 OKH     -0.160300
      8 C8          1.0910   -0.8940    4.8430 cc        1 OKH      0.474400
      9 N9         -0.1300   -0.8620    4.2670 nd        1 OKH     -0.548100
     10 C10         1.3700   -1.5150    6.1440 ca        1 OKH     -0.125900
     11 C11         3.4730   -0.0660    4.4020 c3        1 OKH     -0.005000
     12 C12         3.7860    1.4480    4.6110 c         1 OKH      0.650100
     13 C13         4.4770   -0.6140    3.3620 c3        1 OKH     -0.070700
     14 O14         4.0410    2.1820    3.6360 o         1 OKH     -0.614100
     15 N15         3.7670    1.9100    5.9010 ns        1 OKH     -0.555900
     16 C16         4.0080    3.2970    6.2460 c3        1 OKH      0.095700
     17 C17         1.2710    2.1650   -0.2980 c         1 OKH      0.641700
     18 O18         0.7740    2.1020   -1.4240 o         1 OKH     -0.491000
     19 O19         2.2580    3.1060   -0.1960 oh        1 OKH     -0.581100
     20 C20         0.6840   -1.0580    7.2770 ca        1 OKH     -0.093000
     21 C21         0.9140   -1.6490    8.5170 ca        1 OKH     -0.130500
     22 C22         1.8270   -2.7040    8.6220 ca        1 OKH      0.030400
     23 C23         2.5010   -3.1770    7.4910 ca        1 OKH     -0.130500
     24 C24         2.2680   -2.5830    6.2530 ca        1 OKH     -0.093000
     25 C25         5.8920   -0.4570    3.9080 c3        1 OKH     -0.076900
     26 C26         6.9140   -0.9720    2.9150 c3        1 OKH     -0.076400
     27 C27         6.6440   -2.4150    2.5410 c3        1 OKH     -0.080400
     28 C28         5.2290   -2.5900    2.0290 c3        1 OKH     -0.076400
     29 C29         4.2120   -2.0740    3.0270 c3        1 OKH     -0.076900
     30 C30         5.1700    3.4450    7.2460 c3        1 OKH     -0.090400
     31 C31         5.4400    4.9090    7.5210 c3        1 OKH     -0.076400
     32 C32         4.2070    5.6110    8.0510 c3        1 OKH     -0.080400
     33 C33         3.0350    5.4390    7.1070 c3        1 OKH     -0.076400
     34 C34         2.7560    3.9770    6.8290 c3        1 OKH     -0.090400
     35 Cl35        2.1130   -3.4230   10.1330 cl        1 OKH     -0.079400
     36 H1         -1.1440    1.1950    0.1700 ha        1 OKH      0.159000
     37 H3          2.8930    1.3610    1.7650 ha        1 OKH      0.167000
     38 H4         -1.9380   -0.1380    2.1420 ha        1 OKH      0.157000
     39 H11         3.6470   -0.6340    5.3680 h1        1 OKH      0.081700
     40 H13         4.3870   -0.0000    2.4210 hc        1 OKH      0.081700
     41 HN15        2.5770    3.1640    0.7160 ho        1 OKH      0.435000
     42 H16         4.2920    3.8400    5.2930 h1        1 OKH      0.091700
     43 H20        -0.0480   -0.2390    7.1840 ha        1 OKH      0.153500
     44 H21         0.3730   -1.2900    9.4060 ha        1 OKH      0.155000
     45 H23         3.2050   -4.0190    7.5740 ha        1 OKH      0.155000
     46 H24         2.7790   -2.9670    5.3560 ha        1 OKH      0.153500
     47 H25         5.9890   -1.0210    4.8720 hc        1 OKH      0.044950
     48 H25A        6.0950    0.6260    4.1190 hc        1 OKH      0.044950
     49 H26         6.8900   -0.3350    1.9910 hc        1 OKH      0.046700
     50 H26A        7.9390   -0.8840    3.3600 hc        1 OKH      0.046700
     51 H27         6.8020   -3.0700    3.4370 hc        1 OKH      0.041700
     52 H27A        7.3710   -2.7410    1.7530 hc        1 OKH      0.041700
     53 H28         5.1110   -2.0410    1.0580 hc        1 OKH      0.046700
     54 H28A        5.0320   -3.6750    1.8290 hc        1 OKH      0.046700
     55 H29         3.1840   -2.1960    2.5980 hc        1 OKH      0.044950
     56 H29A        4.2690   -2.6880    3.9640 hc        1 OKH      0.044950
     57 H30         4.9160    2.9210    8.2040 hc        1 OKH      0.045200
     58 H30A        6.0940    2.9680    6.8290 hc        1 OKH      0.045200
     59 H31         6.2720    4.9960    8.2680 hc        1 OKH      0.045950
     60 H31A        5.7810    5.4110    6.5780 hc        1 OKH      0.045950
     61 H32         4.4240    6.7030    8.1840 hc        1 OKH      0.043200
     62 H32A        3.9420    5.1940    9.0580 hc        1 OKH      0.043200
     63 H33         3.2500    5.9690    6.1420 hc        1 OKH      0.045950
     64 H33A        2.1200    5.9100    7.5530 hc        1 OKH      0.045950
     65 H34         1.9050    3.8920    6.1050 hc        1 OKH      0.045200
     66 H34A        2.4510    3.4640    7.7780 hc        1 OKH      0.045200
     67 H152        3.5030    1.3020    6.6380 hn        1 OKH      0.312500
@<TRIPOS>BOND
     1    1    2 ar  
     2    1    4 ar  
     3    1   36 1   
     4    2    3 ar  
     5    2   17 1   
     6    3    6 ar  
     7    3   37 1   
     8    4    5 ar  
     9    4   38 1   
    10    5    6 ar  
    11    5    9 1   
    12    6    7 1   
    13    7    8 1   
    14    7   11 1   
    15    8    9 2   
    16    8   10 1   
    17   10   20 ar  
    18   10   24 ar  
    19   11   12 1   
    20   11   13 1   
    21   11   39 1   
    22   12   14 2   
    23   12   15 1   
    24   13   25 1   
    25   13   29 1   
    26   13   40 1   
    27   15   16 1   
    28   15   67 1   
    29   16   30 1   
    30   16   34 1   
    31   16   42 1   
    32   17   18 2   
    33   17   19 1   
    34   19   41 1   
    35   20   21 ar  
    36   20   43 1   
    37   21   22 ar  
    38   21   44 1   
    39   22   23 ar  
    40   22   35 1   
    41   23   24 ar  
    42   23   45 1   
    43   24   46 1   
    44   25   26 1   
    45   25   47 1   
    46   25   48 1   
    47   26   27 1   
    48   26   49 1   
    49   26   50 1   
    50   27   28 1   
    51   27   51 1   
    52   27   52 1   
    53   28   29 1   
    54   28   53 1   
    55   28   54 1   
    56   29   55 1   
    57   29   56 1   
    58   30   31 1   
    59   30   57 1   
    60   30   58 1   
    61   31   32 1   
    62   31   59 1   
    63   31   60 1   
    64   32   33 1   
    65   32   61 1   
    66   32   62 1   
    67   33   34 1   
    68   33   63 1   
    69   33   64 1   
    70   34   65 1   
    71   34   66 1   
@<TRIPOS>SUBSTRUCTURE
     1 OKH         1 TEMP              0 ****  ****    0 ROOT
