@<TRIPOS>MOLECULE
OKH
   66    70     1     0     0
SMALL
bcc


@<TRIPOS>ATOM
      1 C1         -1.7860   -2.6480    2.4330 ca        1 OKH     -0.119000
      2 C2         -2.1490   -1.2930    2.2870 ca        1 OKH     -0.100600
      3 C3         -1.6780   -0.5360    1.2200 ca        1 OKH     -0.145000
      4 C4         -0.9420   -3.2810    1.5370 ca        1 OKH     -0.103000
      5 C5         -0.4290   -2.5370    0.4620 ca        1 OKH      0.041400
      6 C6         -0.8020   -1.1430    0.3120 ca        1 OKH     -0.086200
      7 N7         -0.1580   -0.6870   -0.8590 na        1 OKH     -0.163300
      8 C8          0.5990   -1.8040   -1.3370 cc        1 OKH      0.423400
      9 N9          0.4390   -2.9090   -0.5820 nd        1 OKH     -0.553100
     10 C10         1.4030   -1.7610   -2.5630 ca        1 OKH     -0.083900
     11 C11         0.0810    0.6730   -1.2490 c3        1 OKH     -0.007000
     12 C12         1.1110    1.4150   -0.3470 c         1 OKH      0.641100
     13 C13        -1.1810    1.5580   -1.3710 c3        1 OKH     -0.069700
     14 O14         2.0810    1.9850   -0.8930 o         1 OKH     -0.639100
     15 N15         0.8990    1.4440    1.0030 n         1 OKH     -0.550900
     16 C16         1.8040    2.0910    1.9290 c3        1 OKH      0.103700
     17 C17        -3.0600   -0.6330    3.3190 c         1 OKH      0.907200
     18 O18        -3.5900   -1.3690    4.1950 o         1 OKH     -0.823300
     19 O19        -3.2180    0.6180    3.2370 o         1 OKH     -0.823300
     20 C20         2.7320   -2.2030   -2.5300 ca        1 OKH     -0.094500
     21 C21         3.4990   -2.2020   -3.6930 ca        1 OKH     -0.131000
     22 C22         2.9320   -1.7620   -4.8930 ca        1 OKH      0.021400
     23 C23         1.6050   -1.3260   -4.9370 ca        1 OKH     -0.131000
     24 C24         0.8420   -1.3290   -3.7710 ca        1 OKH     -0.094500
     25 C25        -0.7970    2.8590   -2.0690 c3        1 OKH     -0.075400
     26 C26        -2.0000    3.7670   -2.2210 c3        1 OKH     -0.077400
     27 C27        -3.1110    3.0760   -2.9840 c3        1 OKH     -0.076400
     28 C28        -3.4900    1.7680   -2.3210 c3        1 OKH     -0.077400
     29 C29        -2.2900    0.8580   -2.1430 c3        1 OKH     -0.075400
     30 C30         2.5130    1.0800    2.8490 c3        1 OKH     -0.095900
     31 C31         3.4910    1.7910    3.7600 c3        1 OKH     -0.072400
     32 C32         2.8000    2.8510    4.5930 c3        1 OKH     -0.079400
     33 C33         2.0600    3.8350    3.7120 c3        1 OKH     -0.072400
     34 C34         1.0770    3.1320    2.8000 c3        1 OKH     -0.095900
     35 CL35        3.8670   -1.7610   -6.3170 cl        1 OKH     -0.114400
     36 H1         -2.2100   -3.1910    3.2940 ha        1 OKH      0.160000
     37 H3         -2.0170    0.5070    1.1260 ha        1 OKH      0.160000
     38 H4         -0.6730   -4.3400    1.6510 ha        1 OKH      0.128000
     39 H11         0.5700    0.6370   -2.2750 h1        1 OKH      0.092700
     40 H13        -1.5650    1.8030   -0.3420 hc        1 OKH      0.077700
     41 HN15        0.1290    0.9540    1.4030 hn        1 OKH      0.341500
     42 H16         2.5950    2.6270    1.3200 h1        1 OKH      0.075700
     43 H20         3.1670   -2.5550   -1.5820 ha        1 OKH      0.152000
     44 H21         4.5430   -2.5460   -3.6630 ha        1 OKH      0.143000
     45 H23         1.1620   -0.9850   -5.8840 ha        1 OKH      0.143000
     46 H24        -0.2080   -0.9970   -3.8030 ha        1 OKH      0.152000
     47 H25         0.0020    3.3820   -1.4810 hc        1 OKH      0.048700
     48 H25A       -0.3710    2.6300   -3.0810 hc        1 OKH      0.048700
     49 H26        -2.3730    4.0680   -1.2070 hc        1 OKH      0.042950
     50 H26A       -1.6950    4.7010   -2.7610 hc        1 OKH      0.042950
     51 H27        -4.0080    3.7460   -3.0330 hc        1 OKH      0.031700
     52 H27A       -2.7780    2.8810   -4.0370 hc        1 OKH      0.031700
     53 H28        -3.9470    1.9760   -1.3180 hc        1 OKH      0.042950
     54 H28A       -4.2620    1.2420   -2.9410 hc        1 OKH      0.042950
     55 H29        -1.9030    0.5370   -3.1440 hc        1 OKH      0.048700
     56 H29A       -2.6180   -0.0610   -1.5880 hc        1 OKH      0.048700
     57 H30         1.7530    0.5310    3.4650 hc        1 OKH      0.055200
     58 H30A        3.0620    0.3240    2.2300 hc        1 OKH      0.055200
     59 H31         3.9790    1.0410    4.4360 hc        1 OKH      0.034950
     60 H31A        4.3000    2.2660    3.1440 hc        1 OKH      0.034950
     61 H32         2.0760    2.3610    5.2950 hc        1 OKH      0.038200
     62 H32A        3.5580    3.3960    5.2140 hc        1 OKH      0.038200
     63 H33         1.5070    4.5700    4.3530 hc        1 OKH      0.034950
     64 H33A        2.7970    4.4140    3.0950 hc        1 OKH      0.034950
     65 H34         0.5710    3.8880    2.1460 hc        1 OKH      0.055200
     66 H34A        0.2840    2.6270    3.4130 hc        1 OKH      0.055200
@<TRIPOS>BOND
     1    1    2 ar  
     2    1    4 ar  
     3    1   36 1   
     4    2    3 ar  
     5    2   17 1   
     6    3    6 ar  
     7    3   37 1   
     8    4    5 ar  
     9    4   38 1   
    10    5    6 ar  
    11    5    9 1   
    12    6    7 1   
    13    7    8 1   
    14    7   11 1   
    15    8    9 2   
    16    8   10 1   
    17   10   20 ar  
    18   10   24 ar  
    19   11   12 1   
    20   11   13 1   
    21   11   39 1   
    22   12   14 2   
    23   12   15 1   
    24   13   25 1   
    25   13   29 1   
    26   13   40 1   
    27   15   16 1   
    28   15   41 1   
    29   16   30 1   
    30   16   34 1   
    31   16   42 1   
    32   17   18 1   
    33   17   19 1   
    34   20   21 ar  
    35   20   43 1   
    36   21   22 ar  
    37   21   44 1   
    38   22   23 ar  
    39   22   35 1   
    40   23   24 ar  
    41   23   45 1   
    42   24   46 1   
    43   25   26 1   
    44   25   47 1   
    45   25   48 1   
    46   26   27 1   
    47   26   49 1   
    48   26   50 1   
    49   27   28 1   
    50   27   51 1   
    51   27   52 1   
    52   28   29 1   
    53   28   53 1   
    54   28   54 1   
    55   29   55 1   
    56   29   56 1   
    57   30   31 1   
    58   30   57 1   
    59   30   58 1   
    60   31   32 1   
    61   31   59 1   
    62   31   60 1   
    63   32   33 1   
    64   32   61 1   
    65   32   62 1   
    66   33   34 1   
    67   33   63 1   
    68   33   64 1   
    69   34   65 1   
    70   34   66 1   
@<TRIPOS>SUBSTRUCTURE
     1 OKH         1 TEMP              0 ****  ****    0 ROOT
