@<TRIPOS>MOLECULE
OKH
   67    71     1     0     0
SMALL
bcc


@<TRIPOS>ATOM
      1 C1         -0.4440    1.6260    2.6690 ca        1 OKH     -0.119000
      2 C2          0.8610    1.7580    2.1660 ca        1 OKH     -0.108600
      3 C3          1.8530    0.8380    2.5050 ca        1 OKH     -0.164000
      4 C4         -0.7570    0.6930    3.6550 ca        1 OKH     -0.073000
      5 C5          0.2900   -0.0630    4.2050 ca        1 OKH      0.047400
      6 C6          1.6010    0.0230    3.6040 ca        1 OKH     -0.127200
      7 N7          2.4980   -0.6720    4.4460 na        1 OKH     -0.177300
      8 C8          1.6760   -1.1520    5.5340 cc        1 OKH      0.452400
      9 N9          0.3760   -0.8480    5.3790 nd        1 OKH     -0.522100
     10 C10         2.2320   -1.9460    6.6340 ca        1 OKH     -0.127900
     11 C11         3.8720   -0.2930    4.5400 c3        1 OKH      0.011000
     12 C12         4.1640    1.2160    4.8180 c         1 OKH      0.508100
     13 C13         4.7510   -0.6590    3.3050 c3        1 OKH     -0.063700
     14 O14         5.2540    1.5560    5.2730 o         1 OKH     -0.467100
     15 N15         3.1780    2.2890    4.5310 n4        1 OKH     -0.697800
     16 C16         3.4370    3.5580    5.2990 c3        1 OKH      0.135500
     17 C17         1.3920    3.0240    1.5180 c         1 OKH      0.917200
     18 O18         0.7850    3.6240    0.6150 o         1 OKH     -0.795300
     19 O19         2.5000    3.4240    2.0410 o         1 OKH     -0.795300
     20 C20         1.7520   -1.7440    7.9350 ca        1 OKH     -0.094000
     21 C21         2.2560   -2.5010    8.9910 ca        1 OKH     -0.129000
     22 C22         3.2380   -3.4670    8.7450 ca        1 OKH      0.032400
     23 C23         3.7090   -3.6850    7.4450 ca        1 OKH     -0.129000
     24 C24         3.2030   -2.9260    6.3920 ca        1 OKH     -0.094000
     25 C25         6.1680   -0.9550    3.7860 c3        1 OKH     -0.078400
     26 C26         7.0790   -1.2740    2.6180 c3        1 OKH     -0.077900
     27 C27         6.5490   -2.4420    1.8150 c3        1 OKH     -0.081400
     28 C28         5.1290   -2.1860    1.3590 c3        1 OKH     -0.077900
     29 C29         4.2140   -1.8470    2.5200 c3        1 OKH     -0.078400
     30 C30         3.2350    3.3680    6.8070 c3        1 OKH     -0.104400
     31 C31         3.5710    4.6560    7.5320 c3        1 OKH     -0.073900
     32 C32         2.7400    5.8150    7.0210 c3        1 OKH     -0.087400
     33 C33         2.8810    5.9730    5.5220 c3        1 OKH     -0.073900
     34 C34         2.5360    4.6920    4.7920 c3        1 OKH     -0.104400
     35 CL35        3.8570   -4.3860   10.0290 cl        1 OKH     -0.076400
     36 H1         -1.2220    2.3060    2.2830 ha        1 OKH      0.166000
     37 H3          2.8220    0.8490    1.9830 ha        1 OKH      0.158000
     38 H4         -1.7820    0.5850    4.0350 ha        1 OKH      0.154000
     39 H11         4.3010   -0.8290    5.4480 h1        1 OKH      0.116700
     40 H13         4.7820    0.2300    2.6120 hc        1 OKH      0.066700
     41 HN15        2.2350    1.9630    4.7630 hn        1 OKH      0.498800
     42 H16         4.5170    3.8330    5.1030 hx        1 OKH      0.107700
     43 H20         0.9660   -0.9960    8.1260 ha        1 OKH      0.153000
     44 H21         1.8770   -2.3410   10.0120 ha        1 OKH      0.155500
     45 H23         4.4690   -4.4570    7.2510 ha        1 OKH      0.155500
     46 H24         3.5570   -3.1180    5.3660 ha        1 OKH      0.153000
     47 H25         6.1470   -1.8280    4.4900 hc        1 OKH      0.053700
     48 H25A        6.5750   -0.0720    4.3470 hc        1 OKH      0.053700
     49 H26         8.1040   -1.5130    3.0060 hc        1 OKH      0.050200
     50 H26A        7.1710   -0.3730    1.9560 hc        1 OKH      0.050200
     51 H27         7.2050   -2.6150    0.9230 hc        1 OKH      0.045200
     52 H27A        6.5800   -3.3730    2.4410 hc        1 OKH      0.045200
     53 H28         5.1200   -1.3410    0.6200 hc        1 OKH      0.050200
     54 H28A        4.7310   -3.0940    0.8350 hc        1 OKH      0.050200
     55 H29         4.1190   -2.7340    3.1990 hc        1 OKH      0.053700
     56 H29A        3.1940   -1.6130    2.1130 hc        1 OKH      0.053700
     57 H30         3.8990    2.5470    7.1840 hc        1 OKH      0.072450
     58 H30A        2.1710    3.0860    7.0190 hc        1 OKH      0.072450
     59 H31         4.6610    4.8870    7.3990 hc        1 OKH      0.054700
     60 H31A        3.3880    4.5130    8.6290 hc        1 OKH      0.054700
     61 H32         3.0650    6.7590    7.5310 hc        1 OKH      0.050200
     62 H32A        1.6620    5.6460    7.2810 hc        1 OKH      0.050200
     63 H33         3.9310    6.2790    5.2710 hc        1 OKH      0.054700
     64 H33A        2.1980    6.7860    5.1610 hc        1 OKH      0.054700
     65 H34         2.6690    4.8350    3.6800 hc        1 OKH      0.072450
     66 H34A        1.4600    4.4310    4.9720 hc        1 OKH      0.072450
     67 H152        3.1460    2.5520    3.4710 hn        1 OKH      0.498800
@<TRIPOS>BOND
     1    1    2 ar  
     2    1    4 ar  
     3    1   36 1   
     4    2    3 ar  
     5    2   17 1   
     6    3    6 ar  
     7    3   37 1   
     8    4    5 ar  
     9    4   38 1   
    10    5    6 ar  
    11    5    9 1   
    12    6    7 1   
    13    7    8 1   
    14    7   11 1   
    15    8    9 2   
    16    8   10 1   
    17   10   20 ar  
    18   10   24 ar  
    19   11   12 1   
    20   11   13 1   
    21   11   39 1   
    22   12   14 2   
    23   12   15 1   
    24   13   25 1   
    25   13   29 1   
    26   13   40 1   
    27   15   16 1   
    28   15   41 1   
    29   15   67 1   
    30   16   30 1   
    31   16   34 1   
    32   16   42 1   
    33   17   18 1   
    34   17   19 1   
    35   20   21 ar  
    36   20   43 1   
    37   21   22 ar  
    38   21   44 1   
    39   22   23 ar  
    40   22   35 1   
    41   23   24 ar  
    42   23   45 1   
    43   24   46 1   
    44   25   26 1   
    45   25   47 1   
    46   25   48 1   
    47   26   27 1   
    48   26   49 1   
    49   26   50 1   
    50   27   28 1   
    51   27   51 1   
    52   27   52 1   
    53   28   29 1   
    54   28   53 1   
    55   28   54 1   
    56   29   55 1   
    57   29   56 1   
    58   30   31 1   
    59   30   57 1   
    60   30   58 1   
    61   31   32 1   
    62   31   59 1   
    63   31   60 1   
    64   32   33 1   
    65   32   61 1   
    66   32   62 1   
    67   33   34 1   
    68   33   63 1   
    69   33   64 1   
    70   34   65 1   
    71   34   66 1   
@<TRIPOS>SUBSTRUCTURE
     1 OKH         1 TEMP              0 ****  ****    0 ROOT
