@<TRIPOS>MOLECULE
OKH
   67    71     1     0     0
SMALL
bcc


@<TRIPOS>ATOM
      1 C1         -0.6810    1.3620    2.3620 ca        1 OKH     -0.098000
      2 C2          0.6510    1.6700    2.0210 ca        1 OKH     -0.157600
      3 C3          1.7310    1.1150    2.7070 ca        1 OKH     -0.119000
      4 C4         -0.9800    0.5020    3.4070 ca        1 OKH     -0.074000
      5 C5          0.0780   -0.0660    4.1280 ca        1 OKH      0.095400
      6 C6          1.4540    0.2500    3.7690 ca        1 OKH     -0.086200
      7 N7          2.2650   -0.4900    4.6470 na        1 OKH     -0.160300
      8 C8          1.3670   -1.2060    5.4940 cc        1 OKH      0.493400
      9 N9          0.0700   -0.9710    5.2040 nd        1 OKH     -0.552100
     10 C10         1.8210   -2.1230    6.5480 ca        1 OKH     -0.128900
     11 C11         3.6890   -0.4160    4.8300 c3        1 OKH     -0.020000
     12 C12         4.1480    0.8430    5.6190 c         1 OKH      0.641100
     13 C13         4.5430   -0.5220    3.5450 c3        1 OKH     -0.064700
     14 O14         4.9740    0.6970    6.5400 o         1 OKH     -0.598100
     15 N15         3.6750    2.0750    5.2380 n         1 OKH     -0.556900
     16 C16         3.9960    3.2870    5.9660 c3        1 OKH      0.091700
     17 C17         0.8800    2.5820    0.8830 c         1 OKH      0.638700
     18 O18         0.1910    2.6870   -0.1320 o         1 OKH     -0.478000
     19 O19         1.9500    3.4360    0.9000 oh        1 OKH     -0.579100
     20 C20         1.4150   -1.9030    7.8700 ca        1 OKH     -0.086000
     21 C21         1.8120   -2.7830    8.8750 ca        1 OKH     -0.127000
     22 C22         2.6070   -3.8870    8.5530 ca        1 OKH      0.036400
     23 C23         3.0050   -4.1180    7.2310 ca        1 OKH     -0.127000
     24 C24         2.6100   -3.2350    6.2300 ca        1 OKH     -0.086000
     25 C25         5.9940   -0.7760    3.9460 c3        1 OKH     -0.079400
     26 C26         6.8810   -0.8890    2.7240 c3        1 OKH     -0.076400
     27 C27         6.3990   -1.9860    1.7980 c3        1 OKH     -0.080400
     28 C28         4.9520   -1.7710    1.4100 c3        1 OKH     -0.076400
     29 C29         4.0560   -1.6330    2.6250 c3        1 OKH     -0.079400
     30 C30         2.8160    3.8000    6.8110 c3        1 OKH     -0.089900
     31 C31         3.2240    5.0270    7.5970 c3        1 OKH     -0.075900
     32 C32         3.7280    6.1270    6.6860 c3        1 OKH     -0.080400
     33 C33         4.8610    5.6330    5.8110 c3        1 OKH     -0.075900
     34 C34         4.4570    4.4090    5.0180 c3        1 OKH     -0.089900
     35 CL35        3.0910   -4.9620    9.7750 cl        1 OKH     -0.080400
     36 H1         -1.4930    1.8120    1.7660 ha        1 OKH      0.161000
     37 H3          2.7650    1.3260    2.3950 ha        1 OKH      0.145000
     38 H4         -2.0220    0.2600    3.6660 ha        1 OKH      0.161000
     39 H11         3.9730   -1.2940    5.4960 h1        1 OKH      0.112700
     40 H13         4.4950    0.4540    2.9890 hc        1 OKH      0.054700
     41 HN15        2.9210    2.1360    4.5950 hn        1 OKH      0.309500
     42 H16         4.8510    3.0460    6.6690 h1        1 OKH      0.092700
     43 H20         0.7780   -1.0380    8.1150 ha        1 OKH      0.150000
     44 H21         1.4960   -2.6080    9.9150 ha        1 OKH      0.154500
     45 H23         3.6240   -4.9930    6.9810 ha        1 OKH      0.154500
     46 H24         2.9100   -3.4210    5.1860 ha        1 OKH      0.150000
     47 H25         6.3570    0.0570    4.6040 hc        1 OKH      0.051950
     48 H25A        6.0560   -1.7240    4.5420 hc        1 OKH      0.051950
     49 H26         7.9320   -1.1050    3.0510 hc        1 OKH      0.044950
     50 H26A        6.8930    0.0890    2.1750 hc        1 OKH      0.044950
     51 H27         7.0360   -2.0090    0.8760 hc        1 OKH      0.043700
     52 H27A        6.5080   -2.9800    2.3070 hc        1 OKH      0.043700
     53 H28         4.8680   -0.8470    0.7800 hc        1 OKH      0.044950
     54 H28A        4.5970   -2.6350    0.7890 hc        1 OKH      0.044950
     55 H29         3.0120   -1.4150    2.2770 hc        1 OKH      0.051950
     56 H29A        4.0330   -2.6000    3.1920 hc        1 OKH      0.051950
     57 H30         2.4810    2.9980    7.5200 hc        1 OKH      0.044200
     58 H30A        1.9500    4.0500    6.1440 hc        1 OKH      0.044200
     59 H31         4.0270    4.7510    8.3310 hc        1 OKH      0.045950
     60 H31A        2.3450    5.3990    8.1850 hc        1 OKH      0.045950
     61 H32         2.8880    6.4930    6.0400 hc        1 OKH      0.042700
     62 H32A        4.0800    6.9940    7.3030 hc        1 OKH      0.042700
     63 H33         5.7490    5.3880    6.4520 hc        1 OKH      0.045950
     64 H33A        5.1710    6.4460    5.1030 hc        1 OKH      0.045950
     65 H34         3.6280    4.6750    4.3110 hc        1 OKH      0.044200
     66 H34A        5.3290    4.0570    4.4070 hc        1 OKH      0.044200
     67 H152        2.4130    3.3740    1.7470 ho        1 OKH      0.423000
@<TRIPOS>BOND
     1    1    2 ar  
     2    1    4 ar  
     3    1   36 1   
     4    2    3 ar  
     5    2   17 1   
     6    3    6 ar  
     7    3   37 1   
     8    4    5 ar  
     9    4   38 1   
    10    5    6 ar  
    11    5    9 1   
    12    6    7 1   
    13    7    8 1   
    14    7   11 1   
    15    8    9 2   
    16    8   10 1   
    17   10   20 ar  
    18   10   24 ar  
    19   11   12 1   
    20   11   13 1   
    21   11   39 1   
    22   12   14 2   
    23   12   15 1   
    24   13   25 1   
    25   13   29 1   
    26   13   40 1   
    27   15   16 1   
    28   15   41 1   
    29   16   30 1   
    30   16   34 1   
    31   16   42 1   
    32   17   18 2   
    33   17   19 1   
    34   19   67 1   
    35   20   21 ar  
    36   20   43 1   
    37   21   22 ar  
    38   21   44 1   
    39   22   23 ar  
    40   22   35 1   
    41   23   24 ar  
    42   23   45 1   
    43   24   46 1   
    44   25   26 1   
    45   25   47 1   
    46   25   48 1   
    47   26   27 1   
    48   26   49 1   
    49   26   50 1   
    50   27   28 1   
    51   27   51 1   
    52   27   52 1   
    53   28   29 1   
    54   28   53 1   
    55   28   54 1   
    56   29   55 1   
    57   29   56 1   
    58   30   31 1   
    59   30   57 1   
    60   30   58 1   
    61   31   32 1   
    62   31   59 1   
    63   31   60 1   
    64   32   33 1   
    65   32   61 1   
    66   32   62 1   
    67   33   34 1   
    68   33   63 1   
    69   33   64 1   
    70   34   65 1   
    71   34   66 1   
@<TRIPOS>SUBSTRUCTURE
     1 OKH         1 TEMP              0 ****  ****    0 ROOT
