@<TRIPOS>MOLECULE
OKI
   64    68     1     0     0
SMALL
bcc


@<TRIPOS>ATOM
      1 C1          0.6460    1.7500   -0.3670 cc        1 OKI      0.454400
      2 N2          1.2170    0.5050    0.0310 na        1 OKI     -0.165300
      3 N3          1.0950    2.7880    0.3700 nd        1 OKI     -0.545100
      4 C4          0.2580   -1.7000    0.5030 c         1 OKI      0.647100
      5 C5          0.9640   -0.7860   -0.5460 c3        1 OKI     -0.005000
      6 C6          2.0740    0.7990    1.1050 ca        1 OKI     -0.064200
      7 C7          1.9960    2.2360    1.2990 ca        1 OKI      0.058400
      8 N8         -1.0950   -1.5160    0.6540 n         1 OKI     -0.556900
      9 C9         -0.3500    1.8730   -1.4390 ca        1 OKI     -0.117900
     10 O10         0.8970   -2.5550    1.1450 o         1 OKI     -0.602100
     11 C11         2.2090   -1.5320   -1.0800 c3        1 OKI     -0.068700
     12 C12        -1.6040    2.4200   -1.1390 ca        1 OKI     -0.096000
     13 C13        -0.0470    1.4980   -2.7520 ca        1 OKI     -0.096000
     14 C14        -2.2550    2.1780   -3.4500 ca        1 OKI      0.029400
     15 C15        -1.8770   -2.2280    1.6430 c3        1 OKI      0.095700
     16 C16        -2.5590    2.5700   -2.1420 ca        1 OKI     -0.130500
     17 C17        -0.9990    1.6470   -3.7590 ca        1 OKI     -0.130500
     18 CL18       -3.4190    2.3540   -4.6750 cl        1 OKI     -0.083400
     19 C19         2.8720   -0.0010    1.9330 ca        1 OKI     -0.126000
     20 C20         2.7580    2.8410    2.3100 ca        1 OKI     -0.071000
     21 C21         3.0760   -0.6520   -1.9660 c3        1 OKI     -0.075900
     22 C22         1.7470   -2.7590   -1.8600 c3        1 OKI     -0.075900
     23 C23        -3.1170   -2.8920    1.0180 c3        1 OKI     -0.090900
     24 C24        -2.3260   -1.3210    2.8030 c3        1 OKI     -0.090900
     25 C25         3.6060    0.6360    2.9220 ca        1 OKI     -0.113000
     26 C26         3.5550    2.0310    3.1030 ca        1 OKI     -0.152000
     27 C27         2.9300   -3.5370   -2.3970 c3        1 OKI     -0.075400
     28 C28         4.2620   -1.4290   -2.5040 c3        1 OKI     -0.075400
     29 C29        -3.0790   -2.1260    3.8400 c3        1 OKI     -0.075900
     30 C30        -3.8660   -3.6920    2.0620 c3        1 OKI     -0.075900
     31 C31         3.8210   -2.6660   -3.2570 c3        1 OKI     -0.079400
     32 C32        -4.2770   -2.8280    3.2360 c3        1 OKI     -0.080400
     33 H5          0.2650   -0.6270   -1.4250 h1        1 OKI      0.081700
     34 HN8        -1.5340   -0.7510    0.2010 hn        1 OKI      0.310500
     35 H11         2.8200   -1.8780   -0.1990 hc        1 OKI      0.084700
     36 H12        -1.8300    2.7450   -0.1110 ha        1 OKI      0.152500
     37 H13         0.9510    1.1020   -2.9980 ha        1 OKI      0.152500
     38 H15        -1.2190   -3.0450    2.0720 h1        1 OKI      0.090700
     39 H16        -3.5430    3.0020   -1.9050 ha        1 OKI      0.153500
     40 H17        -0.7570    1.3530   -4.7920 ha        1 OKI      0.153500
     41 H19         2.8930   -1.0950    1.8130 ha        1 OKI      0.159000
     42 H20         2.7130    3.9280    2.4620 ha        1 OKI      0.147000
     43 H21         2.4660   -0.2660   -2.8250 hc        1 OKI      0.045450
     44 H21A        3.4540    0.2310   -1.3880 hc        1 OKI      0.045450
     45 H22         1.1400   -3.4210   -1.1880 hc        1 OKI      0.045450
     46 H22A        1.0920   -2.4400   -2.7130 hc        1 OKI      0.045450
     47 H23        -3.7930   -2.1070    0.5890 hc        1 OKI      0.045700
     48 H23A       -2.8060   -3.5690    0.1810 hc        1 OKI      0.045700
     49 H24        -1.4310   -0.8430    3.2800 hc        1 OKI      0.045700
     50 H24A       -2.9840   -0.5010    2.4110 hc        1 OKI      0.045700
     51 H25         4.2440    0.0360    3.5880 ha        1 OKI      0.134000
     52 H26         4.1620    2.4840    3.9010 ha        1 OKI      0.133000
     53 H27         3.5250   -3.9490   -1.5390 hc        1 OKI      0.044450
     54 H27A        2.5590   -4.4080   -2.9980 hc        1 OKI      0.044450
     55 H28         4.8600   -0.7660   -3.1830 hc        1 OKI      0.044450
     56 H28A        4.9280   -1.7270   -1.6520 hc        1 OKI      0.044450
     57 H29        -2.3900   -2.8850    4.2960 hc        1 OKI      0.044200
     58 H29A       -3.4190   -1.4430    4.6620 hc        1 OKI      0.044200
     59 H30        -4.7770   -4.1490    1.5930 hc        1 OKI      0.044200
     60 H30A       -3.2180   -4.5330    2.4250 hc        1 OKI      0.044200
     61 H31         4.7210   -3.2500   -3.5810 hc        1 OKI      0.040200
     62 H31A        3.2660   -2.3620   -4.1830 hc        1 OKI      0.040200
     63 H32        -4.7730   -3.4640    4.0150 hc        1 OKI      0.041200
     64 H32A       -5.0260   -2.0660    2.8950 hc        1 OKI      0.041200
@<TRIPOS>BOND
     1    1    2 1   
     2    1    3 2   
     3    1    9 1   
     4    2    5 1   
     5    2    6 1   
     6    3    7 1   
     7    4    5 1   
     8    4    8 1   
     9    4   10 2   
    10    5   11 1   
    11    5   33 1   
    12    6    7 ar  
    13    6   19 ar  
    14    7   20 ar  
    15    8   15 1   
    16    8   34 1   
    17    9   12 ar  
    18    9   13 ar  
    19   11   21 1   
    20   11   22 1   
    21   11   35 1   
    22   12   16 ar  
    23   12   36 1   
    24   13   17 ar  
    25   13   37 1   
    26   14   16 ar  
    27   14   17 ar  
    28   14   18 1   
    29   15   23 1   
    30   15   24 1   
    31   15   38 1   
    32   16   39 1   
    33   17   40 1   
    34   19   25 ar  
    35   19   41 1   
    36   20   26 ar  
    37   20   42 1   
    38   21   28 1   
    39   21   43 1   
    40   21   44 1   
    41   22   27 1   
    42   22   45 1   
    43   22   46 1   
    44   23   30 1   
    45   23   47 1   
    46   23   48 1   
    47   24   29 1   
    48   24   49 1   
    49   24   50 1   
    50   25   26 ar  
    51   25   51 1   
    52   26   52 1   
    53   27   31 1   
    54   27   53 1   
    55   27   54 1   
    56   28   31 1   
    57   28   55 1   
    58   28   56 1   
    59   29   32 1   
    60   29   57 1   
    61   29   58 1   
    62   30   32 1   
    63   30   59 1   
    64   30   60 1   
    65   31   61 1   
    66   31   62 1   
    67   32   63 1   
    68   32   64 1   
@<TRIPOS>SUBSTRUCTURE
     1 OKI         1 TEMP              0 ****  ****    0 ROOT
