@<TRIPOS>MOLECULE
OKI
   65    69     1     0     0
SMALL
bcc


@<TRIPOS>ATOM
      1 C1          0.2790    0.1830   -0.5170 cc        1 OKI      0.425400
      2 N2          1.6770   -0.0550   -0.2520 na        1 OKI     -0.208300
      3 N3         -0.4900   -0.0170    0.5610 nd        1 OKI     -0.493100
      4 C4          2.8430   -1.6250   -1.7320 c         1 OKI      0.507100
      5 C5          2.6790   -0.1510   -1.2570 c3        1 OKI      0.025000
      6 C6          1.7460   -0.4580    1.1000 ca        1 OKI     -0.078200
      7 C7          0.3840   -0.4170    1.5970 ca        1 OKI      0.054400
      8 N8          1.5470   -2.3220   -2.0920 n4        1 OKI     -0.684800
      9 C9         -0.1990    0.6300   -1.8300 ca        1 OKI     -0.165900
     10 O10         3.8690   -2.2710   -1.8350 o         1 OKI     -0.401100
     11 C11         4.0850    0.4030   -0.9170 c3        1 OKI     -0.062700
     12 C12        -1.2160   -0.0900   -2.4710 ca        1 OKI     -0.109000
     13 C13         0.2930    1.8090   -2.4050 ca        1 OKI     -0.109000
     14 C14        -1.2020    1.5120   -4.2800 ca        1 OKI      0.038400
     15 C15         1.6860   -3.3380   -3.1990 c3        1 OKI      0.118500
     16 C16        -1.7150    0.3460   -3.6950 ca        1 OKI     -0.123000
     17 C17        -0.2030    2.2480   -3.6300 ca        1 OKI     -0.123000
     18 CL18       -1.8030    2.0400   -5.7690 cl        1 OKI     -0.038400
     19 C19         2.8040   -0.8250    1.9360 ca        1 OKI     -0.143000
     20 C20         0.1160   -0.7380    2.9330 ca        1 OKI     -0.050000
     21 C21         3.9910    1.7150   -0.1480 c3        1 OKI     -0.079400
     22 C22         4.8550    0.6170   -2.2180 c3        1 OKI     -0.079400
     23 C23         1.8640   -2.6590   -4.5610 c3        1 OKI     -0.096400
     24 C24         0.4760   -4.2790   -3.2270 c3        1 OKI     -0.096400
     25 C25         2.4990   -1.1460    3.2550 ca        1 OKI     -0.087000
     26 C26         1.1840   -1.1030    3.7440 ca        1 OKI     -0.135000
     27 C27         6.2370    1.1710   -1.9400 c3        1 OKI     -0.077400
     28 C28         5.3690    2.2900    0.1140 c3        1 OKI     -0.077400
     29 C29         0.6800   -5.3270   -4.3050 c3        1 OKI     -0.078400
     30 C30         2.0580   -3.7170   -5.6300 c3        1 OKI     -0.078400
     31 C31         6.1590    2.4690   -1.1650 c3        1 OKI     -0.084400
     32 C32         0.9010   -4.6930   -5.6620 c3        1 OKI     -0.090400
     33 H5          2.3090    0.4200   -2.1710 h1        1 OKI      0.111700
     34 HN8         1.2020   -2.8030   -1.2520 hn        1 OKI      0.461300
     35 H11         4.6370   -0.3520   -0.2910 hc        1 OKI      0.078700
     36 H12        -1.6600   -0.9740   -1.9840 ha        1 OKI      0.153500
     37 H13         1.0510    2.4090   -1.8750 ha        1 OKI      0.153500
     38 H15         2.6170   -3.9410   -2.9640 hx        1 OKI      0.121700
     39 H16        -2.5270   -0.2110   -4.1900 ha        1 OKI      0.168000
     40 H17         0.1770    3.1820   -4.0750 ha        1 OKI      0.168000
     41 H19         3.8430   -0.8440    1.5820 ha        1 OKI      0.146000
     42 H20        -0.9130   -0.6920    3.3230 ha        1 OKI      0.168000
     43 H21         3.3780    2.4480   -0.7360 hc        1 OKI      0.049200
     44 H21A        3.4790    1.5500    0.8370 hc        1 OKI      0.049200
     45 H22         4.9500   -0.3550   -2.7690 hc        1 OKI      0.049200
     46 H22A        4.2950    1.3340   -2.8740 hc        1 OKI      0.049200
     47 H23         0.9600   -2.0410   -4.8070 hc        1 OKI      0.060950
     48 H23A        2.7590   -1.9820   -4.5390 hc        1 OKI      0.060950
     49 H24        -0.4590   -3.6990   -3.4420 hc        1 OKI      0.060950
     50 H24A        0.3530   -4.7890   -2.2350 hc        1 OKI      0.060950
     51 H25         3.3150   -1.4340    3.9380 ha        1 OKI      0.154000
     52 H26         0.9980   -1.3580    4.8000 ha        1 OKI      0.157000
     53 H27         6.8350    0.4190   -1.3600 hc        1 OKI      0.055450
     54 H27A        6.7660    1.3430   -2.9140 hc        1 OKI      0.055450
     55 H28         5.9300    1.6100    0.8080 hc        1 OKI      0.055450
     56 H28A        5.2580    3.2800    0.6290 hc        1 OKI      0.055450
     57 H29        -0.2270   -5.9870   -4.3400 hc        1 OKI      0.068200
     58 H29A        1.5570   -5.9740   -4.0400 hc        1 OKI      0.068200
     59 H30         3.0170   -4.2690   -5.4440 hc        1 OKI      0.068200
     60 H30A        2.1520   -3.2080   -6.6270 hc        1 OKI      0.068200
     61 H31         7.1940    2.8230   -0.9200 hc        1 OKI      0.054700
     62 H31A        5.6760    3.2580   -1.7990 hc        1 OKI      0.054700
     63 H32        -0.0320   -4.1620   -5.9880 hc        1 OKI      0.065200
     64 H32A        1.1120   -5.4950   -6.4170 hc        1 OKI      0.065200
     65 H82         0.8460   -1.6180   -2.3660 hn        1 OKI      0.461300
@<TRIPOS>BOND
     1    1    2 1   
     2    1    3 2   
     3    1    9 1   
     4    2    5 1   
     5    2    6 1   
     6    3    7 1   
     7    4    5 1   
     8    4    8 1   
     9    4   10 2   
    10    5   11 1   
    11    5   33 1   
    12    6    7 ar  
    13    6   19 ar  
    14    7   20 ar  
    15    8   15 1   
    16    8   34 1   
    17    8   65 1   
    18    9   12 ar  
    19    9   13 ar  
    20   11   21 1   
    21   11   22 1   
    22   11   35 1   
    23   12   16 ar  
    24   12   36 1   
    25   13   17 ar  
    26   13   37 1   
    27   14   16 ar  
    28   14   17 ar  
    29   14   18 1   
    30   15   23 1   
    31   15   24 1   
    32   15   38 1   
    33   16   39 1   
    34   17   40 1   
    35   19   25 ar  
    36   19   41 1   
    37   20   26 ar  
    38   20   42 1   
    39   21   28 1   
    40   21   43 1   
    41   21   44 1   
    42   22   27 1   
    43   22   45 1   
    44   22   46 1   
    45   23   30 1   
    46   23   47 1   
    47   23   48 1   
    48   24   29 1   
    49   24   49 1   
    50   24   50 1   
    51   25   26 ar  
    52   25   51 1   
    53   26   52 1   
    54   27   31 1   
    55   27   53 1   
    56   27   54 1   
    57   28   31 1   
    58   28   55 1   
    59   28   56 1   
    60   29   32 1   
    61   29   57 1   
    62   29   58 1   
    63   30   32 1   
    64   30   59 1   
    65   30   60 1   
    66   31   61 1   
    67   31   62 1   
    68   32   63 1   
    69   32   64 1   
@<TRIPOS>SUBSTRUCTURE
     1 OKI         1 TEMP              0 ****  ****    0 ROOT
