@<TRIPOS>MOLECULE
OKI
   65    69     1     0     0
SMALL
bcc


@<TRIPOS>ATOM
      1 C1          0.2890    0.1790   -0.4990 cc        1 OKI      0.425400
      2 N2          1.6890   -0.0620   -0.2450 na        1 OKI     -0.208300
      3 N3         -0.4710   -0.0250    0.5840 nd        1 OKI     -0.493100
      4 C4          2.8420   -1.6250   -1.7410 c         1 OKI      0.507100
      5 C5          2.6830   -0.1540   -1.2590 c3        1 OKI      0.025000
      6 C6          1.7680   -0.4710    1.1040 ca        1 OKI     -0.078200
      7 C7          0.4100   -0.4300    1.6120 ca        1 OKI      0.054400
      8 N8          1.5430   -2.3200   -2.0950 ny        1 OKI     -0.684800
      9 C9         -0.1990    0.6320   -1.8060 ca        1 OKI     -0.165900
     10 O10         3.8670   -2.2720   -1.8540 o         1 OKI     -0.401100
     11 C11         4.0920    0.3980   -0.9260 c3        1 OKI     -0.062700
     12 C12        -1.2220   -0.0850   -2.4420 ca        1 OKI     -0.109000
     13 C13         0.2900    1.8130   -2.3780 ca        1 OKI     -0.109000
     14 C14        -1.2200    1.5260   -4.2430 ca        1 OKI      0.038400
     15 C15         1.6740   -3.3290   -3.2090 c3        1 OKI      0.118500
     16 C16        -1.7300    0.3580   -3.6600 ca        1 OKI     -0.123000
     17 C17        -0.2150    2.2580   -3.5980 ca        1 OKI     -0.123000
     18 Cl18       -1.8330    2.0610   -5.7250 cl        1 OKI     -0.038400
     19 C19         2.8320   -0.8430    1.9310 ca        1 OKI     -0.143000
     20 C20         0.1520   -0.7570    2.9490 ca        1 OKI     -0.050000
     21 C21         4.0050    1.7060   -0.1510 c3        1 OKI     -0.079400
     22 C22         4.8520    0.6170   -2.2320 c3        1 OKI     -0.079400
     23 C23         1.8410   -2.6430   -4.5680 c3        1 OKI     -0.096400
     24 C24         0.4640   -4.2710   -3.2330 c3        1 OKI     -0.096400
     25 C25         2.5370   -1.1690    3.2510 ca        1 OKI     -0.087000
     26 C26         1.2260   -1.1270    3.7500 ca        1 OKI     -0.135000
     27 C27         6.2370    1.1690   -1.9630 c3        1 OKI     -0.077400
     28 C28         5.3850    2.2790    0.1030 c3        1 OKI     -0.077400
     29 C29         0.6580   -5.3120   -4.3180 c3        1 OKI     -0.078400
     30 C30         2.0270   -3.6950   -5.6450 c3        1 OKI     -0.078400
     31 C31         6.1650    2.4640   -1.1810 c3        1 OKI     -0.084400
     32 C32         0.8700   -4.6700   -5.6730 c3        1 OKI     -0.090400
     33 H5          2.3070    0.4220   -2.1670 h1        1 OKI      0.111700
     34 HN8         1.2050   -2.8050   -1.2560 hn        1 OKI      0.461300
     35 H11         4.6480   -0.3600   -0.3080 hc        1 OKI      0.078700
     36 H12        -1.6620   -0.9700   -1.9560 ha        1 OKI      0.153500
     37 H13         1.0530    2.4100   -1.8520 ha        1 OKI      0.153500
     38 H15         2.6070   -3.9340   -2.9840 hx        1 OKI      0.121700
     39 H16        -2.5460   -0.1960   -4.1510 ha        1 OKI      0.168000
     40 H17         0.1630    3.1930   -4.0420 ha        1 OKI      0.168000
     41 H19         3.8690   -0.8610    1.5680 ha        1 OKI      0.146000
     42 H20        -0.8740   -0.7130    3.3470 ha        1 OKI      0.168000
     43 H21         3.5010    1.5370    0.8370 hc        1 OKI      0.049200
     44 H21A        3.3890    2.4430   -0.7310 hc        1 OKI      0.049200
     45 H22         4.9420   -0.3530   -2.7880 hc        1 OKI      0.049200
     46 H22A        4.2880    1.3370   -2.8810 hc        1 OKI      0.049200
     47 H23         2.7360   -1.9670   -4.5500 hc        1 OKI      0.060950
     48 H23A        0.9360   -2.0240   -4.8040 hc        1 OKI      0.060950
     49 H24         0.3480   -4.7860   -2.2430 hc        1 OKI      0.060950
     50 H24A       -0.4730   -3.6880   -3.4370 hc        1 OKI      0.060950
     51 H25         3.3580   -1.4610    3.9260 ha        1 OKI      0.154000
     52 H26         1.0480   -1.3860    4.8060 ha        1 OKI      0.157000
     53 H27         6.8380    0.4140   -1.3910 hc        1 OKI      0.055450
     54 H27A        6.7590    1.3450   -2.9400 hc        1 OKI      0.055450
     55 H28         5.2780    3.2670    0.6240 hc        1 OKI      0.055450
     56 H28A        5.9510    1.5960    0.7900 hc        1 OKI      0.055450
     57 H29        -0.2490   -5.9720   -4.3500 hc        1 OKI      0.068200
     58 H29A        1.5380   -5.9610   -4.0640 hc        1 OKI      0.068200
     59 H30         2.1130   -3.1810   -6.6390 hc        1 OKI      0.068200
     60 H30A        2.9870   -4.2490   -5.4690 hc        1 OKI      0.068200
     61 H31         7.2030    2.8160   -0.9420 hc        1 OKI      0.054700
     62 H31A        5.6780    3.2560   -1.8080 hc        1 OKI      0.054700
     63 H32        -0.0660   -4.1380   -5.9900 hc        1 OKI      0.065200
     64 H32A        1.0750   -5.4690   -6.4350 hc        1 OKI      0.065200
     65 H82         0.8410   -1.6140   -2.3600 hn        1 OKI      0.461300
@<TRIPOS>BOND
     1    1    2 1   
     2    1    3 2   
     3    1    9 1   
     4    2    5 1   
     5    2    6 1   
     6    3    7 1   
     7    4    5 1   
     8    4    8 1   
     9    4   10 2   
    10    5   11 1   
    11    5   33 1   
    12    6    7 ar  
    13    6   19 ar  
    14    7   20 ar  
    15    8   15 1   
    16    8   34 1   
    17    8   65 1   
    18    9   12 ar  
    19    9   13 ar  
    20   11   21 1   
    21   11   22 1   
    22   11   35 1   
    23   12   16 ar  
    24   12   36 1   
    25   13   17 ar  
    26   13   37 1   
    27   14   16 ar  
    28   14   17 ar  
    29   14   18 1   
    30   15   23 1   
    31   15   24 1   
    32   15   38 1   
    33   16   39 1   
    34   17   40 1   
    35   19   25 ar  
    36   19   41 1   
    37   20   26 ar  
    38   20   42 1   
    39   21   28 1   
    40   21   43 1   
    41   21   44 1   
    42   22   27 1   
    43   22   45 1   
    44   22   46 1   
    45   23   30 1   
    46   23   47 1   
    47   23   48 1   
    48   24   29 1   
    49   24   49 1   
    50   24   50 1   
    51   25   26 ar  
    52   25   51 1   
    53   26   52 1   
    54   27   31 1   
    55   27   53 1   
    56   27   54 1   
    57   28   31 1   
    58   28   55 1   
    59   28   56 1   
    60   29   32 1   
    61   29   57 1   
    62   29   58 1   
    63   30   32 1   
    64   30   59 1   
    65   30   60 1   
    66   31   61 1   
    67   31   62 1   
    68   32   63 1   
    69   32   64 1   
@<TRIPOS>SUBSTRUCTURE
     1 OKI         1 TEMP              0 ****  ****    0 ROOT
