@<TRIPOS>MOLECULE
OKI
   64    60     1     0     0
SMALL
bcc


@<TRIPOS>ATOM
      1 C1         -1.1400    1.2440    1.9230 c2        1 OKI      0.044000
      2 N2         -0.2350    0.2520    1.6670 n2        1 OKI     -0.154500
      3 N3         -1.4670    1.1870    3.2490 n2        1 OKI     -0.154500
      4 C4         -0.0150   -0.7550   -0.5140 c1        1 OKI      0.291000
      5 C5          0.3620    0.4200    0.3810 c1        1 OKI      0.025000
      6 C6         -0.0030   -0.4190    2.8340 c1        1 OKI     -0.050000
      7 C7         -0.7660    0.1610    3.8130 c1        1 OKI     -0.050000
      8 N8         -0.5110   -0.5120   -1.8700 n3        1 OKI     -0.365000
      9 C9         -2.1720    2.2080    2.0390 c1        1 OKI     -0.034000
     10 O10         0.0270   -1.8940   -0.0750 o         1 OKI     -0.362000
     11 C11         1.8780    0.4820    0.5290 c3        1 OKI     -0.108000
     12 C12        -1.8100    3.5450    1.9160 c1        1 OKI     -0.105000
     13 C13        -3.4880    1.8690    2.3360 c1        1 OKI     -0.120750
     14 C14        -4.0800    4.2040    2.3860 c1        1 OKI     -0.049000
     15 C15        -0.8970   -1.4830   -2.5870 c3        1 OKI      0.020000
     16 C16        -2.7640    4.5440    2.0890 c1        1 OKI     -0.130000
     17 C17        -4.4420    2.8670    2.5090 c1        1 OKI     -0.120750
     18 CL18       -5.2570    5.4760    2.6090 cl        1 OKI     -0.005000
     19 C19         0.8180   -1.5280    3.1420 c1        1 OKI     -0.098500
     20 C20        -0.7320   -0.3510    5.1320 c1        1 OKI     -0.098500
     21 C21         2.3520    1.8850    0.1670 c3        1 OKI     -0.154500
     22 C22         2.5060   -0.5930   -0.3560 c3        1 OKI     -0.154500
     23 C23         0.2980   -2.1040   -3.4410 c3        1 OKI     -0.168500
     24 C24        -1.7910   -0.9880   -3.8460 c3        1 OKI     -0.168500
     25 C25         0.8500   -2.0320    4.4400 c1        1 OKI     -0.120750
     26 C26         0.0760   -1.4430    5.4350 c1        1 OKI     -0.120750
     27 C27         4.0240   -0.4870   -0.4110 c3        1 OKI     -0.154000
     28 C28         3.8700    1.9910    0.1110 c3        1 OKI     -0.154000
     29 C29        -2.2470   -2.1310   -4.7380 c3        1 OKI     -0.152500
     30 C30        -0.1460   -3.2640   -4.3430 c3        1 OKI     -0.152500
     31 C31         4.4980    0.9160   -0.7740 c3        1 OKI     -0.158000
     32 C32        -1.4890   -3.2510   -4.5470 c3        1 OKI     -0.159000
     33 H5          0.0400    1.2540   -0.0220 ha        1 OKI      0.121000
     34 HN8        -0.5890    0.3470   -2.1810 hn        1 OKI      0.224000
     35 H11         2.1140    0.3000    1.4650 hc        1 OKI      0.124000
     36 H12        -0.8820    3.7850    1.7070 ha        1 OKI      0.149000
     37 H13        -3.7440    0.9250    2.4230 ha        1 OKI      0.144250
     38 H15        -1.3610   -2.1700   -2.0600 h1        1 OKI      0.130000
     39 H16        -2.5090    5.4880    2.0020 ha        1 OKI      0.153000
     40 H17        -5.3710    2.6270    2.7180 ha        1 OKI      0.144250
     41 H19         1.3640   -1.9430    2.4420 ha        1 OKI      0.153000
     42 H20        -1.2790    0.0650    5.8350 ha        1 OKI      0.153000
     43 H21         2.0130    2.5190    0.8390 hc        1 OKI      0.084750
     44 H21A        1.9840    2.1270   -0.7120 hc        1 OKI      0.084750
     45 H22         2.1490   -0.5030   -1.2660 hc        1 OKI      0.084750
     46 H22A        2.2610   -1.4780   -0.0040 hc        1 OKI      0.084750
     47 H23         0.6840   -1.3960   -4.0040 hc        1 OKI      0.084750
     48 H23A        0.9900   -2.4300   -2.8250 hc        1 OKI      0.084750
     49 H24        -2.5860   -0.5170   -3.5040 hc        1 OKI      0.084750
     50 H24A       -1.2600   -0.3620   -4.3840 hc        1 OKI      0.084750
     51 H25         1.4200   -2.8020    4.6540 ha        1 OKI      0.144250
     52 H26         0.0990   -1.7980    6.3490 ha        1 OKI      0.144250
     53 H27         4.3910   -0.7290    0.4660 hc        1 OKI      0.083500
     54 H27A        4.3630   -1.1210   -1.0840 hc        1 OKI      0.083500
     55 H28         4.1150    2.8770   -0.2420 hc        1 OKI      0.083500
     56 H28A        4.2280    1.9010    1.0210 hc        1 OKI      0.083500
     57 H29        -2.1760   -1.8520   -5.6780 hc        1 OKI      0.081000
     58 H29A       -3.1890   -2.3410   -4.5350 hc        1 OKI      0.081000
     59 H30         0.3120   -3.1890   -5.2110 hc        1 OKI      0.081000
     60 H30A        0.1070   -4.1160   -3.9180 hc        1 OKI      0.081000
     61 H31         5.4770    0.9570   -0.6770 hc        1 OKI      0.079500
     62 H31A        4.2630    1.0990   -1.7120 hc        1 OKI      0.079500
     63 H32        -1.6480   -3.8230   -5.3340 hc        1 OKI      0.083000
     64 H32A       -1.8840   -3.7160   -3.7730 hc        1 OKI      0.083000
@<TRIPOS>BOND
     1    1    2 1   
     2    1    3 1   
     3    1    9 1   
     4    2    6 1   
     5    3    7 1   
     6    4    8 1   
     7    4   10 1   
     8    5   11 1   
     9    5   33 1   
    10    6   19 1   
    11    7   20 1   
    12    8   15 1   
    13    8   34 1   
    14    9   12 1   
    15   11   21 1   
    16   11   22 1   
    17   11   35 1   
    18   12   36 1   
    19   13   17 1   
    20   13   37 1   
    21   14   16 1   
    22   14   18 1   
    23   15   23 1   
    24   15   24 1   
    25   15   38 1   
    26   16   39 1   
    27   17   40 1   
    28   19   41 1   
    29   20   42 1   
    30   21   28 1   
    31   21   43 1   
    32   21   44 1   
    33   22   27 1   
    34   22   45 1   
    35   22   46 1   
    36   23   30 1   
    37   23   47 1   
    38   23   48 1   
    39   24   29 1   
    40   24   49 1   
    41   24   50 1   
    42   25   26 1   
    43   25   51 1   
    44   26   52 1   
    45   27   31 1   
    46   27   53 1   
    47   27   54 1   
    48   28   31 1   
    49   28   55 1   
    50   28   56 1   
    51   29   32 1   
    52   29   57 1   
    53   29   58 1   
    54   30   32 1   
    55   30   59 1   
    56   30   60 1   
    57   31   61 1   
    58   31   62 1   
    59   32   63 1   
    60   32   64 1   
@<TRIPOS>SUBSTRUCTURE
     1 OKI         1 TEMP              0 ****  ****    0 ROOT
