@<TRIPOS>MOLECULE
OKI
   65    69     1     0     0
SMALL
bcc


@<TRIPOS>ATOM
      1 C1          0.2880    0.2000   -0.5130 cc        1 OKI      0.425400
      2 N2          1.6850   -0.0470   -0.2510 na        1 OKI     -0.208300
      3 N3         -0.4780    0.0120    0.5690 nd        1 OKI     -0.493100
      4 C4          2.8370   -1.6310   -1.7260 c         1 OKI      0.507100
      5 C5          2.6830   -0.1540   -1.2590 c3        1 OKI      0.025000
      6 C6          1.7560   -0.4420    1.1030 ca        1 OKI     -0.078200
      7 C7          0.3960   -0.3870    1.6050 ca        1 OKI      0.054400
      8 N8          1.5360   -2.3210   -2.0820 n4        1 OKI     -0.684800
      9 C9         -0.1920    0.6420   -1.8270 ca        1 OKI     -0.165900
     10 O10         3.8580   -2.2860   -1.8260 o         1 OKI     -0.401100
     11 C11         4.0940    0.3940   -0.9260 c3        1 OKI     -0.062700
     12 C12        -1.2160   -0.0750   -2.4600 ca        1 OKI     -0.109000
     13 C13         0.3060    1.8150   -2.4100 ca        1 OKI     -0.109000
     14 C14        -1.1980    1.5160   -4.2780 ca        1 OKI      0.038400
     15 C15         1.6670   -3.3380   -3.1890 c3        1 OKI      0.118500
     16 C16        -1.7160    0.3570   -3.6850 ca        1 OKI     -0.123000
     17 C17        -0.1920    2.2490   -3.6360 ca        1 OKI     -0.123000
     18 CL18       -1.8010    2.0390   -5.7680 cl        1 OKI     -0.038400
     19 C19         2.8140   -0.8110    1.9380 ca        1 OKI     -0.143000
     20 C20         0.1310   -0.6990    2.9440 ca        1 OKI     -0.050000
     21 C21         4.0100    1.7100   -0.1650 c3        1 OKI     -0.079400
     22 C22         4.8610    0.5940   -2.2310 c3        1 OKI     -0.079400
     23 C23         1.8470   -2.6620   -4.5510 c3        1 OKI     -0.096400
     24 C24         0.4510   -4.2730   -3.2150 c3        1 OKI     -0.096400
     25 C25         2.5110   -1.1210    3.2600 ca        1 OKI     -0.087000
     26 C26         1.1980   -1.0650    3.7530 ca        1 OKI     -0.135000
     27 C27         6.2480    1.1420   -1.9600 c3        1 OKI     -0.077400
     28 C28         5.3920    2.2780    0.0890 c3        1 OKI     -0.077400
     29 C29         0.6460   -5.3220   -4.2930 c3        1 OKI     -0.078400
     30 C30         2.0330   -3.7210   -5.6210 c3        1 OKI     -0.078400
     31 C31         6.1790    2.4450   -1.1930 c3        1 OKI     -0.084400
     32 C32         0.8700   -4.6900   -5.6500 c3        1 OKI     -0.090400
     33 H5          2.3140    0.4150   -2.1750 h1        1 OKI      0.111700
     34 HN8         0.8380   -1.6140   -2.3550 hn        1 OKI      0.461300
     35 H11         4.6420   -0.3610   -0.2970 hc        1 OKI      0.078700
     36 H12        -1.6630   -0.9530   -1.9660 ha        1 OKI      0.153500
     37 H13         1.0700    2.4130   -1.8860 ha        1 OKI      0.153500
     38 H15         2.5950   -3.9470   -2.9550 hx        1 OKI      0.121700
     39 H16        -2.5340   -0.1980   -4.1740 ha        1 OKI      0.168000
     40 H17         0.1930    3.1780   -4.0880 ha        1 OKI      0.168000
     41 H19         3.8520   -0.8400    1.5800 ha        1 OKI      0.146000
     42 H20        -0.8960   -0.6430    3.3370 ha        1 OKI      0.168000
     43 H21         3.4000    2.4440   -0.7560 hc        1 OKI      0.049200
     44 H21A        3.5000    1.5540    0.8230 hc        1 OKI      0.049200
     45 H22         4.9490   -0.3820   -2.7760 hc        1 OKI      0.049200
     46 H22A        4.3040    1.3110   -2.8900 hc        1 OKI      0.049200
     47 H23         2.7460   -1.9910   -4.5320 hc        1 OKI      0.060950
     48 H23A        0.9460   -2.0380   -4.7960 hc        1 OKI      0.060950
     49 H24         0.3260   -4.7810   -2.2230 hc        1 OKI      0.060950
     50 H24A       -0.4810   -3.6860   -3.4280 hc        1 OKI      0.060950
     51 H25         3.3280   -1.4110    3.9420 ha        1 OKI      0.154000
     52 H26         1.0140   -1.3130    4.8120 ha        1 OKI      0.157000
     53 H27         6.7750    1.3040   -2.9370 hc        1 OKI      0.055450
     54 H27A        6.8420    0.3900   -1.3770 hc        1 OKI      0.055450
     55 H28         5.9510    1.6000    0.7860 hc        1 OKI      0.055450
     56 H28A        5.2880    3.2720    0.5990 hc        1 OKI      0.055450
     57 H29        -0.2650   -5.9770   -4.3250 hc        1 OKI      0.068200
     58 H29A        1.5200   -5.9750   -4.0290 hc        1 OKI      0.068200
     59 H30         2.1280   -3.2140   -6.6170 hc        1 OKI      0.068200
     60 H30A        2.9880   -4.2800   -5.4350 hc        1 OKI      0.068200
     61 H31         7.2180    2.7940   -0.9530 hc        1 OKI      0.054700
     62 H31A        5.7000    3.2330   -1.8310 hc        1 OKI      0.054700
     63 H32        -0.0610   -4.1540   -5.9750 hc        1 OKI      0.065200
     64 H32A        1.0740   -5.4940   -6.4050 hc        1 OKI      0.065200
     65 H82         1.1900   -2.8000   -1.2410 hn        1 OKI      0.461300
@<TRIPOS>BOND
     1    1    2 1   
     2    1    3 2   
     3    1    9 1   
     4    2    5 1   
     5    2    6 1   
     6    3    7 1   
     7    4    5 1   
     8    4    8 1   
     9    4   10 2   
    10    5   11 1   
    11    5   33 1   
    12    6    7 ar  
    13    6   19 ar  
    14    7   20 ar  
    15    8   15 1   
    16    8   34 1   
    17    8   65 1   
    18    9   12 ar  
    19    9   13 ar  
    20   11   21 1   
    21   11   22 1   
    22   11   35 1   
    23   12   16 ar  
    24   12   36 1   
    25   13   17 ar  
    26   13   37 1   
    27   14   16 ar  
    28   14   17 ar  
    29   14   18 1   
    30   15   23 1   
    31   15   24 1   
    32   15   38 1   
    33   16   39 1   
    34   17   40 1   
    35   19   25 ar  
    36   19   41 1   
    37   20   26 ar  
    38   20   42 1   
    39   21   28 1   
    40   21   43 1   
    41   21   44 1   
    42   22   27 1   
    43   22   45 1   
    44   22   46 1   
    45   23   30 1   
    46   23   47 1   
    47   23   48 1   
    48   24   29 1   
    49   24   49 1   
    50   24   50 1   
    51   25   26 ar  
    52   25   51 1   
    53   26   52 1   
    54   27   31 1   
    55   27   53 1   
    56   27   54 1   
    57   28   31 1   
    58   28   55 1   
    59   28   56 1   
    60   29   32 1   
    61   29   57 1   
    62   29   58 1   
    63   30   32 1   
    64   30   59 1   
    65   30   60 1   
    66   31   61 1   
    67   31   62 1   
    68   32   63 1   
    69   32   64 1   
@<TRIPOS>SUBSTRUCTURE
     1 OKI         1 TEMP              0 ****  ****    0 ROOT
