@<TRIPOS>MOLECULE
OKJ
   27    27     1     0     0
SMALL
bcc


@<TRIPOS>ATOM
      1 C1          2.8430    0.0500    0.4270 c3        1 OKJ     -0.018900
      2 O1          2.9070    1.4610    0.4810 oh        1 OKJ     -0.578800
      3 O2          4.3710    0.1660   -1.4230 o         1 OKJ     -0.509100
      4 C2          3.8840   -0.5090   -0.5170 c         1 OKJ      0.529900
      5 C3          1.4160   -0.4160    0.0050 c3        1 OKJ      0.154500
      6 C4          0.4230    0.1290    1.0500 c3        1 OKJ     -0.025100
      7 C5         -0.9720    0.1540    0.5370 ca        1 OKJ     -0.114300
      8 C6         -1.5240    1.3510    0.0610 ca        1 OKJ     -0.081000
      9 C7         -2.8310    1.3990   -0.4080 ca        1 OKJ     -0.187000
     10 C8         -3.6000    0.2230   -0.4020 ca        1 OKJ      0.123100
     11 O3         -4.8880    0.3290   -0.8770 oh        1 OKJ     -0.499100
     12 C9         -3.0640   -0.9820    0.0710 ca        1 OKJ     -0.187000
     13 C10        -1.7520   -1.0070    0.5380 ca        1 OKJ     -0.081000
     14 N1          1.2800   -1.8390   -0.1920 n3        1 OKJ     -0.910800
     15 H3          1.1860    0.0810   -0.9860 h1        1 OKJ      0.074700
     16 H4          0.4750   -0.4890    1.9850 hc        1 OKJ      0.060200
     17 H5          0.7510    1.1710    1.3170 hc        1 OKJ      0.060200
     18 H6         -0.9170    2.2700    0.0610 ha        1 OKJ      0.136000
     19 H7         -3.2710    2.3330   -0.7820 ha        1 OKJ      0.140500
     20 H8         -5.2960   -0.5480   -0.8250 ho        1 OKJ      0.418000
     21 H9         -3.6710   -1.8980    0.0710 ha        1 OKJ      0.140500
     22 H10        -1.3230   -1.9530    0.9010 ha        1 OKJ      0.136000
     23 H11         1.9050   -2.1700   -0.8990 hn        1 OKJ      0.353300
     24 H41         2.9350    1.7870   -0.4300 ho        1 OKJ      0.418000
     25 H43         3.0650   -0.2810    1.4810 h1        1 OKJ      0.091700
     26 H12         1.4250   -2.3460    0.6570 hn        1 OKJ      0.353300
     27 H42         4.1840   -1.5650   -0.3400 h4        1 OKJ      0.002200
@<TRIPOS>BOND
     1    1    2 1   
     2    1    4 1   
     3    1    5 1   
     4    1   25 1   
     5    2   24 1   
     6    3    4 2   
     7    4   27 1   
     8    5    6 1   
     9    5   14 1   
    10    5   15 1   
    11    6    7 1   
    12    6   16 1   
    13    6   17 1   
    14    7    8 ar  
    15    7   13 ar  
    16    8    9 ar  
    17    8   18 1   
    18    9   10 ar  
    19    9   19 1   
    20   10   11 1   
    21   10   12 ar  
    22   11   20 1   
    23   12   13 ar  
    24   12   21 1   
    25   13   22 1   
    26   14   23 1   
    27   14   26 1   
@<TRIPOS>SUBSTRUCTURE
     1 OKJ         1 TEMP              0 ****  ****    0 ROOT
