@<TRIPOS>MOLECULE
OKJ
   28    28     1     0     0
SMALL
bcc


@<TRIPOS>ATOM
      1 C1          1.6210   -0.2320   -0.1580 c3        1 OKJ     -0.000900
      2 O1          2.1590   -0.6210    1.0820 oh        1 OKJ     -0.538800
      3 O2          1.7840    1.7310   -1.5360 o         1 OKJ     -0.532100
      4 C2          2.3280    0.9960   -0.7120 c         1 OKJ      0.544900
      5 C3          0.0880   -0.0410   -0.0200 c3        1 OKJ      0.089500
      6 C4         -0.5380   -1.2890    0.6220 c3        1 OKJ     -0.044100
      7 C5         -2.0120   -1.1560    0.7380 ca        1 OKJ     -0.207300
      8 C6         -2.5830   -0.5600    1.8690 ca        1 OKJ     -0.092000
      9 C7         -3.9650   -0.4580    1.9950 ca        1 OKJ     -0.176500
     10 C8         -4.7890   -0.9670    0.9790 ca        1 OKJ      0.166100
     11 O3         -6.1530   -0.9000    1.0160 oh        1 OKJ     -0.472100
     12 C9         -4.2270   -1.5830   -0.1590 ca        1 OKJ     -0.176500
     13 C10        -2.8470   -1.6740   -0.2640 ca        1 OKJ     -0.092000
     14 N1         -0.5630    0.2620   -1.3360 n4        1 OKJ     -0.840600
     15 H3         -0.1110    0.8530    0.6450 hx        1 OKJ      0.109700
     16 H4         -0.2650   -2.2020    0.0270 hc        1 OKJ      0.096700
     17 H5         -0.0640   -1.4090    1.6360 hc        1 OKJ      0.096700
     18 H6         -1.9370   -0.1800    2.6770 ha        1 OKJ      0.136000
     19 H7         -4.4080    0.0040    2.8900 ha        1 OKJ      0.166000
     20 H8         -6.4250   -0.5220    1.8680 ho        1 OKJ      0.440000
     21 H9         -4.8930   -1.9960   -0.9320 ha        1 OKJ      0.166000
     22 H10        -2.4090   -2.1990   -1.1270 ha        1 OKJ      0.136000
     23 H11        -0.3520   -0.4790   -2.0100 hn        1 OKJ      0.468800
     24 H41         2.1240    0.1370    1.6850 ho        1 OKJ      0.423000
     25 H43         1.8470   -1.1100   -0.8380 h1        1 OKJ      0.125700
     26 H12        -0.2140    1.1600   -1.7050 hn        1 OKJ      0.468800
     27 H42         3.3630    1.1550   -0.3380 h4        1 OKJ      0.072200
     28 H13        -1.5820    0.3010   -1.1980 hn        1 OKJ      0.468800
@<TRIPOS>BOND
     1    1    2 1   
     2    1    4 1   
     3    1    5 1   
     4    1   25 1   
     5    2   24 1   
     6    3    4 2   
     7    4   27 1   
     8    5    6 1   
     9    5   14 1   
    10    5   15 1   
    11    6    7 1   
    12    6   16 1   
    13    6   17 1   
    14    7    8 ar  
    15    7   13 ar  
    16    8    9 ar  
    17    8   18 1   
    18    9   10 ar  
    19    9   19 1   
    20   10   11 1   
    21   10   12 ar  
    22   11   20 1   
    23   12   13 ar  
    24   12   21 1   
    25   13   22 1   
    26   14   23 1   
    27   14   26 1   
    28   14   28 1   
@<TRIPOS>SUBSTRUCTURE
     1 OKJ         1 TEMP              0 ****  ****    0 ROOT
