@<TRIPOS>MOLECULE
OKJ
   27    25     1     0     0
SMALL
bcc


@<TRIPOS>ATOM
      1 C1          2.8170    0.7150   -0.1980 c3        1 OKJ     -0.035000
      2 O1          3.0350    0.9390    1.1940 oh        1 OKJ     -0.316000
      3 O2          3.1890    3.0410   -0.5230 o         1 OKJ     -0.292000
      4 C2          3.3180    1.8830   -0.9770 c2        1 OKJ      0.176000
      5 C3          1.3160    0.5370   -0.4570 c3        1 OKJ     -0.053000
      6 C4          0.7800   -0.6100    0.4000 c3        1 OKJ     -0.156000
      7 C5         -0.7280   -0.5880    0.3780 c2        1 OKJ     -0.118000
      8 C6         -1.4070   -1.5490   -0.3070 c1        1 OKJ     -0.100000
      9 C7         -2.7880   -1.5930   -0.2530 c1        1 OKJ     -0.155000
     10 C8         -3.4730   -0.6710    0.4910 c1        1 OKJ      0.080000
     11 O3         -4.8980   -0.7400    0.5780 oh        1 OKJ     -0.250000
     12 C9         -2.7950    0.2930    1.1790 c1        1 OKJ     -0.209000
     13 C10        -1.4180    0.3390    1.1260 c2        1 OKJ     -0.086000
     14 N1          1.1020    0.2470   -1.8050 n3        1 OKJ     -0.341000
     15 H3          0.8540    1.3520   -0.2290 h1        1 OKJ      0.106000
     16 H4          1.1160   -1.5160    0.0170 hc        1 OKJ      0.104000
     17 H5          1.1000   -0.5060    1.3280 hc        1 OKJ      0.104000
     18 H6         -0.9360   -2.1840   -0.8190 ha        1 OKJ      0.133000
     19 H7         -3.2880   -2.2980   -0.7600 ha        1 OKJ      0.152000
     20 H8         -5.1380   -1.2570    1.3020 ho        1 OKJ      0.219000
     21 H9         -3.2510    0.9030    1.6710 ha        1 OKJ      0.136000
     22 H10        -0.9240    1.0420    1.6290 ha        1 OKJ      0.136000
     23 H11         1.1250   -0.7430   -1.9400 hn        1 OKJ      0.150500
     24 H41         3.9450    0.7870    1.3970 ho        1 OKJ      0.218000
     25 H43         3.3100   -0.1120   -0.4850 h1        1 OKJ      0.128000
     26 H12         0.3430    0.5440   -2.0360 hn        1 OKJ      0.150500
     27 H42         3.6960    1.7440   -1.9020 h4        1 OKJ      0.118000
@<TRIPOS>BOND
     1    1    2 1   
     2    1    4 1   
     3    1    5 1   
     4    1   25 1   
     5    2   24 1   
     6    3    4 1   
     7    4   27 1   
     8    5    6 1   
     9    5   14 1   
    10    5   15 1   
    11    6    7 1   
    12    6   16 1   
    13    6   17 1   
    14    7    8 1   
    15    7   13 1   
    16    8   18 1   
    17    9   10 1   
    18    9   19 1   
    19   10   11 1   
    20   11   20 1   
    21   12   13 1   
    22   12   21 1   
    23   13   22 1   
    24   14   23 1   
    25   14   26 1   
@<TRIPOS>SUBSTRUCTURE
     1 OKJ         1 TEMP              0 ****  ****    0 ROOT
