@<TRIPOS>MOLECULE
OKJ
   28    28     1     0     0
SMALL
bcc


@<TRIPOS>ATOM
      1 C1          1.6080   -0.2270   -0.2350 c3        1 OKJ     -0.000900
      2 O1          2.1810   -0.6390    0.9820 oh        1 OKJ     -0.538800
      3 O2          1.7340    1.7620   -1.5810 o         1 OKJ     -0.532100
      4 C2          2.3000    1.0110   -0.7860 c         1 OKJ      0.544900
      5 C3          0.0810   -0.0360   -0.0500 c3        1 OKJ      0.089500
      6 C4         -0.5290   -1.2960    0.5860 c3        1 OKJ     -0.044100
      7 C5         -1.9990   -1.1640    0.7470 ca        1 OKJ     -0.207300
      8 C6         -2.5370   -0.5890    1.9040 ca        1 OKJ     -0.092000
      9 C7         -3.9150   -0.4870    2.0710 ca        1 OKJ     -0.176500
     10 C8         -4.7680   -0.9780    1.0690 ca        1 OKJ      0.166100
     11 O3         -6.1300   -0.9100    1.1460 oh        1 OKJ     -0.472100
     12 C9         -4.2390   -1.5720   -0.0950 ca        1 OKJ     -0.176500
     13 C10        -2.8630   -1.6630   -0.2410 ca        1 OKJ     -0.092000
     14 N1         -0.6070    0.2910   -1.3410 nz        1 OKJ     -0.840600
     15 H3         -0.0990    0.8450    0.6370 hx        1 OKJ      0.109700
     16 H4         -0.2750   -2.1980   -0.0330 hc        1 OKJ      0.096700
     17 H5         -0.0270   -1.4350    1.5840 hc        1 OKJ      0.096700
     18 H6         -1.8680   -0.2240    2.7000 ha        1 OKJ      0.136000
     19 H7         -4.3320   -0.0410    2.9870 ha        1 OKJ      0.166000
     20 H8         -6.3780   -0.5470    2.0130 ho        1 OKJ      0.440000
     21 H9         -4.9270   -1.9710   -0.8570 ha        1 OKJ      0.166000
     22 H10        -2.4500   -2.1730   -1.1260 ha        1 OKJ      0.136000
     23 H11        -0.4170   -0.4370   -2.0340 hn        1 OKJ      0.468800
     24 H41         2.1650    0.1070    1.5990 ho        1 OKJ      0.423000
     25 H43         1.8130   -1.0920   -0.9380 h1        1 OKJ      0.125700
     26 H12        -0.2680    1.1960   -1.7030 hn        1 OKJ      0.468800
     27 H42         3.3460    1.1620   -0.4380 h4        1 OKJ      0.072200
     28 H13        -1.6230    0.3290   -1.1730 hn        1 OKJ      0.468800
@<TRIPOS>BOND
     1    1    2 1   
     2    1    4 1   
     3    1    5 1   
     4    1   25 1   
     5    2   24 1   
     6    3    4 2   
     7    4   27 1   
     8    5    6 1   
     9    5   14 1   
    10    5   15 1   
    11    6    7 1   
    12    6   16 1   
    13    6   17 1   
    14    7    8 ar  
    15    7   13 ar  
    16    8    9 ar  
    17    8   18 1   
    18    9   10 ar  
    19    9   19 1   
    20   10   11 1   
    21   10   12 ar  
    22   11   20 1   
    23   12   13 ar  
    24   12   21 1   
    25   13   22 1   
    26   14   23 1   
    27   14   26 1   
    28   14   28 1   
@<TRIPOS>SUBSTRUCTURE
     1 OKJ         1 TEMP              0 ****  ****    0 ROOT
