@<TRIPOS>MOLECULE
OKJ
   28    28     1     0     0
SMALL
bcc


@<TRIPOS>ATOM
      1 C1          1.6130   -0.2620   -0.2240 c3        1 OKJ     -0.000900
      2 O1          2.1760   -0.7210    0.9810 oh        1 OKJ     -0.538800
      3 O2          1.7760    1.7630   -1.5090 o         1 OKJ     -0.532100
      4 C2          2.3280    0.9790   -0.7360 c         1 OKJ      0.544900
      5 C3          0.0880   -0.0510   -0.0350 c3        1 OKJ      0.089500
      6 C4         -0.5450   -1.3180    0.5620 c3        1 OKJ     -0.044100
      7 C5         -2.0120   -1.1650    0.7250 ca        1 OKJ     -0.207300
      8 C6         -2.5430   -0.6150    1.8970 ca        1 OKJ     -0.092000
      9 C7         -3.9180   -0.4940    2.0650 ca        1 OKJ     -0.176500
     10 C8         -4.7780   -0.9400    1.0480 ca        1 OKJ      0.166100
     11 O3         -6.1390   -0.8510    1.1250 oh        1 OKJ     -0.472100
     12 C9         -4.2570   -1.5090   -0.1320 ca        1 OKJ     -0.176500
     13 C10        -2.8830   -1.6190   -0.2790 ca        1 OKJ     -0.092000
     14 N1         -0.5910    0.3270   -1.3170 n4        1 OKJ     -0.840600
     15 H3         -0.0770    0.8130    0.6780 hx        1 OKJ      0.109700
     16 H4         -0.0470   -1.4950    1.5570 hc        1 OKJ      0.096700
     17 H5         -0.3040   -2.2050   -0.0830 hc        1 OKJ      0.096700
     18 H6         -1.8690   -0.2860    2.7050 ha        1 OKJ      0.136000
     19 H7         -4.3300   -0.0680    2.9930 ha        1 OKJ      0.166000
     20 H8         -6.3820   -0.5100    2.0010 ho        1 OKJ      0.440000
     21 H9         -4.9510   -1.8730   -0.9070 ha        1 OKJ      0.166000
     22 H10        -2.4770   -2.1100   -1.1780 ha        1 OKJ      0.136000
     23 H11        -0.4120   -0.3830   -2.0300 hn        1 OKJ      0.468800
     24 H41         2.1720    0.0060    1.6210 ho        1 OKJ      0.423000
     25 H43         1.8040   -1.1100   -0.9520 h1        1 OKJ      0.125700
     26 H12        -0.2360    1.2360   -1.6510 hn        1 OKJ      0.468800
     27 H42         3.3750    1.1010   -0.3830 h4        1 OKJ      0.072200
     28 H13        -1.6060    0.3780   -1.1490 hn        1 OKJ      0.468800
@<TRIPOS>BOND
     1    1    2 1   
     2    1    4 1   
     3    1    5 1   
     4    1   25 1   
     5    2   24 1   
     6    3    4 2   
     7    4   27 1   
     8    5    6 1   
     9    5   14 1   
    10    5   15 1   
    11    6    7 1   
    12    6   16 1   
    13    6   17 1   
    14    7    8 ar  
    15    7   13 ar  
    16    8    9 ar  
    17    8   18 1   
    18    9   10 ar  
    19    9   19 1   
    20   10   11 1   
    21   10   12 ar  
    22   11   20 1   
    23   12   13 ar  
    24   12   21 1   
    25   13   22 1   
    26   14   23 1   
    27   14   26 1   
    28   14   28 1   
@<TRIPOS>SUBSTRUCTURE
     1 OKJ         1 TEMP              0 ****  ****    0 ROOT
