@<TRIPOS>MOLECULE
OKO
   64    68     1     0     0
SMALL
bcc


@<TRIPOS>ATOM
      1 O2          0.8970   -0.8660   -1.2070 o         1 OKO     -0.650300
      2 S           2.1270   -0.1990   -1.3630 s6        1 OKO      1.470900
      3 O1          3.0510   -0.3060   -0.3050 o         1 OKO     -0.650300
      4 C6          2.8610   -0.7820   -2.7780 c3        1 OKO     -0.373300
      5 N1          1.9090    1.3850   -1.6710 nu        1 OKO     -0.768500
      6 C5          0.9800    1.9770   -2.5330 ca        1 OKO      0.033300
      7 C1          1.2510    3.2480   -3.1580 ca        1 OKO      0.600600
      8 O           2.4710    3.8160   -2.8420 os        1 OKO     -0.460100
      9 C           2.7500    5.1180   -3.3600 c3        1 OKO      0.129700
     10 C4         -0.2630    1.3870   -2.8240 ca        1 OKO     -0.116000
     11 C3         -1.1560    2.0230   -3.6990 cp        1 OKO     -0.158300
     12 C2         -0.7800    3.2640   -4.2530 ca        1 OKO      0.426200
     13 N           0.3880    3.8730   -3.9910 nb        1 OKO     -0.707000
     14 C7         -2.4470    1.4200   -4.0200 cp        1 OKO     -0.013000
     15 C23        -3.1600    0.7420   -3.0300 ca        1 OKO     -0.107000
     16 C22        -4.3870    0.1760   -3.3900 ca        1 OKO     -0.060200
     17 N5         -5.3610   -0.5180   -2.6480 na        1 OKO     -0.018100
     18 N4         -6.3840   -0.9010   -3.4250 nc        1 OKO     -0.507100
     19 C21        -6.1880   -0.4210   -4.6680 cd        1 OKO      0.364800
     20 C20        -4.9150    0.2870   -4.7320 ca        1 OKO     -0.177900
     21 C9         -4.1790    0.9800   -5.6990 ca        1 OKO     -0.064500
     22 C8         -2.9530    1.5340   -5.3340 ca        1 OKO     -0.118000
     23 C10        -4.6760    1.1210   -7.0550 cc        1 OKO      0.541900
     24 O4         -3.8640    1.8390   -7.9600 os        1 OKO     -0.358800
     25 C12        -4.5690    1.8300   -9.1660 cc        1 OKO      0.156700
     26 C11        -5.7510    1.1250   -8.9600 cd        1 OKO      0.232900
     27 N2         -5.8040    0.6870   -7.6340 nd        1 OKO     -0.659000
     28 C13        -3.9440    2.4630  -10.3490 c3        1 OKO      0.146500
     29 N3         -3.6070    3.8690  -10.1640 n3        1 OKO     -0.721600
     30 C19        -2.8540    4.3910  -11.2970 c3        1 OKO      0.133800
     31 C17        -2.5320    5.8890  -11.1400 c3        1 OKO      0.141600
     32 C18        -1.9340    6.4400  -12.4190 c3        1 OKO     -0.094100
     33 O3         -3.7210    6.6430  -10.8890 os        1 OKO     -0.418600
     34 C15        -4.4060    6.1840   -9.7190 c3        1 OKO      0.141600
     35 C16        -5.6590    7.0260   -9.5950 c3        1 OKO     -0.094100
     36 C14        -4.7660    4.6930   -9.8470 c3        1 OKO      0.133800
     37 H61C        3.0230   -1.8880   -2.7050 h1        1 OKO      0.119367
     38 H62C        3.8660   -0.3340   -2.9740 h1        1 OKO      0.119367
     39 H63C        2.2540   -0.6210   -3.7020 h1        1 OKO      0.119367
     40 H1          2.5300    2.0560   -1.2630 hn        1 OKO      0.472800
     41 H4         -0.5460    0.4190   -2.3720 ha        1 OKO      0.181000
     42 HC1         2.7770    5.0980   -4.4760 h1        1 OKO      0.053033
     43 HC2         3.7640    5.3390   -2.9390 h1        1 OKO      0.053033
     44 HC3         1.9960    5.8560   -2.9970 h1        1 OKO      0.053033
     45 H2         -1.4530    3.8110   -4.9390 h4        1 OKO      0.037100
     46 H23        -2.7730    0.6600   -2.0050 ha        1 OKO      0.152000
     47 H8         -2.3590    2.0700   -6.0930 ha        1 OKO      0.155000
     48 H5         -5.2150   -0.9560   -1.7680 hn        1 OKO      0.323700
     49 H21        -6.9050   -0.5650   -5.4800 h4        1 OKO      0.076800
     50 H11        -6.5570    0.9020   -9.6580 h4        1 OKO      0.054100
     51 H131       -2.9810    1.9150  -10.5720 h1        1 OKO      0.056200
     52 H132       -4.6490    2.3040  -11.2200 h1        1 OKO      0.056200
     53 H191       -1.8840    3.8250  -11.3580 h1        1 OKO      0.043700
     54 H192       -3.4070    4.2460  -12.2700 h1        1 OKO      0.043700
     55 H141       -5.1760    4.3370   -8.8610 h1        1 OKO      0.043700
     56 H142       -5.5780    4.5890  -10.6240 h1        1 OKO      0.043700
     57 H17        -1.8220    6.0350  -10.2770 h1        1 OKO      0.049700
     58 H181       -1.0020    5.8790  -12.6660 hc        1 OKO      0.047533
     59 H182       -2.6570    6.3440  -13.2640 hc        1 OKO      0.047533
     60 H183       -1.6900    7.5210  -12.2870 hc        1 OKO      0.047533
     61 H15        -3.7370    6.3380   -8.8250 h1        1 OKO      0.049700
     62 H161       -5.3840    8.1020   -9.4850 hc        1 OKO      0.047533
     63 H162       -6.2390    6.6990   -8.7000 hc        1 OKO      0.047533
     64 H163       -6.2960    6.9180  -10.5050 hc        1 OKO      0.047533
@<TRIPOS>BOND
     1    1    2 2   
     2    2    3 2   
     3    2    4 1   
     4    2    5 1   
     5    4   37 1   
     6    4   38 1   
     7    4   39 1   
     8    5    6 1   
     9    5   40 1   
    10    6    7 ar  
    11    6   10 ar  
    12    7    8 1   
    13    7   13 ar  
    14    8    9 1   
    15    9   42 1   
    16    9   43 1   
    17    9   44 1   
    18   10   11 ar  
    19   10   41 1   
    20   11   12 ar  
    21   11   14 1   
    22   12   13 ar  
    23   12   45 1   
    24   14   15 ar  
    25   14   22 ar  
    26   15   16 ar  
    27   15   46 1   
    28   16   17 1   
    29   16   20 ar  
    30   17   18 1   
    31   17   48 1   
    32   18   19 2   
    33   19   20 1   
    34   19   49 1   
    35   20   21 ar  
    36   21   22 ar  
    37   21   23 1   
    38   22   47 1   
    39   23   24 1   
    40   23   27 2   
    41   24   25 1   
    42   25   26 2   
    43   25   28 1   
    44   26   27 1   
    45   26   50 1   
    46   28   29 1   
    47   28   51 1   
    48   28   52 1   
    49   29   30 1   
    50   29   36 1   
    51   30   31 1   
    52   30   53 1   
    53   30   54 1   
    54   31   32 1   
    55   31   33 1   
    56   31   57 1   
    57   32   58 1   
    58   32   59 1   
    59   32   60 1   
    60   33   34 1   
    61   34   35 1   
    62   34   36 1   
    63   34   61 1   
    64   35   62 1   
    65   35   63 1   
    66   35   64 1   
    67   36   55 1   
    68   36   56 1   
@<TRIPOS>SUBSTRUCTURE
     1 OKO         1 TEMP              0 ****  ****    0 ROOT
