@<TRIPOS>MOLECULE
OL1
   50    52     1     0     0
SMALL
bcc


@<TRIPOS>ATOM
      1 O14        -1.2980    3.1250   -0.5450 oh        1 OL1     -0.555800
      2 C13        -1.5140    1.8010   -0.1180 c3        1 OL1      0.345300
      3 C15        -2.7730    1.2270   -0.7420 cc        1 OL1      0.423700
      4 O19        -3.5810    0.4520    0.1000 os        1 OL1     -0.345800
      5 C18        -4.6550    0.0440   -0.7060 cc        1 OL1      0.109400
      6 C20        -5.6980   -0.7890   -0.1400 ca        1 OL1      0.374300
      7 C25        -6.9010   -0.9220   -0.8740 ca        1 OL1     -0.226300
      8 C24        -7.9200   -1.7240   -0.3580 ca        1 OL1     -0.091000
      9 C23        -7.7260   -2.3660    0.8630 ca        1 OL1     -0.237300
     10 C22        -6.4970   -2.1770    1.5260 ca        1 OL1      0.400200
     11 N21        -5.4980   -1.4150    1.0540 nb        1 OL1     -0.642000
     12 C17        -4.4490    0.5820   -1.9770 cd        1 OL1      0.251900
     13 N16        -3.2600    1.3190   -1.9810 nd        1 OL1     -0.664000
     14 C12        -0.3430    0.8580   -0.4400 c3        1 OL1     -0.131400
     15 C11         0.9480    1.3770    0.1540 c3        1 OL1     -0.078400
     16 C10         2.1020    0.4480   -0.1550 c3        1 OL1     -0.078400
     17 C9          3.3930    0.9690    0.4390 c3        1 OL1     -0.079400
     18 C8          4.5490    0.0410    0.1310 c3        1 OL1     -0.076400
     19 C7          5.8410    0.5640    0.7310 c3        1 OL1     -0.037100
     20 C3          6.9950   -0.3200    0.4100 ca        1 OL1     -0.077300
     21 C2          7.5340   -0.3320   -0.8830 ca        1 OL1     -0.127500
     22 C4          7.5590   -1.1400    1.3930 ca        1 OL1     -0.127500
     23 C5          8.6450   -1.9600    1.0880 ca        1 OL1     -0.128000
     24 C6          9.1760   -1.9680   -0.2010 ca        1 OL1     -0.133000
     25 C1          8.6190   -1.1520   -1.1860 ca        1 OL1     -0.128000
     26 OXT        -1.6840    2.0170    1.2640 oh        1 OL1     -0.555800
     27 HXT        -1.9360    1.1670    1.6510 ho        1 OL1      0.426500
     28 H14        -1.1270    3.0860   -1.4960 ho        1 OL1      0.426500
     29 H121       -0.5790   -0.1570   -0.0280 hc        1 OL1      0.061700
     30 H122       -0.2500    0.7660   -1.5520 hc        1 OL1      0.061700
     31 H17        -5.0580    0.4920   -2.8770 h4        1 OL1      0.055100
     32 H25        -7.0250   -0.3980   -1.8310 ha        1 OL1      0.148000
     33 H24        -8.8640   -1.8410   -0.9100 ha        1 OL1      0.144000
     34 H23        -8.5020   -3.0030    1.3040 ha        1 OL1      0.148000
     35 H22        -6.2970   -2.6660    2.4970 h4        1 OL1      0.028100
     36 H111        1.1570    2.4020   -0.2540 hc        1 OL1      0.057200
     37 H112        0.8260    1.4860    1.2640 hc        1 OL1      0.057200
     38 H101        1.8840   -0.5740    0.2540 hc        1 OL1      0.040200
     39 H102        2.2150    0.3420   -1.2660 hc        1 OL1      0.040200
     40 H91C        3.6100    1.9910    0.0310 hc        1 OL1      0.042200
     41 H92C        3.2800    1.0740    1.5500 hc        1 OL1      0.042200
     42 H81C        4.3320   -0.9810    0.5380 hc        1 OL1      0.044200
     43 H82C        4.6680   -0.0620   -0.9800 hc        1 OL1      0.044200
     44 H71C        6.0440    1.5950    0.3350 hc        1 OL1      0.048700
     45 H72C        5.7230    0.6540    1.8440 hc        1 OL1      0.048700
     46 H2          7.0950    0.3110   -1.6600 ha        1 OL1      0.131000
     47 H4          7.1450   -1.1370    2.4120 ha        1 OL1      0.131000
     48 H1          9.0360   -1.1550   -2.2040 ha        1 OL1      0.130000
     49 H5          9.0830   -2.6010    1.8670 ha        1 OL1      0.130000
     50 H6         10.0330   -2.6140   -0.4410 ha        1 OL1      0.130000
@<TRIPOS>BOND
     1    1    2 1   
     2    1   28 1   
     3    2    3 1   
     4    2   14 1   
     5    2   26 1   
     6    3    4 1   
     7    3   13 2   
     8    4    5 1   
     9    5    6 1   
    10    5   12 2   
    11    6    7 ar  
    12    6   11 ar  
    13    7    8 ar  
    14    7   32 1   
    15    8    9 ar  
    16    8   33 1   
    17    9   10 ar  
    18    9   34 1   
    19   10   11 ar  
    20   10   35 1   
    21   12   13 1   
    22   12   31 1   
    23   14   15 1   
    24   14   29 1   
    25   14   30 1   
    26   15   16 1   
    27   15   36 1   
    28   15   37 1   
    29   16   17 1   
    30   16   38 1   
    31   16   39 1   
    32   17   18 1   
    33   17   40 1   
    34   17   41 1   
    35   18   19 1   
    36   18   42 1   
    37   18   43 1   
    38   19   20 1   
    39   19   44 1   
    40   19   45 1   
    41   20   21 ar  
    42   20   22 ar  
    43   21   25 ar  
    44   21   46 1   
    45   22   23 ar  
    46   22   47 1   
    47   23   24 ar  
    48   23   49 1   
    49   24   25 ar  
    50   24   50 1   
    51   25   48 1   
    52   26   27 1   
@<TRIPOS>SUBSTRUCTURE
     1 OL1         1 TEMP              0 ****  ****    0 ROOT
