@<TRIPOS>MOLECULE
OL1
   50    52     1     0     0
SMALL
bcc


@<TRIPOS>ATOM
      1 O14         1.2100    0.3310   -0.1330 oh        1 OL1     -0.599800
      2 C13         2.5220   -0.1750   -0.0430 c3        1 OL1      0.343300
      3 C15         2.9210   -0.3360    1.4100 cc        1 OL1      0.422700
      4 O19         2.8670    0.8520    2.1620 os        1 OL1     -0.369800
      5 C18         3.2680    0.4830    3.4530 cc        1 OL1      0.117400
      6 C20         3.3260    1.4850    4.5000 ca        1 OL1      0.371300
      7 C25         3.7350    1.0640    5.7880 ca        1 OL1     -0.225300
      8 C24         3.8010    2.0060    6.8160 ca        1 OL1     -0.091000
      9 C23         3.4620    3.3300    6.5450 ca        1 OL1     -0.236300
     10 C22         3.0660    3.6600    5.2340 ca        1 OL1      0.400200
     11 N21         2.9940    2.7770    4.2260 nb        1 OL1     -0.643000
     12 C17         3.5420   -0.8860    3.4250 cd        1 OL1      0.248900
     13 N16         3.3190   -1.3800    2.1350 nd        1 OL1     -0.637000
     14 C12         2.6060   -1.5050   -0.7990 c3        1 OL1     -0.044400
     15 C11         2.2070   -1.3420   -2.2490 c3        1 OL1     -0.079400
     16 C10         2.2940   -2.6630   -2.9830 c3        1 OL1     -0.078400
     17 C9          1.8960   -2.5060   -4.4350 c3        1 OL1     -0.079400
     18 C8          1.9800   -3.8260   -5.1710 c3        1 OL1     -0.076400
     19 C7          1.5840   -3.6650   -6.6260 c3        1 OL1     -0.038100
     20 C3          1.6280   -4.9610   -7.3580 ca        1 OL1     -0.076300
     21 C2          0.6420   -5.9290   -7.1330 ca        1 OL1     -0.128000
     22 C4          2.6460   -5.2230   -8.2810 ca        1 OL1     -0.128000
     23 C5          2.6780   -6.4360   -8.9690 ca        1 OL1     -0.128500
     24 C6          1.6930   -7.3960   -8.7410 ca        1 OL1     -0.134000
     25 C1          0.6750   -7.1410   -7.8210 ca        1 OL1     -0.128500
     26 OXT         3.3530    0.7730   -0.6730 oh        1 OL1     -0.599800
     27 HXT         3.3370    1.5900   -0.1570 ho        1 OL1      0.418000
     28 H14         1.1540    1.1400    0.3930 ho        1 OL1      0.418000
     29 H121        3.6590   -1.8780   -0.7230 hc        1 OL1      0.069700
     30 H122        1.9270   -2.2350   -0.2870 hc        1 OL1      0.069700
     31 H17         3.8800   -1.5440    4.2270 h4        1 OL1      0.056100
     32 H25         3.9950    0.0130    5.9710 ha        1 OL1      0.148000
     33 H24         4.1160    1.7020    7.8250 ha        1 OL1      0.145000
     34 H23         3.5010    4.1020    7.3250 ha        1 OL1      0.149000
     35 H22         2.7890    4.6980    4.9720 h4        1 OL1      0.029100
     36 H111        2.8780   -0.5860   -2.7360 hc        1 OL1      0.058700
     37 H112        1.1610   -0.9400   -2.3030 hc        1 OL1      0.058700
     38 H101        1.6230   -3.4150   -2.4880 hc        1 OL1      0.040200
     39 H102        3.3410   -3.0610   -2.9210 hc        1 OL1      0.040200
     40 H91C        0.8490   -2.1060   -4.4970 hc        1 OL1      0.041200
     41 H92C        2.5670   -1.7550   -4.9290 hc        1 OL1      0.041200
     42 H81C        3.0260   -4.2280   -5.1080 hc        1 OL1      0.044200
     43 H82C        1.3060   -4.5780   -4.6810 hc        1 OL1      0.044200
     44 H71C        0.5440   -3.2440   -6.6830 hc        1 OL1      0.047700
     45 H72C        2.2680   -2.9220   -7.1170 hc        1 OL1      0.047700
     46 H2         -0.1610   -5.7290   -6.4090 ha        1 OL1      0.131000
     47 H4          3.4260   -4.4680   -8.4660 ha        1 OL1      0.131000
     48 H1         -0.1030   -7.8960   -7.6390 ha        1 OL1      0.129000
     49 H5          3.4810   -6.6330   -9.6930 ha        1 OL1      0.129000
     50 H6          1.7180   -8.3520   -9.2840 ha        1 OL1      0.129000
@<TRIPOS>BOND
     1    1    2 1   
     2    1   28 1   
     3    2    3 1   
     4    2   14 1   
     5    2   26 1   
     6    3    4 1   
     7    3   13 2   
     8    4    5 1   
     9    5    6 1   
    10    5   12 2   
    11    6    7 ar  
    12    6   11 ar  
    13    7    8 ar  
    14    7   32 1   
    15    8    9 ar  
    16    8   33 1   
    17    9   10 ar  
    18    9   34 1   
    19   10   11 ar  
    20   10   35 1   
    21   12   13 1   
    22   12   31 1   
    23   14   15 1   
    24   14   29 1   
    25   14   30 1   
    26   15   16 1   
    27   15   36 1   
    28   15   37 1   
    29   16   17 1   
    30   16   38 1   
    31   16   39 1   
    32   17   18 1   
    33   17   40 1   
    34   17   41 1   
    35   18   19 1   
    36   18   42 1   
    37   18   43 1   
    38   19   20 1   
    39   19   44 1   
    40   19   45 1   
    41   20   21 ar  
    42   20   22 ar  
    43   21   25 ar  
    44   21   46 1   
    45   22   23 ar  
    46   22   47 1   
    47   23   24 ar  
    48   23   49 1   
    49   24   25 ar  
    50   24   50 1   
    51   25   48 1   
    52   26   27 1   
@<TRIPOS>SUBSTRUCTURE
     1 OL1         1 TEMP              0 ****  ****    0 ROOT
