@<TRIPOS>MOLECULE
OL1
   50    52     1     0     0
SMALL
bcc


@<TRIPOS>ATOM
      1 O14         1.1590    0.2770   -0.0990 oh        1 OL1     -0.599800
      2 C13         2.4900   -0.1790   -0.0370 c3        1 OL1      0.343300
      3 C15         2.9240   -0.3320    1.4080 cc        1 OL1      0.422700
      4 O19         2.8380    0.8500    2.1660 os        1 OL1     -0.369800
      5 C18         3.2780    0.4910    3.4480 cc        1 OL1      0.117400
      6 C20         3.3180    1.4900    4.4990 ca        1 OL1      0.371300
      7 C25         3.7710    1.0810    5.7760 ca        1 OL1     -0.225300
      8 C24         3.8200    2.0210    6.8070 ca        1 OL1     -0.091000
      9 C23         3.4230    3.3310    6.5490 ca        1 OL1     -0.236300
     10 C22         2.9860    3.6500    5.2480 ca        1 OL1      0.400200
     11 N21         2.9280    2.7690    4.2380 nb        1 OL1     -0.643000
     12 C17         3.6030   -0.8660    3.4080 cd        1 OL1      0.248900
     13 N16         3.3740   -1.3630    2.1200 nd        1 OL1     -0.637000
     14 C12         2.6100   -1.5020   -0.8010 c3        1 OL1     -0.044400
     15 C11         2.1780   -1.3490   -2.2430 c3        1 OL1     -0.079400
     16 C10         2.3000   -2.6620   -2.9840 c3        1 OL1     -0.078400
     17 C9          1.8690   -2.5150   -4.4280 c3        1 OL1     -0.079400
     18 C8          1.9890   -3.8280   -5.1710 c3        1 OL1     -0.076400
     19 C7          1.5590   -3.6750   -6.6180 c3        1 OL1     -0.038100
     20 C3          1.6370   -4.9660   -7.3560 ca        1 OL1     -0.076300
     21 C2          0.6920   -5.9710   -7.1180 ca        1 OL1     -0.128000
     22 C4          2.6470   -5.1860   -8.3000 ca        1 OL1     -0.128000
     23 C5          2.7090   -6.3940   -8.9940 ca        1 OL1     -0.128500
     24 C6          1.7650   -7.3910   -8.7520 ca        1 OL1     -0.134000
     25 C1          0.7560   -7.1770   -7.8120 ca        1 OL1     -0.128500
     26 OXT         3.2720    0.8020   -0.6780 oh        1 OL1     -0.599800
     27 HXT         3.2360    1.6150   -0.1580 ho        1 OL1      0.418000
     28 H14         1.0820    1.0810    0.4310 ho        1 OL1      0.418000
     29 H121        3.6780   -1.8350   -0.7470 hc        1 OL1      0.069700
     30 H122        1.9690   -2.2590   -0.2800 hc        1 OL1      0.069700
     31 H17         3.9810   -1.5140    4.1990 h4        1 OL1      0.056100
     32 H25         4.0770    0.0400    5.9470 ha        1 OL1      0.148000
     33 H24         4.1680    1.7250    7.8070 ha        1 OL1      0.145000
     34 H23         3.4470    4.1000    7.3320 ha        1 OL1      0.149000
     35 H22         2.6620    4.6770    4.9970 h4        1 OL1      0.029100
     36 H111        2.8110   -0.5660   -2.7380 hc        1 OL1      0.058700
     37 H112        1.1160   -0.9860   -2.2750 hc        1 OL1      0.058700
     38 H101        1.6680   -3.4410   -2.4800 hc        1 OL1      0.040200
     39 H102        3.3620   -3.0220   -2.9430 hc        1 OL1      0.040200
     40 H91C        0.8080   -2.1530   -4.4680 hc        1 OL1      0.041200
     41 H92C        2.5020   -1.7370   -4.9310 hc        1 OL1      0.041200
     42 H81C        3.0490   -4.1900   -5.1300 hc        1 OL1      0.044200
     43 H82C        1.3520   -4.6060   -4.6720 hc        1 OL1      0.044200
     44 H71C        0.5030   -3.2920   -6.6530 hc        1 OL1      0.047700
     45 H72C        2.2070   -2.9060   -7.1180 hc        1 OL1      0.047700
     46 H2         -0.1040   -5.8030   -6.3770 ha        1 OL1      0.131000
     47 H4          3.3940   -4.4030   -8.4960 ha        1 OL1      0.131000
     48 H1          0.0100   -7.9610   -7.6190 ha        1 OL1      0.129000
     49 H5          3.5060   -6.5590   -9.7350 ha        1 OL1      0.129000
     50 H6          1.8150   -8.3430   -9.3000 ha        1 OL1      0.129000
@<TRIPOS>BOND
     1    1    2 1   
     2    1   28 1   
     3    2    3 1   
     4    2   14 1   
     5    2   26 1   
     6    3    4 1   
     7    3   13 2   
     8    4    5 1   
     9    5    6 1   
    10    5   12 2   
    11    6    7 ar  
    12    6   11 ar  
    13    7    8 ar  
    14    7   32 1   
    15    8    9 ar  
    16    8   33 1   
    17    9   10 ar  
    18    9   34 1   
    19   10   11 ar  
    20   10   35 1   
    21   12   13 1   
    22   12   31 1   
    23   14   15 1   
    24   14   29 1   
    25   14   30 1   
    26   15   16 1   
    27   15   36 1   
    28   15   37 1   
    29   16   17 1   
    30   16   38 1   
    31   16   39 1   
    32   17   18 1   
    33   17   40 1   
    34   17   41 1   
    35   18   19 1   
    36   18   42 1   
    37   18   43 1   
    38   19   20 1   
    39   19   44 1   
    40   19   45 1   
    41   20   21 ar  
    42   20   22 ar  
    43   21   25 ar  
    44   21   46 1   
    45   22   23 ar  
    46   22   47 1   
    47   23   24 ar  
    48   23   49 1   
    49   24   25 ar  
    50   24   50 1   
    51   25   48 1   
    52   26   27 1   
@<TRIPOS>SUBSTRUCTURE
     1 OL1         1 TEMP              0 ****  ****    0 ROOT
