@<TRIPOS>MOLECULE
OL1
   50    46     1     0     0
SMALL
bcc


@<TRIPOS>ATOM
      1 O14        -1.2470    1.6060    1.4970 oh        1 OL1     -0.327000
      2 C13         0.1420    1.4700    1.6770 c3        1 OL1      0.294000
      3 C15         0.4460    1.2910    3.1540 c2        1 OL1     -0.064000
      4 O19        -0.3320    1.7180    4.1890 os        1 OL1     -0.111000
      5 C18         0.3130    1.4450    5.3340 c2        1 OL1     -0.012000
      6 C20        -0.1790    1.6530    6.6170 c1        1 OL1      0.043000
      7 C25         0.2240    2.7640    7.3430 c1        1 OL1     -0.125000
      8 C24        -0.2790    2.9800    8.5950 c1        1 OL1     -0.125000
      9 C23        -1.1760    2.1020    9.1300 c1        1 OL1     -0.125000
     10 C22        -1.5770    0.9910    8.4020 c1        1 OL1     -0.125000
     11 N21        -1.0750    0.7760    7.1530 n1        1 OL1     -0.117000
     12 C17         1.5040    0.8430    5.0160 c1        1 OL1     -0.151000
     13 N16         1.5780    0.7520    3.6750 n2        1 OL1     -0.111000
     14 C12         0.6360    0.2570    0.9080 c3        1 OL1     -0.123000
     15 C11         0.3700    0.4540   -0.5740 c3        1 OL1     -0.158000
     16 C10         0.6230   -0.8490   -1.3120 c3        1 OL1     -0.157000
     17 C9         -0.4830   -1.0790   -2.3260 c3        1 OL1     -0.158000
     18 C8          0.1090   -1.6650   -3.5970 c3        1 OL1     -0.155000
     19 C7         -0.9910   -1.8600   -4.6240 c3        1 OL1     -0.124000
     20 C3         -0.3740   -2.0510   -5.9950 c2        1 OL1     -0.069000
     21 C2          0.3440   -1.0190   -6.5810 c2        1 OL1     -0.128000
     22 C4         -0.6190   -3.2160   -6.7080 c1        1 OL1     -0.128000
     23 C5         -0.1460   -3.3490   -8.0050 c1        1 OL1     -0.125000
     24 C6          0.5720   -2.3170   -8.5900 c1        1 OL1     -0.125000
     25 C1          0.8170   -1.1520   -7.8780 c1        1 OL1     -0.128000
     26 OXT         0.7920    2.6240    1.2010 oh        1 OL1     -0.327000
     27 HXT         0.4330    3.3440    1.5800 ho        1 OL1      0.217000
     28 H14        -1.4670    2.4670    1.5300 ho        1 OL1      0.217000
     29 H121        0.1660   -0.5410    1.2210 hc        1 OL1      0.109000
     30 H122        1.5970    0.1470    1.0540 hc        1 OL1      0.109000
     31 H17         2.1790    0.5340    5.6500 DU        1 OL1      0.193000
     32 H25         0.8650    3.3910    6.9590 ha        1 OL1      0.144333
     33 H24         0.0040    3.7620    9.1060 ha        1 OL1      0.144333
     34 H23        -1.5350    2.2560   10.0240 ha        1 OL1      0.144333
     35 H22        -2.2190    0.3630    8.7850 ha        1 OL1      0.144333
     36 H111        0.9650    1.1470   -0.9230 hc        1 OL1      0.098000
     37 H112       -0.5610    0.7270   -0.7040 hc        1 OL1      0.098000
     38 H101        1.4840   -0.8000   -1.7740 hc        1 OL1      0.079500
     39 H102        0.6380   -1.5880   -0.6730 hc        1 OL1      0.079500
     40 H91C       -1.1400   -1.7000   -1.9560 hc        1 OL1      0.080500
     41 H92C       -0.9190   -0.2280   -2.5320 hc        1 OL1      0.080500
     42 H81C        0.5240   -2.5280   -3.3960 hc        1 OL1      0.083500
     43 H82C        0.7840   -1.0530   -3.9540 hc        1 OL1      0.083500
     44 H71C       -1.5190   -2.6500   -4.3910 hc        1 OL1      0.087000
     45 H72C       -1.5710   -1.0730   -4.6340 hc        1 OL1      0.087000
     46 H2          0.5170   -0.2010   -6.0800 ha        1 OL1      0.131000
     47 H4         -1.1250   -3.9420   -6.2970 ha        1 OL1      0.131000
     48 H1          1.3230   -0.4260   -8.2900 ha        1 OL1      0.129000
     49 H5         -0.3190   -4.1680   -8.5060 ha        1 OL1      0.144333
     50 H6          0.9050   -2.4100   -9.5020 ha        1 OL1      0.144333
@<TRIPOS>BOND
     1    1    2 1   
     2    1   28 1   
     3    2    3 1   
     4    2   14 1   
     5    2   26 1   
     6    3    4 1   
     7    3   13 1   
     8    4    5 1   
     9    5    6 1   
    10    5   12 1   
    11    6   11 1   
    12    7    8 1   
    13    7   32 1   
    14    8   33 1   
    15    9   10 1   
    16    9   34 1   
    17   10   35 1   
    18   12   13 1   
    19   14   15 1   
    20   14   29 1   
    21   14   30 1   
    22   15   16 1   
    23   15   36 1   
    24   15   37 1   
    25   16   17 1   
    26   16   38 1   
    27   16   39 1   
    28   17   18 1   
    29   17   40 1   
    30   17   41 1   
    31   18   19 1   
    32   18   42 1   
    33   18   43 1   
    34   19   20 1   
    35   19   44 1   
    36   19   45 1   
    37   20   21 1   
    38   20   22 1   
    39   21   25 1   
    40   21   46 1   
    41   22   47 1   
    42   23   24 1   
    43   23   49 1   
    44   24   50 1   
    45   25   48 1   
    46   26   27 1   
@<TRIPOS>SUBSTRUCTURE
     1 OL1         1 TEMP              0 ****  ****    0 ROOT
