@<TRIPOS>MOLECULE
OL2
   53    55     1     0     0
SMALL
bcc


@<TRIPOS>ATOM
      1 C01         5.8010    2.5780    2.9210 c3        1 OL2     -0.123100
      2 C02         4.5310    2.7300    2.1160 c3        1 OL2      0.123400
      3 O03         3.7840    1.5080    2.1860 os        1 OL2     -0.355900
      4 C04         3.6090    0.7940    1.0140 ca        1 OL2      0.126100
      5 C05         2.3550    0.1560    0.9420 ca        1 OL2     -0.137000
      6 C06         2.0660   -0.6900   -0.1290 cp        1 OL2     -0.182500
      7 C07         0.7810   -1.4100   -0.1690 cp        1 OL2      0.333500
      8 N08        -0.3680   -0.7240   -0.2170 nb        1 OL2     -0.587000
      9 C09        -1.5350   -1.4330   -0.2240 cp        1 OL2      0.259500
     10 C10        -2.8170   -0.7170   -0.2860 cp        1 OL2     -0.047500
     11 C11        -3.9190   -1.2200    0.4180 ca        1 OL2     -0.210500
     12 C12        -5.1480   -0.5560    0.3510 ca        1 OL2      0.132100
     13 O13        -6.2860   -0.9600    1.0230 os        1 OL2     -0.319400
     14 C14        -6.1860   -2.1860    1.7370 c3        1 OL2      0.111700
     15 C15        -5.2950    0.6100   -0.4300 ca        1 OL2      0.031100
     16 O16        -6.5510    1.1670   -0.5890 os        1 OL2     -0.313900
     17 C17        -6.7140    2.4090    0.0970 c3        1 OL2      0.116700
     18 C18        -4.1670    1.1150   -1.1110 ca        1 OL2      0.132100
     19 O19        -4.3780    2.2830   -1.8180 os        1 OL2     -0.319400
     20 C20        -3.2420    2.8220   -2.4890 c3        1 OL2      0.111700
     21 C21        -2.9360    0.4530   -1.0430 ca        1 OL2     -0.210500
     22 C22        -1.5190   -2.8480   -0.1740 ca        1 OL2      0.332900
     23 N23        -0.3900   -3.5730   -0.1150 nb        1 OL2     -0.728000
     24 C24         0.7920   -2.8750   -0.1260 ca        1 OL2      0.554900
     25 N25         1.9920   -3.5610   -0.1550 nh        1 OL2     -0.938500
     26 C26         3.0030   -0.8610   -1.1550 ca        1 OL2     -0.163000
     27 C27         4.2330   -0.2160   -1.0770 ca        1 OL2     -0.104000
     28 C28         4.5690    0.6050    0.0060 ca        1 OL2     -0.131600
     29 C29         5.9710    1.2080   -0.0010 c         1 OL2      0.911200
     30 O30         6.1240    2.3300   -0.5590 o         1 OL2     -0.818300
     31 O31         6.8970    0.5350    0.5260 o         1 OL2     -0.818300
     32 H011        6.4970    1.8730    2.3960 hc        1 OL2      0.047367
     33 H012        6.2970    3.5720    3.0190 hc        1 OL2      0.047367
     34 H013        5.5780    2.1770    3.9370 hc        1 OL2      0.047367
     35 H021        3.8480    3.4910    2.5860 h1        1 OL2      0.059200
     36 H022        4.7560    3.0250    1.0570 h1        1 OL2      0.059200
     37 H05         1.6200    0.3240    1.7420 ha        1 OL2      0.137000
     38 H26         2.7640   -1.4960   -2.0200 ha        1 OL2      0.121000
     39 H22        -2.4560   -3.4310   -0.1870 h4        1 OL2      0.020100
     40 H11        -3.8050   -2.1220    1.0340 ha        1 OL2      0.152000
     41 H21        -2.0570    0.8480   -1.5740 ha        1 OL2      0.152000
     42 H141       -5.4420   -2.1010    2.5660 h1        1 OL2      0.045033
     43 H142       -7.2180   -2.3310    2.1470 h1        1 OL2      0.045033
     44 H143       -5.9140   -3.0250    1.0520 h1        1 OL2      0.045033
     45 H171       -6.5980    2.2620    1.1980 h1        1 OL2      0.038033
     46 H172       -5.9770    3.1600   -0.2780 h1        1 OL2      0.038033
     47 H173       -7.7590    2.7150   -0.1550 h1        1 OL2      0.038033
     48 H201       -2.4310    3.0670   -1.7610 h1        1 OL2      0.045033
     49 H202       -2.8710    2.1110   -3.2660 h1        1 OL2      0.045033
     50 H203       -3.6430    3.7520   -2.9650 h1        1 OL2      0.045033
     51 H251        2.8090   -3.0290    0.0470 hn        1 OL2      0.433300
     52 H252        1.9950   -4.5170    0.1080 hn        1 OL2      0.433300
     53 H27         4.9760   -0.3520   -1.8790 ha        1 OL2      0.139000
@<TRIPOS>BOND
     1    1    2 1   
     2    1   32 1   
     3    1   33 1   
     4    1   34 1   
     5    2    3 1   
     6    2   35 1   
     7    2   36 1   
     8    3    4 1   
     9    4    5 ar  
    10    4   28 ar  
    11    5    6 ar  
    12    5   37 1   
    13    6    7 1   
    14    6   26 ar  
    15    7    8 ar  
    16    7   24 ar  
    17    8    9 ar  
    18    9   10 1   
    19    9   22 ar  
    20   10   11 ar  
    21   10   21 ar  
    22   11   12 ar  
    23   11   40 1   
    24   12   13 1   
    25   12   15 ar  
    26   13   14 1   
    27   14   42 1   
    28   14   43 1   
    29   14   44 1   
    30   15   16 1   
    31   15   18 ar  
    32   16   17 1   
    33   17   45 1   
    34   17   46 1   
    35   17   47 1   
    36   18   19 1   
    37   18   21 ar  
    38   19   20 1   
    39   20   48 1   
    40   20   49 1   
    41   20   50 1   
    42   21   41 1   
    43   22   23 ar  
    44   22   39 1   
    45   23   24 ar  
    46   24   25 1   
    47   25   51 1   
    48   25   52 1   
    49   26   27 ar  
    50   26   38 1   
    51   27   28 ar  
    52   27   53 1   
    53   28   29 1   
    54   29   30 1   
    55   29   31 1   
@<TRIPOS>SUBSTRUCTURE
     1 OL2         1 TEMP              0 ****  ****    0 ROOT
