@<TRIPOS>MOLECULE
OL2
   53    45     1     0     0
SMALL
bcc


@<TRIPOS>ATOM
      1 C01         0.0130    1.1850    6.8170 c3        1 OL2     -0.209000
      2 C02        -0.2600    0.6720    5.4250 c3        1 OL2     -0.042000
      3 O03        -0.1990   -0.7550    5.4200 os        1 OL2     -0.239000
      4 C04        -0.6700   -1.3520    4.1970 c2        1 OL2      0.060000
      5 C05         0.1520   -1.3910    3.0830 c1        1 OL2     -0.127000
      6 C06        -0.2820   -2.0090    1.9280 c1        1 OL2     -0.098000
      7 C07         0.5260   -1.9990    0.7790 c1        1 OL2     -0.037000
      8 N08         0.3420   -1.0640   -0.1670 n1        1 OL2     -0.065000
      9 C09         1.1270   -1.0560   -1.2660 c1        1 OL2     -0.098000
     10 C10         0.9160   -0.0640   -2.3040 c1        1 OL2      0.038000
     11 C11         1.4500    1.2460   -2.1540 c1        1 OL2     -0.172000
     12 C12         1.1990    2.2150   -3.1300 c1        1 OL2      0.063000
     13 O13         1.7230    3.5140   -2.9840 o         1 OL2     -0.220000
     14 C14         0.9470    4.3520   -2.1840 c3        1 OL2     -0.075500
     15 C15         0.4350    1.8990   -4.2360 c2        1 OL2     -0.008000
     16 O16         0.1460    2.8640   -5.1680 os        1 OL2     -0.216000
     17 C17         1.1690    3.0410   -6.1430 c3        1 OL2     -0.071000
     18 C18        -0.0960    0.5910   -4.3830 c1        1 OL2      0.064000
     19 O19        -0.8490    0.2620   -5.5210 o         1 OL2     -0.220000
     20 C20        -2.2510    0.4340   -5.3440 c3        1 OL2     -0.075500
     21 C21         0.1520   -0.3760   -3.4120 c2        1 OL2     -0.162000
     22 C22         2.1250   -2.0180   -1.4150 c1        1 OL2     -0.105500
     23 N23         2.3070   -2.9540   -0.4670 n1        1 OL2     -0.200000
     24 C24         1.5320   -2.9650    0.6230 c1        1 OL2      0.098000
     25 N25         1.6290   -4.0440    1.5520 n3        1 OL2     -0.334000
     26 C26        -1.5440   -2.5910    1.8860 c1        1 OL2     -0.105500
     27 C27        -2.3630   -2.5490    3.0040 c1        1 OL2     -0.115000
     28 C28        -1.9290   -1.9340    4.1520 c2        1 OL2     -0.083000
     29 C29        -2.8420   -1.9130    5.4160 c2        1 OL2      0.366000
     30 O30        -3.6400   -0.9400    5.6100 o         1 OL2     -0.551500
     31 O31        -2.7840   -2.8720    6.2630 o         1 OL2     -0.551500
     32 H011       -0.5560    0.6760    7.4800 hc        1 OL2      0.073000
     33 H012       -0.2130    2.1630    6.8640 hc        1 OL2      0.073000
     34 H013        0.9900    1.0530    7.0400 hc        1 OL2      0.073000
     35 H021        0.4040    1.0240    4.8130 h1        1 OL2      0.101000
     36 H022       -1.1440    0.9590    5.1430 h1        1 OL2      0.101000
     37 H05         1.0020   -0.9090    3.0880 ha        1 OL2      0.132000
     38 H26        -1.8520   -3.0550    1.0610 ha        1 OL2      0.141500
     39 H22         2.6920   -2.0140   -2.2140 ha        1 OL2      0.141500
     40 H11         1.8880    1.5040   -1.3040 ha        1 OL2      0.165000
     41 H21        -0.2350   -1.3180   -3.5180 ha        1 OL2      0.149000
     42 H141       -0.0180    4.2300   -2.4100 h1        1 OL2      0.084667
     43 H142        1.1970    5.2610   -2.3390 h1        1 OL2      0.084667
     44 H143        1.0920    4.1310   -1.2400 h1        1 OL2      0.084667
     45 H171        1.4200    2.1640   -6.5170 h1        1 OL2      0.080000
     46 H172        0.8470    3.6100   -6.8500 h1        1 OL2      0.080000
     47 H173        1.9670    3.4620   -5.7160 h1        1 OL2      0.080000
     48 H201       -2.5280    0.0320   -4.4600 h1        1 OL2      0.084667
     49 H202       -2.4620    1.3760   -5.3480 h1        1 OL2      0.084667
     50 H203       -2.7430   -0.0220   -6.0880 h1        1 OL2      0.084667
     51 H251        2.1710   -4.7680    1.3650 hn        1 OL2      0.227500
     52 H252        1.1470   -4.0320    2.2980 hn        1 OL2      0.227500
     53 H27        -3.2450   -2.9560    2.9760 ha        1 OL2      0.141000
@<TRIPOS>BOND
     1    1    2 1   
     2    1   32 1   
     3    1   33 1   
     4    1   34 1   
     5    2    3 1   
     6    2   35 1   
     7    2   36 1   
     8    3    4 1   
     9    4    5 1   
    10    4   28 1   
    11    5   37 1   
    12    6   26 1   
    13    7    8 1   
    14    9   22 1   
    15   10   21 1   
    16   11   12 1   
    17   11   40 1   
    18   12   15 1   
    19   13   14 1   
    20   14   42 1   
    21   14   43 1   
    22   14   44 1   
    23   15   16 1   
    24   15   18 1   
    25   16   17 1   
    26   17   45 1   
    27   17   46 1   
    28   17   47 1   
    29   18   21 1   
    30   19   20 1   
    31   20   48 1   
    32   20   49 1   
    33   20   50 1   
    34   21   41 1   
    35   22   39 1   
    36   23   24 1   
    37   24   25 1   
    38   25   51 1   
    39   25   52 1   
    40   26   38 1   
    41   27   28 1   
    42   27   53 1   
    43   28   29 1   
    44   29   30 1   
    45   29   31 1   
@<TRIPOS>SUBSTRUCTURE
     1 OL2         1 TEMP              0 ****  ****    0 ROOT
