@<TRIPOS>MOLECULE
OL2
   53    55     1     0     0
SMALL
bcc


@<TRIPOS>ATOM
      1 C01         0.0950   -1.8360    1.9830 c3        1 OL2     -0.124100
      2 C02         0.6610   -0.7110    1.1470 c3        1 OL2      0.122400
      3 O03         1.9230   -1.1200    0.6040 os        1 OL2     -0.354900
      4 C04         3.0580   -0.4560    1.0350 ca        1 OL2      0.131100
      5 C05         4.0340   -0.3320    0.0240 ca        1 OL2     -0.133000
      6 C06         5.2760    0.2230    0.3250 cp        1 OL2     -0.173500
      7 C07         6.3270    0.3040   -0.7050 cp        1 OL2      0.327500
      8 N08         6.1410    1.0530   -1.7970 nb        1 OL2     -0.583000
      9 C09         7.1590    1.1190   -2.7060 cp        1 OL2      0.250500
     10 C10         6.9920    1.9230   -3.9240 cp        1 OL2     -0.044500
     11 C11         7.5690    1.4800   -5.1220 ca        1 OL2     -0.212500
     12 C12         7.4390    2.2500   -6.2820 ca        1 OL2      0.133600
     13 O13         7.9490    1.8870   -7.5150 os        1 OL2     -0.318400
     14 C14         8.7320    0.7000   -7.5420 c3        1 OL2      0.111700
     15 C15         6.7340    3.4720   -6.2610 ca        1 OL2      0.028100
     16 O16         6.7100    4.3070   -7.3630 os        1 OL2     -0.313900
     17 C17         5.7870    3.8880   -8.3690 c3        1 OL2      0.116700
     18 C18         6.1300    3.8840   -5.0540 ca        1 OL2      0.133600
     19 O19         5.4220    5.0670   -5.1250 os        1 OL2     -0.318400
     20 C20         4.8000    5.4950   -3.9160 c3        1 OL2      0.111700
     21 C21         6.2680    3.1200   -3.8890 ca        1 OL2     -0.212500
     22 C22         8.3760    0.4340   -2.4760 ca        1 OL2      0.337900
     23 N23         8.6000   -0.3370   -1.3990 nb        1 OL2     -0.737000
     24 C24         7.5710   -0.4460   -0.4960 ca        1 OL2      0.571900
     25 N25         7.6910   -1.2970    0.5770 nv        1 OL2     -0.954500
     26 C26         5.5350    0.6980    1.6180 ca        1 OL2     -0.178000
     27 C27         4.5590    0.5790    2.6020 ca        1 OL2     -0.099000
     28 C28         3.3160   -0.0100    2.3400 ca        1 OL2     -0.134600
     29 C29         2.3580   -0.1260    3.5220 c         1 OL2      0.911200
     30 O30         1.5580    0.8310    3.7260 o         1 OL2     -0.818300
     31 O31         2.4430   -1.1560    4.2440 o         1 OL2     -0.818300
     32 H011       -0.9600   -1.5970    2.2570 hc        1 OL2      0.047367
     33 H012        0.1170   -2.7970    1.4170 hc        1 OL2      0.047367
     34 H013        0.6980   -1.9510    2.9200 hc        1 OL2      0.047367
     35 H021        0.0250   -0.5290    0.2380 h1        1 OL2      0.059700
     36 H022        0.7480    0.2350    1.7450 h1        1 OL2      0.059700
     37 H05         3.8070   -0.6890   -0.9900 ha        1 OL2      0.139000
     38 H26         6.4980    1.1740    1.8480 ha        1 OL2      0.113000
     39 H22         9.2200    0.5160   -3.1830 h4        1 OL2      0.019100
     40 H11         8.1070    0.5220   -5.1430 ha        1 OL2      0.152000
     41 H21         5.8020    3.4450   -2.9470 ha        1 OL2      0.152000
     42 H141        9.0700    0.6360   -8.6070 h1        1 OL2      0.044700
     43 H142        8.1110   -0.1890   -7.2720 h1        1 OL2      0.044700
     44 H143        9.6090    0.7860   -6.8550 h1        1 OL2      0.044700
     45 H171        4.7450    3.8920   -7.9670 h1        1 OL2      0.037033
     46 H172        5.9060    4.6550   -9.1740 h1        1 OL2      0.037033
     47 H173        6.0590    2.8710   -8.7430 h1        1 OL2      0.037033
     48 H201        4.0580    4.7390   -3.5630 h1        1 OL2      0.044700
     49 H202        4.2870    6.4440   -4.2150 h1        1 OL2      0.044700
     50 H203        5.5660    5.6930   -3.1270 h1        1 OL2      0.044700
     51 H251        6.9900   -1.2590    1.2800 hn        1 OL2      0.443800
     52 H252        8.5690   -1.6960    0.7960 hn        1 OL2      0.443800
     53 H27         4.7580    0.9460    3.6210 ha        1 OL2      0.138000
@<TRIPOS>BOND
     1    1    2 1   
     2    1   32 1   
     3    1   33 1   
     4    1   34 1   
     5    2    3 1   
     6    2   35 1   
     7    2   36 1   
     8    3    4 1   
     9    4    5 ar  
    10    4   28 ar  
    11    5    6 ar  
    12    5   37 1   
    13    6    7 1   
    14    6   26 ar  
    15    7    8 ar  
    16    7   24 ar  
    17    8    9 ar  
    18    9   10 1   
    19    9   22 ar  
    20   10   11 ar  
    21   10   21 ar  
    22   11   12 ar  
    23   11   40 1   
    24   12   13 1   
    25   12   15 ar  
    26   13   14 1   
    27   14   42 1   
    28   14   43 1   
    29   14   44 1   
    30   15   16 1   
    31   15   18 ar  
    32   16   17 1   
    33   17   45 1   
    34   17   46 1   
    35   17   47 1   
    36   18   19 1   
    37   18   21 ar  
    38   19   20 1   
    39   20   48 1   
    40   20   49 1   
    41   20   50 1   
    42   21   41 1   
    43   22   23 ar  
    44   22   39 1   
    45   23   24 ar  
    46   24   25 1   
    47   25   51 1   
    48   25   52 1   
    49   26   27 ar  
    50   26   38 1   
    51   27   28 ar  
    52   27   53 1   
    53   28   29 1   
    54   29   30 1   
    55   29   31 1   
@<TRIPOS>SUBSTRUCTURE
     1 OL2         1 TEMP              0 ****  ****    0 ROOT
