@<TRIPOS>MOLECULE
OL2
   53    55     1     0     0
SMALL
bcc


@<TRIPOS>ATOM
      1 C01         0.0920   -1.8690    1.8670 c3        1 OL2     -0.123100
      2 C02         0.6830   -0.7330    1.0660 c3        1 OL2      0.123400
      3 O03         1.9600   -1.1360    0.5530 os        1 OL2     -0.355900
      4 C04         3.0780   -0.4630    1.0130 ca        1 OL2      0.126100
      5 C05         4.0700   -0.3080    0.0240 ca        1 OL2     -0.136000
      6 C06         5.3020    0.2550    0.3580 cp        1 OL2     -0.182500
      7 C07         6.3640    0.3530   -0.6590 cp        1 OL2      0.333500
      8 N08         6.1680    1.0880   -1.7610 nb        1 OL2     -0.587000
      9 C09         7.1690    1.1250   -2.6890 cp        1 OL2      0.258500
     10 C10         6.9980    1.9280   -3.9080 cp        1 OL2     -0.046500
     11 C11         7.5230    1.4570   -5.1190 ca        1 OL2     -0.211500
     12 C12         7.3880    2.2260   -6.2790 ca        1 OL2      0.133600
     13 O13         7.8480    1.8390   -7.5240 os        1 OL2     -0.318400
     14 C14         8.5910    0.6260   -7.5660 c3        1 OL2      0.111200
     15 C15         6.7300    3.4730   -6.2440 ca        1 OL2      0.029100
     16 O16         6.7050    4.3040   -7.3500 os        1 OL2     -0.313900
     17 C17         5.7390    3.9140   -8.3280 c3        1 OL2      0.116700
     18 C18         6.1760    3.9140   -5.0240 ca        1 OL2      0.133600
     19 O19         5.5120    5.1220   -5.0800 os        1 OL2     -0.318400
     20 C20         4.9400    5.5780   -3.8570 c3        1 OL2      0.111200
     21 C21         6.3200    3.1500   -3.8580 ca        1 OL2     -0.211500
     22 C22         8.3680    0.3980   -2.4860 ca        1 OL2      0.332900
     23 N23         8.5990   -0.3580   -1.4010 nb        1 OL2     -0.728000
     24 C24         7.6100   -0.3900   -0.4490 ca        1 OL2      0.555900
     25 N25         7.8180   -1.0790    0.7300 nh        1 OL2     -0.938500
     26 C26         5.5290    0.7120    1.6620 ca        1 OL2     -0.163000
     27 C27         4.5370    0.5640    2.6250 ca        1 OL2     -0.104000
     28 C28         3.3070   -0.0370    2.3310 ca        1 OL2     -0.131600
     29 C29         2.3270   -0.1930    3.4900 c         1 OL2      0.911200
     30 O30         1.5160    0.7500    3.7040 o         1 OL2     -0.818800
     31 O31         2.4050   -1.2440    4.1830 o         1 OL2     -0.818800
     32 H011       -0.9690   -1.6330    2.1170 hc        1 OL2      0.047367
     33 H012        0.1280   -2.8210    1.2860 hc        1 OL2      0.047367
     34 H013        0.6710   -2.0020    2.8180 hc        1 OL2      0.047367
     35 H021        0.0720   -0.5330    0.1420 h1        1 OL2      0.059200
     36 H022        0.7540    0.2030    1.6830 h1        1 OL2      0.059200
     37 H05         3.8640   -0.6470   -1.0010 ha        1 OL2      0.137000
     38 H26         6.4840    1.1920    1.9190 ha        1 OL2      0.121000
     39 H22         9.1850    0.4270   -3.2280 h4        1 OL2      0.020100
     40 H11         8.0240    0.4800   -5.1500 ha        1 OL2      0.152000
     41 H21         5.8930    3.4970   -2.9060 ha        1 OL2      0.152000
     42 H141        7.9490   -0.2400   -7.2740 h1        1 OL2      0.044867
     43 H142        8.8970    0.5470   -8.6390 h1        1 OL2      0.044867
     44 H143        9.4900    0.6880   -6.9040 h1        1 OL2      0.044867
     45 H171        4.7100    3.9590   -7.8960 h1        1 OL2      0.037367
     46 H172        5.8630    4.6730   -9.1390 h1        1 OL2      0.037367
     47 H173        5.9630    2.8860   -8.7030 h1        1 OL2      0.037367
     48 H201        5.7340    5.7510   -3.0910 h1        1 OL2      0.044867
     49 H202        4.1810    4.8510   -3.4790 h1        1 OL2      0.044867
     50 H203        4.4540    6.5440   -4.1470 h1        1 OL2      0.044867
     51 H251        8.5440   -1.7540    0.7610 hn        1 OL2      0.433300
     52 H252        7.0120   -1.2480    1.2900 hn        1 OL2      0.433300
     53 H27         4.7130    0.9160    3.6540 ha        1 OL2      0.139000
@<TRIPOS>BOND
     1    1    2 1   
     2    1   32 1   
     3    1   33 1   
     4    1   34 1   
     5    2    3 1   
     6    2   35 1   
     7    2   36 1   
     8    3    4 1   
     9    4    5 ar  
    10    4   28 ar  
    11    5    6 ar  
    12    5   37 1   
    13    6    7 1   
    14    6   26 ar  
    15    7    8 ar  
    16    7   24 ar  
    17    8    9 ar  
    18    9   10 1   
    19    9   22 ar  
    20   10   11 ar  
    21   10   21 ar  
    22   11   12 ar  
    23   11   40 1   
    24   12   13 1   
    25   12   15 ar  
    26   13   14 1   
    27   14   42 1   
    28   14   43 1   
    29   14   44 1   
    30   15   16 1   
    31   15   18 ar  
    32   16   17 1   
    33   17   45 1   
    34   17   46 1   
    35   17   47 1   
    36   18   19 1   
    37   18   21 ar  
    38   19   20 1   
    39   20   48 1   
    40   20   49 1   
    41   20   50 1   
    42   21   41 1   
    43   22   23 ar  
    44   22   39 1   
    45   23   24 ar  
    46   24   25 1   
    47   25   51 1   
    48   25   52 1   
    49   26   27 ar  
    50   26   38 1   
    51   27   28 ar  
    52   27   53 1   
    53   28   29 1   
    54   29   30 1   
    55   29   31 1   
@<TRIPOS>SUBSTRUCTURE
     1 OL2         1 TEMP              0 ****  ****    0 ROOT
