@<TRIPOS>MOLECULE
OL2
   54    56     1     0     0
SMALL
bcc


@<TRIPOS>ATOM
      1 C01         0.3560   -2.1800    1.9820 c3        1 OL2     -0.132100
      2 C02         0.5750   -0.8100    1.3890 c3        1 OL2      0.120400
      3 O03         1.7490   -0.8170    0.5610 os        1 OL2     -0.344900
      4 C04         2.9170   -0.2730    1.0350 ca        1 OL2      0.161100
      5 C05         3.8460   -0.0360   -0.0060 ca        1 OL2     -0.128000
      6 C06         5.1120    0.4560    0.3010 cp        1 OL2     -0.248500
      7 C07         6.1670    0.4870   -0.7150 cp        1 OL2      0.491500
      8 N08         6.0460    1.1860   -1.8710 nb        1 OL2     -0.609000
      9 C09         7.0770    1.1470   -2.7440 cp        1 OL2      0.438500
     10 C10         7.0030    1.8890   -4.0090 cp        1 OL2     -0.130500
     11 C11         7.6040    1.3480   -5.1540 ca        1 OL2     -0.186500
     12 C12         7.5480    2.0530   -6.3600 ca        1 OL2      0.131100
     13 O13         8.0810    1.6040   -7.5490 os        1 OL2     -0.305900
     14 C14         8.8100    0.3830   -7.4940 c3        1 OL2      0.108200
     15 C15         6.9110    3.3140   -6.4290 ca        1 OL2      0.080100
     16 O16         7.0160    4.0400   -7.5960 os        1 OL2     -0.307900
     17 C17         5.7740    4.2570   -8.2720 c3        1 OL2      0.113700
     18 C18         6.2960    3.8300   -5.2690 ca        1 OL2      0.131100
     19 O19         5.6690    5.0470   -5.4220 os        1 OL2     -0.305900
     20 C20         5.0240    5.5810   -4.2680 c3        1 OL2      0.108200
     21 C21         6.3380    3.1180   -4.0620 ca        1 OL2     -0.186500
     22 C22         8.2690    0.3900   -2.4500 ca        1 OL2      0.287900
     23 N23         8.4070   -0.3250   -1.3340 nb        1 OL2     -0.612000
     24 C24         7.3510   -0.2880   -0.4650 ca        1 OL2      0.261900
     25 N25         7.4380   -1.0870    0.7660 n4        1 OL2     -0.800300
     26 C26         5.4280    0.8390    1.6170 ca        1 OL2     -0.223000
     27 C27         4.5020    0.6100    2.6250 ca        1 OL2     -0.084000
     28 C28         3.2710   -0.0090    2.3680 ca        1 OL2     -0.138600
     29 C29         2.5000   -0.4540    3.6220 c         1 OL2      0.916200
     30 O30         2.8480   -1.5740    4.0800 o         1 OL2     -0.789800
     31 O31         1.6440    0.3270    4.1030 o         1 OL2     -0.789800
     32 H011        0.4200   -2.9660    1.1920 hc        1 OL2      0.055033
     33 H012       -0.6560   -2.2160    2.4520 hc        1 OL2      0.055033
     34 H013        1.1240   -2.3910    2.7700 hc        1 OL2      0.055033
     35 H021        0.6290   -0.0160    2.1800 h1        1 OL2      0.075700
     36 H022       -0.2370   -0.5570    0.6510 h1        1 OL2      0.075700
     37 H05         3.5630   -0.2730   -1.0420 ha        1 OL2      0.154000
     38 H26         6.3720    1.3570    1.8340 ha        1 OL2      0.114000
     39 H22         9.1260    0.3850   -3.1480 h4        1 OL2      0.060100
     40 H11         8.0920    0.3650   -5.1100 ha        1 OL2      0.153000
     41 H21         5.8530    3.5230   -3.1620 ha        1 OL2      0.153000
     42 H141        9.1730    0.2560   -8.5470 h1        1 OL2      0.051033
     43 H142        9.6720    0.4650   -6.7880 h1        1 OL2      0.051033
     44 H143        8.1410   -0.4630   -7.2040 h1        1 OL2      0.051033
     45 H171        6.0730    4.8500   -9.1720 h1        1 OL2      0.048033
     46 H172        5.3210    3.2810   -8.5700 h1        1 OL2      0.048033
     47 H173        5.0730    4.8370   -7.6250 h1        1 OL2      0.048033
     48 H201        5.7670    5.7710   -3.4550 h1        1 OL2      0.051033
     49 H202        4.5940    6.5450   -4.6420 h1        1 OL2      0.051033
     50 H203        4.2160    4.8960   -3.9140 h1        1 OL2      0.051033
     51 H251        7.9550   -0.5560    1.4750 hn        1 OL2      0.472467
     52 H252        6.4740   -1.2510    1.1160 hn        1 OL2      0.472467
     53 H27         4.7340    0.8920    3.6660 ha        1 OL2      0.159000
     54 H253        7.9090   -1.9790    0.5920 hn        1 OL2      0.472467
@<TRIPOS>BOND
     1    1    2 1   
     2    1   32 1   
     3    1   33 1   
     4    1   34 1   
     5    2    3 1   
     6    2   35 1   
     7    2   36 1   
     8    3    4 1   
     9    4    5 ar  
    10    4   28 ar  
    11    5    6 ar  
    12    5   37 1   
    13    6    7 1   
    14    6   26 ar  
    15    7    8 ar  
    16    7   24 ar  
    17    8    9 ar  
    18    9   10 1   
    19    9   22 ar  
    20   10   11 ar  
    21   10   21 ar  
    22   11   12 ar  
    23   11   40 1   
    24   12   13 1   
    25   12   15 ar  
    26   13   14 1   
    27   14   42 1   
    28   14   43 1   
    29   14   44 1   
    30   15   16 1   
    31   15   18 ar  
    32   16   17 1   
    33   17   45 1   
    34   17   46 1   
    35   17   47 1   
    36   18   19 1   
    37   18   21 ar  
    38   19   20 1   
    39   20   48 1   
    40   20   49 1   
    41   20   50 1   
    42   21   41 1   
    43   22   23 ar  
    44   22   39 1   
    45   23   24 ar  
    46   24   25 1   
    47   25   51 1   
    48   25   52 1   
    49   25   54 1   
    50   26   27 ar  
    51   26   38 1   
    52   27   28 ar  
    53   27   53 1   
    54   28   29 1   
    55   29   30 1   
    56   29   31 1   
@<TRIPOS>SUBSTRUCTURE
     1 OL2         1 TEMP              0 ****  ****    0 ROOT
