@<TRIPOS>MOLECULE
OLA
   53    52     1     0     0
SMALL
bcc


@<TRIPOS>ATOM
      1 C1          0.5540    0.8790    0.3780 c         1 OLA      0.907600
      2 O1          0.9530    2.0720    0.2340 o         1 OLA     -0.853300
      3 O2          0.6740    0.2230    1.4520 o         1 OLA     -0.853300
      4 C2         -0.1390    0.1880   -0.8100 c3        1 OLA     -0.194400
      5 C3          0.6250    0.4040   -2.0930 c3        1 OLA     -0.065400
      6 C4         -0.1370   -0.1090   -3.2980 c3        1 OLA     -0.078400
      7 C5          0.6460    0.0960   -4.5770 c3        1 OLA     -0.078400
      8 C6         -0.1180   -0.4090   -5.7820 c3        1 OLA     -0.079400
      9 C7          0.6670   -0.2040   -7.0600 c3        1 OLA     -0.077400
     10 C8         -0.1010   -0.7100   -8.2640 c3        1 OLA     -0.052200
     11 C9          0.6440   -0.5240   -9.5300 c2        1 OLA     -0.159200
     12 C10         0.1860   -0.9070  -10.7270 c2        1 OLA     -0.191200
     13 C11        -1.1240   -1.5680  -10.9310 c3        1 OLA     -0.046200
     14 C12        -1.3930   -1.8720  -12.3900 c3        1 OLA     -0.076400
     15 C13        -2.7370   -2.5460  -12.5690 c3        1 OLA     -0.080400
     16 C14        -3.0100   -2.8510  -14.0260 c3        1 OLA     -0.078400
     17 C15        -4.3540   -3.5240  -14.2050 c3        1 OLA     -0.079400
     18 C16        -4.6260   -3.8300  -15.6620 c3        1 OLA     -0.078400
     19 C17        -5.9700   -4.5030  -15.8420 c3        1 OLA     -0.080400
     20 C18        -6.2470   -4.8090  -17.2920 c3        1 OLA     -0.092100
     21 H21        -0.2390   -0.9050   -0.5960 hc        1 OLA      0.018700
     22 H22        -1.1690    0.6170   -0.9010 hc        1 OLA      0.018700
     23 H31         1.6170   -0.1150   -2.0290 hc        1 OLA      0.044200
     24 H32         0.8330    1.5020   -2.2070 hc        1 OLA      0.044200
     25 H41        -0.3590   -1.2010   -3.1650 hc        1 OLA      0.025700
     26 H42        -1.1220    0.4220   -3.3720 hc        1 OLA      0.025700
     27 H51         1.6300   -0.4390   -4.5040 hc        1 OLA      0.036700
     28 H52         0.8730    1.1870   -4.7050 hc        1 OLA      0.036700
     29 H61        -1.1010    0.1270   -5.8550 hc        1 OLA      0.034200
     30 H62        -0.3460   -1.5000   -5.6520 hc        1 OLA      0.034200
     31 H71         0.8950    0.8870   -7.1900 hc        1 OLA      0.039200
     32 H72         1.6490   -0.7410   -6.9870 hc        1 OLA      0.039200
     33 H81        -0.3370   -1.8020   -8.1270 hc        1 OLA      0.046700
     34 H82        -1.0890   -0.1750   -8.3310 hc        1 OLA      0.046700
     35 H9          1.6290   -0.0360   -9.4420 ha        1 OLA      0.122000
     36 H10         0.7890   -0.7400  -11.6340 ha        1 OLA      0.116000
     37 H111       -1.1570   -2.5220  -10.3360 hc        1 OLA      0.047700
     38 H112       -1.9420   -0.9100  -10.5270 hc        1 OLA      0.047700
     39 H121       -0.5840   -2.5360  -12.7920 hc        1 OLA      0.038700
     40 H122       -1.3670   -0.9210  -12.9840 hc        1 OLA      0.038700
     41 H131       -2.7640   -3.4970  -11.9740 hc        1 OLA      0.040700
     42 H132       -3.5470   -1.8820  -12.1660 hc        1 OLA      0.040700
     43 H141       -2.2000   -3.5150  -14.4290 hc        1 OLA      0.038200
     44 H142       -2.9830   -1.9000  -14.6210 hc        1 OLA      0.038200
     45 H151       -4.3800   -4.4750  -13.6100 hc        1 OLA      0.039700
     46 H152       -5.1630   -2.8600  -13.8020 hc        1 OLA      0.039700
     47 H161       -4.6000   -2.8790  -16.2570 hc        1 OLA      0.038700
     48 H162       -3.8170   -4.4940  -16.0650 hc        1 OLA      0.038700
     49 H171       -6.7780   -3.8380  -15.4370 hc        1 OLA      0.038700
     50 H172       -5.9950   -5.4520  -15.2450 hc        1 OLA      0.038700
     51 H181       -5.4650   -5.4910  -17.7060 hc        1 OLA      0.031033
     52 H182       -7.2410   -5.3040  -17.4020 hc        1 OLA      0.031033
     53 H183       -6.2500   -3.8720  -17.8990 hc        1 OLA      0.031033
@<TRIPOS>BOND
     1    1    2 1   
     2    1    3 1   
     3    1    4 1   
     4    4    5 1   
     5    4   21 1   
     6    4   22 1   
     7    5    6 1   
     8    5   23 1   
     9    5   24 1   
    10    6    7 1   
    11    6   25 1   
    12    6   26 1   
    13    7    8 1   
    14    7   27 1   
    15    7   28 1   
    16    8    9 1   
    17    8   29 1   
    18    8   30 1   
    19    9   10 1   
    20    9   31 1   
    21    9   32 1   
    22   10   11 1   
    23   10   33 1   
    24   10   34 1   
    25   11   12 2   
    26   11   35 1   
    27   12   13 1   
    28   12   36 1   
    29   13   14 1   
    30   13   37 1   
    31   13   38 1   
    32   14   15 1   
    33   14   39 1   
    34   14   40 1   
    35   15   16 1   
    36   15   41 1   
    37   15   42 1   
    38   16   17 1   
    39   16   43 1   
    40   16   44 1   
    41   17   18 1   
    42   17   45 1   
    43   17   46 1   
    44   18   19 1   
    45   18   47 1   
    46   18   48 1   
    47   19   20 1   
    48   19   49 1   
    49   19   50 1   
    50   20   51 1   
    51   20   52 1   
    52   20   53 1   
@<TRIPOS>SUBSTRUCTURE
     1 OLA         1 TEMP              0 ****  ****    0 ROOT
