@<TRIPOS>MOLECULE
OLA
   53    52     1     0     0
SMALL
bcc


@<TRIPOS>ATOM
      1 C1          0.7530    0.3220   -8.9360 c         1 OLA      0.907600
      2 O1         -0.1100    1.2030   -9.2190 o         1 OLA     -0.853300
      3 O2          1.3180   -0.4110   -9.7980 o         1 OLA     -0.853300
      4 C2          1.1620    0.1400   -7.4640 c3        1 OLA     -0.194400
      5 C3         -0.0460    0.0960   -6.5600 c3        1 OLA     -0.065400
      6 C4          0.3430    0.1040   -5.0960 c3        1 OLA     -0.078400
      7 C5         -0.8750    0.0410   -4.1990 c3        1 OLA     -0.078400
      8 C6         -0.4870    0.0590   -2.7360 c3        1 OLA     -0.079400
      9 C7         -1.7060   -0.0060   -1.8400 c3        1 OLA     -0.077400
     10 C8         -1.3130    0.0120   -0.3770 c3        1 OLA     -0.053200
     11 C9         -2.4870   -0.0520    0.5250 c2        1 OLA     -0.159200
     12 C10        -2.4010   -0.0690    1.8590 c2        1 OLA     -0.191200
     13 C11        -1.1180   -0.0280    2.5990 c3        1 OLA     -0.046200
     14 C12        -1.3200   -0.0380    4.1010 c3        1 OLA     -0.076400
     15 C13         0.0060    0.0050    4.8300 c3        1 OLA     -0.080400
     16 C14        -0.1920   -0.0040    6.3310 c3        1 OLA     -0.078400
     17 C15         1.1330    0.0390    7.0610 c3        1 OLA     -0.079400
     18 C16         0.9360    0.0290    8.5610 c3        1 OLA     -0.078400
     19 C17         2.2610    0.0720    9.2920 c3        1 OLA     -0.080400
     20 C18         2.0690    0.0620   10.7870 c3        1 OLA     -0.092100
     21 H21         1.8180    1.0020   -7.1830 hc        1 OLA      0.018700
     22 H22         1.7620   -0.7980   -7.3590 hc        1 OLA      0.018700
     23 H31        -0.6450   -0.8260   -6.7820 hc        1 OLA      0.044200
     24 H32        -0.7000    0.9790   -6.7910 hc        1 OLA      0.044200
     25 H41         0.9270    1.0340   -4.8690 hc        1 OLA      0.025700
     26 H42         1.0140   -0.7680   -4.8800 hc        1 OLA      0.025700
     27 H51        -1.4560   -0.8920   -4.4220 hc        1 OLA      0.036700
     28 H52        -1.5480    0.9100   -4.4210 hc        1 OLA      0.036700
     29 H61         0.0940    0.9920   -2.5130 hc        1 OLA      0.034200
     30 H62         0.1880   -0.8100   -2.5150 hc        1 OLA      0.034200
     31 H71        -2.2860   -0.9400   -2.0630 hc        1 OLA      0.039200
     32 H72        -2.3800    0.8630   -2.0600 hc        1 OLA      0.039200
     33 H81        -0.7260    0.9460   -0.1580 hc        1 OLA      0.046700
     34 H82        -0.6290   -0.8550   -0.1610 hc        1 OLA      0.046700
     35 H9         -3.4730   -0.0850    0.0310 ha        1 OLA      0.122000
     36 H10        -3.3130   -0.1170    2.4760 ha        1 OLA      0.116000
     37 H111       -0.5450    0.8940    2.3030 hc        1 OLA      0.047700
     38 H112       -0.4860   -0.9090    2.2990 hc        1 OLA      0.047700
     39 H121       -1.8830   -0.9610    4.3990 hc        1 OLA      0.038700
     40 H122       -1.9440    0.8440    4.4020 hc        1 OLA      0.038700
     41 H131        0.5700    0.9280    4.5310 hc        1 OLA      0.040700
     42 H132        0.6310   -0.8760    4.5270 hc        1 OLA      0.040700
     43 H141       -0.7560   -0.9270    6.6300 hc        1 OLA      0.038200
     44 H142       -0.8170    0.8770    6.6330 hc        1 OLA      0.038200
     45 H151        1.6970    0.9610    6.7610 hc        1 OLA      0.039700
     46 H152        1.7580   -0.8430    6.7580 hc        1 OLA      0.039700
     47 H161        0.3720   -0.8940    8.8600 hc        1 OLA      0.038700
     48 H162        0.3110    0.9100    8.8640 hc        1 OLA      0.038700
     49 H171        2.8240    0.9950    8.9900 hc        1 OLA      0.038700
     50 H172        2.8850   -0.8090    8.9860 hc        1 OLA      0.038700
     51 H181        3.0580    0.0950   11.3050 hc        1 OLA      0.031033
     52 H182        1.4710    0.9470   11.1130 hc        1 OLA      0.031033
     53 H183        1.5320   -0.8620   11.1090 hc        1 OLA      0.031033
@<TRIPOS>BOND
     1    1    2 1   
     2    1    3 1   
     3    1    4 1   
     4    4    5 1   
     5    4   21 1   
     6    4   22 1   
     7    5    6 1   
     8    5   23 1   
     9    5   24 1   
    10    6    7 1   
    11    6   25 1   
    12    6   26 1   
    13    7    8 1   
    14    7   27 1   
    15    7   28 1   
    16    8    9 1   
    17    8   29 1   
    18    8   30 1   
    19    9   10 1   
    20    9   31 1   
    21    9   32 1   
    22   10   11 1   
    23   10   33 1   
    24   10   34 1   
    25   11   12 2   
    26   11   35 1   
    27   12   13 1   
    28   12   36 1   
    29   13   14 1   
    30   13   37 1   
    31   13   38 1   
    32   14   15 1   
    33   14   39 1   
    34   14   40 1   
    35   15   16 1   
    36   15   41 1   
    37   15   42 1   
    38   16   17 1   
    39   16   43 1   
    40   16   44 1   
    41   17   18 1   
    42   17   45 1   
    43   17   46 1   
    44   18   19 1   
    45   18   47 1   
    46   18   48 1   
    47   19   20 1   
    48   19   49 1   
    49   19   50 1   
    50   20   51 1   
    51   20   52 1   
    52   20   53 1   
@<TRIPOS>SUBSTRUCTURE
     1 OLA         1 TEMP              0 ****  ****    0 ROOT
