@<TRIPOS>MOLECULE
OLB
   65    57     1     0     0
SMALL
bcc


@<TRIPOS>ATOM
      1 C1         -0.3890   -0.1830    1.7090 c2        1 OLB      0.396000
      2 C2          0.4350   -0.3720    2.8940 c2        1 OLB     -0.523000
      3 C3          0.0600   -0.6250    4.1320 c1        1 OLB      0.314000
      4 C4          3.4590    0.1370    1.0560 c3        1 OLB     -0.289000
      5 C5          6.8830   -0.2470    2.4890 c2        1 OLB     -0.232000
      6 O19        -1.7300   -0.2910    1.9510 os        1 OLB     -0.278000
      7 O20        -0.0080    0.0530    0.5590 o         1 OLB     -0.372000
      8 C21        -2.6050   -0.1170    0.8320 c3        1 OLB     -0.066000
      9 C22        -1.1830    0.7330   -3.2320 c3        1 OLB     -0.072000
     10 O23        -1.7230    0.4600   -1.9580 oh        1 OLB     -0.359000
     11 C24        -5.0370    0.4400   -2.6470 c1        1 OLB      0.202000
     12 O25        -4.4990    0.6620   -3.6630 o         1 OLB     -0.202000
     13 C6          6.6750   -1.0530   -0.3000 c3        1 OLB     -0.213000
     14 C7          7.9250   -0.7970    1.8700 c2        1 OLB     -0.162000
     15 C8          7.9530   -1.2750    0.4680 c3        1 OLB     -0.134000
     16 C9          6.8670   -1.3220    7.4940 c1        1 OLB     -0.222000
     17 C10         7.5830   -1.6960    6.6110 c1        1 OLB     -0.164000
     18 C11         8.4270   -2.1500    5.5450 c3        1 OLB     -0.060000
     19 H2          2.4340    0.1670    0.6200 hc        1 OLB      0.072500
     20 H2A         1.5290   -0.2820    2.6820 ha        1 OLB      0.230000
     21 H3          3.5560    0.9200    1.8400 hc        1 OLB      0.072500
     22 H3A         3.6480   -0.8640    1.5040 hc        1 OLB      0.072500
     23 H4          4.7760   -2.8210    2.2680 ha        1 OLB      0.003000
     24 H4A         5.2440   -2.3360    2.3400 ha        1 OLB      0.003000
     25 H5          6.9350    0.0830    3.5350 ha        1 OLB      0.114000
     26 H5A         4.2090    0.3240    0.2550 hc        1 OLB      0.072500
     27 H21        -2.4730    0.9030    0.3980 h1        1 OLB      0.100667
     28 H21A       -2.3890   -0.8900    0.0550 h1        1 OLB      0.100667
     29 H22        -0.5220   -0.1020   -3.5720 h1        1 OLB      0.067667
     30 HO23       -0.9820    0.3750   -1.3430 ho        1 OLB      0.222000
     31 H24        -0.6050    1.6900   -3.2230 h1        1 OLB      0.067667
     32 H24A       -3.6220   -0.2490    1.2750 h1        1 OLB      0.100667
     33 HO25       -2.0680    0.8250   -3.9130 h1        1 OLB      0.067667
     34 H16         5.8150   -1.5580    0.2050 hc        1 OLB      0.075000
     35 H17         6.4440    0.0370   -0.3770 hc        1 OLB      0.075000
     36 H18         5.9100   -0.0850    2.0020 ha        1 OLB      0.114000
     37 H19         8.8810   -0.9360    2.4060 ha        1 OLB      0.114000
     38 H20         6.7720   -1.4660   -1.3330 hc        1 OLB      0.075000
     39 H211        8.1940   -2.3750    0.4740 hc        1 OLB      0.087500
     40 H221        6.2340   -0.9920    8.2760 ha        1 OLB      0.221000
     41 H23         8.8000   -0.7610   -0.0660 hc        1 OLB      0.087500
     42 H241        8.1390   -1.6210    4.5900 hc        1 OLB      0.100500
     43 H25         8.2560   -3.2510    5.3780 hc        1 OLB      0.100500
     44 C12         9.8990   -1.9060    5.8330 c3        1 OLB     -0.155000
     45 H26        10.0750   -0.8100    5.9940 hc        1 OLB      0.086500
     46 C13        10.7590   -2.3990    4.6890 c3        1 OLB     -0.158000
     47 H27        10.1900   -2.4330    6.7800 hc        1 OLB      0.086500
     48 C14        12.2270   -2.1540    4.9630 c3        1 OLB     -0.162000
     49 H28        10.5840   -3.4960    4.5310 hc        1 OLB      0.080500
     50 H29        10.4610   -1.8770    3.7410 hc        1 OLB      0.080500
     51 H30        12.5250   -2.6770    5.9100 hc        1 OLB      0.078000
     52 H31        12.4010   -1.0570    5.1220 hc        1 OLB      0.078000
     53 C15        13.0850   -2.6450    3.8160 c3        1 OLB     -0.140000
     54 C16        14.5570   -2.4140    4.0980 c3        1 OLB     -0.214000
     55 H32        12.8000   -2.1170    2.8690 hc        1 OLB      0.091000
     56 H33        12.9080   -3.7400    3.6510 hc        1 OLB      0.091000
     57 H34        14.7300   -1.3110    4.2870 hc        1 OLB      0.102000
     58 H35        14.8500   -2.9520    5.0430 hc        1 OLB      0.102000
     59 C17        15.3950   -2.7380    2.9510 c1        1 OLB     -0.061000
     60 C18        16.7920   -3.0650    3.1470 c3        1 OLB     -0.278000
     61 H36        14.4800   -4.8440    2.2670 ha        1 OLB      0.003000
     62 H37        14.7310   -5.0870    2.8500 ha        1 OLB      0.003000
     63 H38        16.9920   -4.0510    2.6480 hc        1 OLB      0.102000
     64 H39        17.4010   -2.2930    2.6040 hc        1 OLB      0.102000
     65 H40        17.1510   -3.1230    4.2070 hc        1 OLB      0.102000
@<TRIPOS>BOND
     1    1    2 1   
     2    1    6 1   
     3    1    7 1   
     4    2    3 1   
     5    2   20 1   
     6    4   19 1   
     7    4   21 1   
     8    4   22 1   
     9    4   26 1   
    10    5   14 1   
    11    5   25 1   
    12    5   36 1   
    13    6    8 1   
    14    8   27 1   
    15    8   28 1   
    16    8   32 1   
    17    9   10 1   
    18    9   29 1   
    19    9   31 1   
    20    9   33 1   
    21   10   30 1   
    22   11   12 1   
    23   13   15 1   
    24   13   34 1   
    25   13   35 1   
    26   13   38 1   
    27   14   15 1   
    28   14   37 1   
    29   15   39 1   
    30   15   41 1   
    31   16   17 1   
    32   16   40 1   
    33   17   18 1   
    34   18   42 1   
    35   18   43 1   
    36   18   44 1   
    37   23   24 1   
    38   44   45 1   
    39   44   46 1   
    40   44   47 1   
    41   46   48 1   
    42   46   49 1   
    43   46   50 1   
    44   48   51 1   
    45   48   52 1   
    46   48   53 1   
    47   53   54 1   
    48   53   55 1   
    49   53   56 1   
    50   54   57 1   
    51   54   58 1   
    52   54   59 1   
    53   59   60 1   
    54   60   63 1   
    55   60   64 1   
    56   60   65 1   
    57   61   62 1   
@<TRIPOS>SUBSTRUCTURE
     1 OLB         1 TEMP              0 ****  ****    0 ROOT
