@<TRIPOS>MOLECULE
OLB
   65    62     1     0     0
SMALL
bcc


@<TRIPOS>ATOM
      1 C1         -6.4120    2.6120   -2.7980 c1        1 OLB      0.305000
      2 C2         -5.1190    1.8270   -2.7460 c3        1 OLB     -0.156000
      3 C3         -4.7010    1.6380   -1.3050 c3        1 OLB     -0.158000
      4 C4         -3.3400    0.9790   -1.2570 c3        1 OLB     -0.157000
      5 C5         -2.9150    0.8050    0.1850 c3        1 OLB     -0.158000
      6 O19        -7.1340    2.6580   -1.8220 o         1 OLB     -0.353000
      7 O20        -6.7790    3.2840   -3.9750 o         1 OLB     -0.283000
      8 C21        -8.0130    3.9580   -3.8870 c3        1 OLB     -0.012000
      9 C22        -8.3240    4.6170   -5.2110 c3        1 OLB      0.029000
     10 O23        -8.8330    3.6560   -6.1050 oh        1 OLB     -0.327000
     11 C24        -9.3520    5.7060   -5.0030 c3        1 OLB     -0.058000
     12 O25        -9.6480    6.3150   -6.2400 oh        1 OLB     -0.339000
     13 C6         -1.4940    0.2870    0.2320 c3        1 OLB     -0.158000
     14 C7         -1.0340    0.2090    1.6710 c3        1 OLB     -0.156000
     15 C8          0.4180   -0.2150    1.7140 c3        1 OLB     -0.132000
     16 C9          0.9980    0.1090    3.0730 c2        1 OLB     -0.171000
     17 C10         2.2330   -0.3210    3.3980 c1        1 OLB     -0.169000
     18 C11         3.0390   -1.1290    2.4050 c2        1 OLB     -0.132000
     19 H2         -5.2520    0.9530   -3.1650 hc        1 OLB      0.118500
     20 H2A        -4.4220    2.3170   -3.2260 hc        1 OLB      0.118500
     21 H3         -4.6580    2.5080   -0.8600 hc        1 OLB      0.096500
     22 H3A        -5.3540    1.0710   -0.8480 hc        1 OLB      0.096500
     23 H4         -2.6890    1.5410   -1.7230 hc        1 OLB      0.080500
     24 H4A        -3.3860    0.1040   -1.6910 hc        1 OLB      0.080500
     25 H5         -3.5100    0.1660    0.6250 hc        1 OLB      0.082000
     26 H5A        -2.9630    1.6670    0.6450 hc        1 OLB      0.082000
     27 H21        -8.7200    3.3160   -3.6670 h1        1 OLB      0.107500
     28 H21A       -7.9630    4.6410   -3.1860 h1        1 OLB      0.107500
     29 H22        -7.5070    5.0060   -5.5810 h1        1 OLB      0.109000
     30 HO23       -8.7520    3.9550   -6.9390 ho        1 OLB      0.220000
     31 H24       -10.1680    5.3170   -4.6270 h1        1 OLB      0.077000
     32 H24A       -8.9950    6.3780   -4.3860 h1        1 OLB      0.077000
     33 HO25      -10.2210    6.9830   -6.1120 ho        1 OLB      0.209000
     34 H16        -0.9090    0.8930   -0.2650 hc        1 OLB      0.079500
     35 H17        -1.4590   -0.6040   -0.1700 hc        1 OLB      0.079500
     36 H18        -1.5790   -0.4460    2.1530 hc        1 OLB      0.081500
     37 H19        -1.1300    1.0860    2.0920 hc        1 OLB      0.081500
     38 H20         0.9180    0.2640    1.0230 hc        1 OLB      0.086500
     39 H211        0.4810   -1.1780    1.5540 hc        1 OLB      0.086500
     40 H221        0.4780    0.6310    3.7140 ha        1 OLB      0.122000
     41 H23         2.6070   -0.1120    4.2750 ha        1 OLB      0.122000
     42 H241        2.6250   -2.0080    2.2880 ha        1 OLB      0.087000
     43 H25         3.0610   -0.6620    1.5460 ha        1 OLB      0.087000
     44 C12         4.4500   -1.3010    2.9220 c3        1 OLB     -0.156000
     45 H26         4.9520   -0.4740    2.7790 hc        1 OLB      0.081000
     46 C13         5.1240   -2.4340    2.1800 c3        1 OLB     -0.158000
     47 H27         4.4250   -1.5070    3.8780 hc        1 OLB      0.081000
     48 C14         6.5210   -2.6340    2.7260 c3        1 OLB     -0.158000
     49 H28         4.6070   -3.2560    2.3000 hc        1 OLB      0.079000
     50 H29         5.1740   -2.2170    1.2280 hc        1 OLB      0.079000
     51 H30         7.0550   -1.8320    2.5570 hc        1 OLB      0.079000
     52 H31         6.4740   -2.7980    3.6890 hc        1 OLB      0.079000
     53 C15         7.1640   -3.8210    2.0430 c3        1 OLB     -0.158000
     54 C16         8.5510   -4.0370    2.6080 c3        1 OLB     -0.158000
     55 H32         6.6210   -4.6200    2.1980 hc        1 OLB      0.079000
     56 H33         7.2270   -3.6500    1.0820 hc        1 OLB      0.079000
     57 H34         9.1120   -3.2640    2.3990 hc        1 OLB      0.079000
     58 H35         8.4940   -4.1460    3.5790 hc        1 OLB      0.079000
     59 C17         9.1570   -5.2810    1.9960 c3        1 OLB     -0.159000
     60 C18        10.5150   -5.5360    2.6110 c3        1 OLB     -0.210000
     61 H36         9.2540   -5.1550    1.0310 hc        1 OLB      0.078000
     62 H37         8.5730   -6.0470    2.1670 hc        1 OLB      0.078000
     63 H38        10.4500   -5.4680    3.5870 hc        1 OLB      0.072000
     64 H39        10.8220   -6.4340    2.3660 hc        1 OLB      0.072000
     65 H40        11.1540   -4.8700    2.2800 hc        1 OLB      0.072000
@<TRIPOS>BOND
     1    1    2 1   
     2    1    6 1   
     3    2    3 1   
     4    2   19 1   
     5    2   20 1   
     6    3    4 1   
     7    3   21 1   
     8    3   22 1   
     9    4    5 1   
    10    4   23 1   
    11    4   24 1   
    12    5   13 1   
    13    5   25 1   
    14    5   26 1   
    15    7    8 1   
    16    8    9 1   
    17    8   27 1   
    18    8   28 1   
    19    9   10 1   
    20    9   11 1   
    21    9   29 1   
    22   10   30 1   
    23   11   12 1   
    24   11   31 1   
    25   11   32 1   
    26   12   33 1   
    27   13   14 1   
    28   13   34 1   
    29   13   35 1   
    30   14   15 1   
    31   14   36 1   
    32   14   37 1   
    33   15   16 1   
    34   15   38 1   
    35   15   39 1   
    36   16   17 1   
    37   16   40 1   
    38   17   41 1   
    39   18   42 1   
    40   18   43 1   
    41   18   44 1   
    42   44   45 1   
    43   44   46 1   
    44   44   47 1   
    45   46   48 1   
    46   46   49 1   
    47   46   50 1   
    48   48   51 1   
    49   48   52 1   
    50   48   53 1   
    51   53   54 1   
    52   53   55 1   
    53   53   56 1   
    54   54   57 1   
    55   54   58 1   
    56   54   59 1   
    57   59   60 1   
    58   59   61 1   
    59   59   62 1   
    60   60   63 1   
    61   60   64 1   
    62   60   65 1   
@<TRIPOS>SUBSTRUCTURE
     1 OLB         1 TEMP              0 ****  ****    0 ROOT
