@<TRIPOS>MOLECULE
OLB
   65    64     1     0     0
SMALL
bcc


@<TRIPOS>ATOM
      1 C1          6.3300   -0.2440   -0.0590 c         1 OLB      0.645100
      2 C2          4.9290    0.2540   -0.2330 c3        1 OLB     -0.126400
      3 C3          3.9270   -0.8690   -0.0720 c3        1 OLB     -0.079400
      4 C4          2.5120   -0.3340   -0.1090 c3        1 OLB     -0.078400
      5 C5          1.5030   -1.4550    0.0310 c3        1 OLB     -0.079400
      6 O19         6.7580   -1.1060    0.7120 o         1 OLB     -0.561000
      7 O20         7.2170    0.3840   -0.8920 os        1 OLB     -0.432900
      8 C21         8.5970    0.0260   -0.7920 c3        1 OLB      0.104400
      9 C22         9.2960    0.8510    0.2870 c3        1 OLB      0.118100
     10 O23         8.7040    0.6990    1.5610 oh        1 OLB     -0.596800
     11 C24        10.7770    0.4600    0.3580 c3        1 OLB      0.097400
     12 O25        11.3620    0.8070   -0.8860 oh        1 OLB     -0.602800
     13 C6          0.0860   -0.9230   -0.0000 c3        1 OLB     -0.079400
     14 C7         -0.9220   -2.0430    0.1380 c3        1 OLB     -0.077400
     15 C8         -2.3390   -1.5100    0.1070 c3        1 OLB     -0.049200
     16 C9         -3.3490   -2.5860    0.2390 c2        1 OLB     -0.175200
     17 C10        -4.6690   -2.3710    0.2310 c2        1 OLB     -0.173200
     18 C11        -5.2830   -1.0310    0.0870 c3        1 OLB     -0.049200
     19 H2          4.7600    1.0440    0.5490 hc        1 OLB      0.081200
     20 H2A         4.8230    0.7390   -1.2390 hc        1 OLB      0.081200
     21 H3          4.0700   -1.6210   -0.8930 hc        1 OLB      0.057200
     22 H3A         4.1130   -1.4000    0.8990 hc        1 OLB      0.057200
     23 H4          2.3670    0.4070    0.7210 hc        1 OLB      0.041700
     24 H4A         2.3380    0.2100   -1.0750 hc        1 OLB      0.041700
     25 H5          1.6460   -2.1950   -0.8000 hc        1 OLB      0.042700
     26 H5A         1.6800   -2.0010    0.9950 hc        1 OLB      0.042700
     27 H21         8.7030   -1.0710   -0.5900 h1        1 OLB      0.078200
     28 H21A        9.0180    0.2860   -1.8010 h1        1 OLB      0.078200
     29 H22         9.1990    1.9500    0.0580 h1        1 OLB      0.094700
     30 HO23        8.5510   -0.2460    1.7070 ho        1 OLB      0.420000
     31 H24        11.2680    1.0170    1.1990 h1        1 OLB      0.034200
     32 H24A       10.8850   -0.6430    0.5360 h1        1 OLB      0.034200
     33 HO25       12.3150    0.6980   -0.7820 ho        1 OLB      0.406000
     34 H16        -0.0560   -0.1830    0.8310 hc        1 OLB      0.040200
     35 H17        -0.0890   -0.3750   -0.9640 hc        1 OLB      0.040200
     36 H18        -0.7800   -2.7830   -0.6940 hc        1 OLB      0.042200
     37 H19        -0.7470   -2.5910    1.1020 hc        1 OLB      0.042200
     38 H20        -2.4780   -0.7630    0.9370 hc        1 OLB      0.047700
     39 H211       -2.5110   -0.9540   -0.8560 hc        1 OLB      0.047700
     40 H221       -2.9520   -3.6090    0.3500 ha        1 OLB      0.122000
     41 H23        -5.3700   -3.2160    0.3340 ha        1 OLB      0.122000
     42 H241       -4.9130   -0.3600    0.9110 hc        1 OLB      0.047700
     43 H25        -4.9450   -0.5670   -0.8810 hc        1 OLB      0.047700
     44 C12        -6.7960   -1.0850    0.1200 c3        1 OLB     -0.077400
     45 H26        -7.1350   -1.5410    1.0880 hc        1 OLB      0.041700
     46 C13        -7.3960    0.2960   -0.0280 c3        1 OLB     -0.079400
     47 H27        -7.1680   -1.7480   -0.7060 hc        1 OLB      0.041700
     48 C14        -8.9090    0.2450    0.0040 c3        1 OLB     -0.079400
     49 H28        -7.0250    0.9590    0.7970 hc        1 OLB      0.039700
     50 H29        -7.0560    0.7520   -0.9960 hc        1 OLB      0.039700
     51 H30        -9.2800   -0.4170   -0.8220 hc        1 OLB      0.039700
     52 H31        -9.2480   -0.2110    0.9720 hc        1 OLB      0.039700
     53 C15        -9.5090    1.6260   -0.1440 c3        1 OLB     -0.079400
     54 C16       -11.0210    1.5750   -0.1110 c3        1 OLB     -0.079400
     55 H32        -9.1370    2.2880    0.6820 hc        1 OLB      0.039700
     56 H33        -9.1690    2.0820   -1.1110 hc        1 OLB      0.039700
     57 H34       -11.3930    0.9130   -0.9370 hc        1 OLB      0.039700
     58 H35       -11.3620    1.1190    0.8560 hc        1 OLB      0.039700
     59 C17       -11.6230    2.9560   -0.2590 c3        1 OLB     -0.080400
     60 C18       -13.1290    2.9090   -0.2270 c3        1 OLB     -0.092100
     61 H36       -11.2490    3.6170    0.5670 hc        1 OLB      0.038700
     62 H37       -11.2810    3.4110   -1.2260 hc        1 OLB      0.038700
     63 H38       -13.4900    2.4810    0.7390 hc        1 OLB      0.032700
     64 H39       -13.5520    3.9370   -0.3380 hc        1 OLB      0.032700
     65 H40       -13.5220    2.2750   -1.0580 hc        1 OLB      0.032700
@<TRIPOS>BOND
     1    1    2 1   
     2    1    6 2   
     3    1    7 1   
     4    2    3 1   
     5    2   19 1   
     6    2   20 1   
     7    3    4 1   
     8    3   21 1   
     9    3   22 1   
    10    4    5 1   
    11    4   23 1   
    12    4   24 1   
    13    5   13 1   
    14    5   25 1   
    15    5   26 1   
    16    7    8 1   
    17    8    9 1   
    18    8   27 1   
    19    8   28 1   
    20    9   10 1   
    21    9   11 1   
    22    9   29 1   
    23   10   30 1   
    24   11   12 1   
    25   11   31 1   
    26   11   32 1   
    27   12   33 1   
    28   13   14 1   
    29   13   34 1   
    30   13   35 1   
    31   14   15 1   
    32   14   36 1   
    33   14   37 1   
    34   15   16 1   
    35   15   38 1   
    36   15   39 1   
    37   16   17 2   
    38   16   40 1   
    39   17   18 1   
    40   17   41 1   
    41   18   42 1   
    42   18   43 1   
    43   18   44 1   
    44   44   45 1   
    45   44   46 1   
    46   44   47 1   
    47   46   48 1   
    48   46   49 1   
    49   46   50 1   
    50   48   51 1   
    51   48   52 1   
    52   48   53 1   
    53   53   54 1   
    54   53   55 1   
    55   53   56 1   
    56   54   57 1   
    57   54   58 1   
    58   54   59 1   
    59   59   60 1   
    60   59   61 1   
    61   59   62 1   
    62   60   63 1   
    63   60   64 1   
    64   60   65 1   
@<TRIPOS>SUBSTRUCTURE
     1 OLB         1 TEMP              0 ****  ****    0 ROOT
