@<TRIPOS>MOLECULE
OLC
   65    62     1     0     0
SMALL
bcc


@<TRIPOS>ATOM
      1 C18       -10.5960    4.3310   -4.1160 c3        1 OLC     -0.210000
      2 C10        -2.6290    2.7020    1.4310 c1        1 OLC     -0.169500
      3 C9         -1.3810    2.2820    1.7200 c1        1 OLC     -0.169500
      4 C17        -9.1070    4.0610   -4.1230 c3        1 OLC     -0.159000
      5 C11        -3.2250    2.4220    0.0690 c2        1 OLC     -0.132000
      6 C8         -0.5770    1.5300    0.6820 c2        1 OLC     -0.132000
      7 C24         9.9690   -6.5400    2.4110 c3        1 OLC     -0.058000
      8 C16        -8.6420    3.7620   -2.7150 c3        1 OLC     -0.158000
      9 C12        -4.7010    2.7540    0.0860 c3        1 OLC     -0.156000
     10 C7          0.8500    1.3820    1.1600 c3        1 OLC     -0.156000
     11 C15        -7.1700    3.4130   -2.7330 c3        1 OLC     -0.158000
     12 C13        -5.2110    2.8580   -1.3340 c3        1 OLC     -0.158000
     13 C6          1.4790    0.1730    0.5040 c3        1 OLC     -0.158000
     14 C14        -6.6860    3.1940   -1.3170 c3        1 OLC     -0.158000
     15 C5          2.8260   -0.1010    1.1370 c3        1 OLC     -0.158000
     16 C4          3.4740   -1.2830    0.4510 c3        1 OLC     -0.157000
     17 C3          4.7630   -1.6330    1.1610 c3        1 OLC     -0.158000
     18 C2          5.3900   -2.8410    0.5010 c3        1 OLC     -0.155000
     19 C21         8.2330   -4.8480    1.9390 c3        1 OLC     -0.012000
     20 C1          6.6130   -3.2650    1.2830 c2        1 OLC      0.305000
     21 C22         8.6440   -6.2880    1.7270 c3        1 OLC      0.029000
     22 O19         7.2670   -2.4370    1.8850 o         1 OLC     -0.353000
     23 O25        10.3060   -7.9040    2.2940 oh        1 OLC     -0.339000
     24 O23         7.6650   -7.1400    2.2720 oh        1 OLC     -0.327000
     25 O20         6.9900   -4.6180    1.3190 os        1 OLC     -0.283000
     26 H18       -10.7880    5.0870   -3.5220 hc        1 OLC      0.072000
     27 H18A      -10.8930    4.5460   -5.0250 hc        1 OLC      0.072000
     28 H18B      -11.0710    3.5360   -3.7960 hc        1 OLC      0.072000
     29 H10        -3.1470    3.1880    2.1000 ha        1 OLC      0.122000
     30 H9         -0.9970    2.4630    2.5980 ha        1 OLC      0.122000
     31 H17        -8.6350    4.8480   -4.4620 hc        1 OLC      0.078000
     32 H17A       -8.9180    3.2940   -4.6990 hc        1 OLC      0.078000
     33 H11        -2.7750    2.9720   -0.6030 ha        1 OLC      0.087000
     34 H11A       -3.1060    1.4760   -0.1510 ha        1 OLC      0.087000
     35 H8         -0.5890    2.0250   -0.1610 ha        1 OLC      0.087000
     36 H8A        -0.9690    0.6440    0.5450 ha        1 OLC      0.087000
     37 H24         9.8980   -6.3010    3.3590 h1        1 OLC      0.077000
     38 H24A       10.6630   -5.9940    1.9880 h1        1 OLC      0.077000
     39 H16        -9.1510    3.0070   -2.3570 hc        1 OLC      0.079000
     40 H16A       -8.7840    4.5480   -2.1500 hc        1 OLC      0.079000
     41 H12        -4.8370    3.6070    0.5450 hc        1 OLC      0.081000
     42 H12A       -5.1880    2.0490    0.5570 hc        1 OLC      0.081000
     43 H7          0.8580    1.2670    2.1320 hc        1 OLC      0.082000
     44 H7A         1.3580    2.1830    0.9230 hc        1 OLC      0.082000
     45 H15        -7.0350    2.5970   -3.2540 hc        1 OLC      0.079000
     46 H15A       -6.6660    4.1470   -3.1400 hc        1 OLC      0.079000
     47 H13        -5.0760    2.0040   -1.7920 hc        1 OLC      0.079000
     48 H13A       -4.7220    3.5620   -1.8060 hc        1 OLC      0.079000
     49 H6          0.8970   -0.6040    0.6260 hc        1 OLC      0.079000
     50 H6A         1.5970    0.3450   -0.4520 hc        1 OLC      0.079000
     51 H14        -7.1840    2.4540   -0.9130 hc        1 OLC      0.079000
     52 H14A       -6.8290    4.0070   -0.7930 hc        1 OLC      0.079000
     53 H5          3.3980    0.6860    1.0400 hc        1 OLC      0.082500
     54 H5A         2.7050   -0.3020    2.0870 hc        1 OLC      0.082500
     55 H4          2.8680   -2.0500    0.4800 hc        1 OLC      0.080000
     56 H4A         3.6660   -1.0540   -0.4810 hc        1 OLC      0.080000
     57 H3          5.3800   -0.8760    1.1080 hc        1 OLC      0.098000
     58 H3A         4.5750   -1.8350    2.0990 hc        1 OLC      0.098000
     59 H2          5.6520   -2.6140   -0.4140 hc        1 OLC      0.117500
     60 H2A         4.7440   -3.5750    0.4820 hc        1 OLC      0.117500
     61 H21         8.9080   -4.2550    1.5480 h1        1 OLC      0.107500
     62 H21A        8.1580   -4.6680    2.8990 h1        1 OLC      0.107500
     63 H22         8.7330   -6.4640    0.7700 h1        1 OLC      0.109000
     64 HO25       11.1330   -8.0320    2.5950 ho        1 OLC      0.209000
     65 HO23        7.6230   -7.8880    1.7940 ho        1 OLC      0.220000
@<TRIPOS>BOND
     1    1    4 1   
     2    1   26 1   
     3    1   27 1   
     4    1   28 1   
     5    2    3 1   
     6    2   29 1   
     7    3   30 1   
     8    4    8 1   
     9    4   31 1   
    10    4   32 1   
    11    5    9 1   
    12    5   33 1   
    13    5   34 1   
    14    6   10 1   
    15    6   35 1   
    16    6   36 1   
    17    7   21 1   
    18    7   23 1   
    19    7   37 1   
    20    7   38 1   
    21    8   11 1   
    22    8   39 1   
    23    8   40 1   
    24    9   12 1   
    25    9   41 1   
    26    9   42 1   
    27   10   13 1   
    28   10   43 1   
    29   10   44 1   
    30   11   14 1   
    31   11   45 1   
    32   11   46 1   
    33   12   14 1   
    34   12   47 1   
    35   12   48 1   
    36   13   15 1   
    37   13   49 1   
    38   13   50 1   
    39   14   51 1   
    40   14   52 1   
    41   15   16 1   
    42   15   53 1   
    43   15   54 1   
    44   16   17 1   
    45   16   55 1   
    46   16   56 1   
    47   17   18 1   
    48   17   57 1   
    49   17   58 1   
    50   18   20 1   
    51   18   59 1   
    52   18   60 1   
    53   19   21 1   
    54   19   25 1   
    55   19   61 1   
    56   19   62 1   
    57   20   22 1   
    58   20   25 1   
    59   21   24 1   
    60   21   63 1   
    61   23   64 1   
    62   24   65 1   
@<TRIPOS>SUBSTRUCTURE
     1 OLC         1 TEMP              0 ****  ****    0 ROOT
