@<TRIPOS>MOLECULE
OLC
   65    64     1     0     0
SMALL
bcc


@<TRIPOS>ATOM
      1 C18        13.1480   -2.8730   -0.1990 c3        1 OLC     -0.092100
      2 C10         4.6650    2.3880    0.0320 c2        1 OLC     -0.173200
      3 C9          3.3440    2.5970    0.0570 c2        1 OLC     -0.175200
      4 C17        11.6420   -2.9290   -0.1640 c3        1 OLC     -0.080400
      5 C11         5.2850    1.0430    0.0090 c3        1 OLC     -0.049200
      6 C8          2.3400    1.5070    0.0640 c3        1 OLC     -0.049200
      7 C24       -10.7710   -0.4740   -0.3570 c3        1 OLC      0.097400
      8 C16        11.0340   -1.5430   -0.1410 c3        1 OLC     -0.079400
      9 C12         6.7980    1.1070   -0.0260 c3        1 OLC     -0.077400
     10 C7          0.9210    2.0350    0.1040 c3        1 OLC     -0.077400
     11 C15         9.5230   -1.6050   -0.1060 c3        1 OLC     -0.079400
     12 C13         7.4040   -0.2800   -0.0490 c3        1 OLC     -0.079400
     13 C6         -0.0830    0.9020    0.1120 c3        1 OLC     -0.079400
     14 C14         8.9160   -0.2180   -0.0840 c3        1 OLC     -0.079400
     15 C5         -1.5020    1.4270    0.1510 c3        1 OLC     -0.079400
     16 C4         -2.5060    0.2940    0.1610 c3        1 OLC     -0.078400
     17 C3         -3.9230    0.8230    0.1950 c3        1 OLC     -0.079400
     18 C2         -4.9200   -0.3160    0.2240 c3        1 OLC     -0.126400
     19 C21        -8.5850   -0.1710    0.8260 c3        1 OLC      0.104400
     20 C1         -6.3230    0.1940    0.1180 c         1 OLC      0.645100
     21 C22        -9.2870   -0.8650   -0.3410 c3        1 OLC      0.118100
     22 O19        -6.7600    1.1400   -0.5420 o         1 OLC     -0.561000
     23 O23        -8.7030   -0.5580   -1.5910 oh        1 OLC     -0.596800
     24 O20        -7.2040   -0.5320    0.8750 os        1 OLC     -0.432900
     25 H18        13.5430   -2.3410    0.7000 hc        1 OLC      0.032700
     26 H18A       13.5750   -3.9040   -0.2160 hc        1 OLC      0.032700
     27 H18B       13.5010   -2.3300   -1.1090 hc        1 OLC      0.032700
     28 H10         5.3630    3.2410    0.0280 ha        1 OLC      0.122000
     29 H9          2.9440    3.6230    0.0730 ha        1 OLC      0.122000
     30 H17        11.2650   -3.4870   -1.0620 hc        1 OLC      0.038700
     31 H17A       11.3070   -3.4990    0.7430 hc        1 OLC      0.038700
     32 H11         4.9550    0.4640    0.9160 hc        1 OLC      0.047700
     33 H11A        4.9130    0.4740   -0.8870 hc        1 OLC      0.047700
     34 H8          2.4770    0.8670   -0.8510 hc        1 OLC      0.047700
     35 H8A         2.5180    0.8400    0.9520 hc        1 OLC      0.047700
     36 H24       -10.8830    0.6420   -0.4020 h1        1 OLC      0.034200
     37 H24A      -11.2640   -0.9290   -1.2570 h1        1 OLC      0.034200
     38 H16        11.4090   -0.9840    0.7560 hc        1 OLC      0.039700
     39 H16A       11.3670   -0.9720   -1.0480 hc        1 OLC      0.039700
     40 H12         7.1300    1.6780   -0.9330 hc        1 OLC      0.041700
     41 H12A        7.1720    1.6660    0.8720 hc        1 OLC      0.041700
     42 H7          0.7800    2.6680    1.0190 hc        1 OLC      0.042200
     43 H7A         0.7380    2.6930   -0.7860 hc        1 OLC      0.042200
     44 H15         9.1480   -2.1640   -1.0040 hc        1 OLC      0.039700
     45 H15A        9.1900   -2.1750    0.8010 hc        1 OLC      0.039700
     46 H13         7.0720   -0.8510    0.8590 hc        1 OLC      0.039700
     47 H13A        7.0300   -0.8390   -0.9460 hc        1 OLC      0.039700
     48 H6          0.0580    0.2680   -0.8030 hc        1 OLC      0.040200
     49 H6A         0.1000    0.2430    1.0010 hc        1 OLC      0.040200
     50 H14         9.2900    0.3410    0.8140 hc        1 OLC      0.039700
     51 H14A        9.2480    0.3530   -0.9910 hc        1 OLC      0.039700
     52 H5         -1.6430    2.0620    1.0660 hc        1 OLC      0.042700
     53 H5A        -1.6850    2.0850   -0.7390 hc        1 OLC      0.042700
     54 H4         -2.3630   -0.3420   -0.7530 hc        1 OLC      0.041700
     55 H4A        -2.3250   -0.3620    1.0530 hc        1 OLC      0.041700
     56 H3         -4.0640    1.4700    1.1010 hc        1 OLC      0.057200
     57 H3A        -4.1160    1.4660   -0.7050 hc        1 OLC      0.057200
     58 H2         -4.7520   -1.0060   -0.6470 hc        1 OLC      0.081200
     59 H2A        -4.8070   -0.9170    1.1650 hc        1 OLC      0.081200
     60 H21        -8.6970    0.9420    0.7560 h1        1 OLC      0.078200
     61 H21A       -9.0000   -0.5520    1.7980 h1        1 OLC      0.078200
     62 H22        -9.1850   -1.9830   -0.2460 h1        1 OLC      0.094700
     63 HO25      -12.3010   -0.8530    0.7530 ho        1 OLC      0.406000
     64 HO23       -8.5540    0.3970   -1.6230 ho        1 OLC      0.420000
     65 O25       -11.3480   -0.9700    0.8390 oh        1 OLC     -0.602800
@<TRIPOS>BOND
     1    1    4 1   
     2    1   25 1   
     3    1   26 1   
     4    1   27 1   
     5    2    3 2   
     6    2    5 1   
     7    2   28 1   
     8    3    6 1   
     9    3   29 1   
    10    4    8 1   
    11    4   30 1   
    12    4   31 1   
    13    5    9 1   
    14    5   32 1   
    15    5   33 1   
    16    6   10 1   
    17    6   34 1   
    18    6   35 1   
    19    7   21 1   
    20    7   36 1   
    21    7   37 1   
    22    7   65 1   
    23    8   11 1   
    24    8   38 1   
    25    8   39 1   
    26    9   12 1   
    27    9   40 1   
    28    9   41 1   
    29   10   13 1   
    30   10   42 1   
    31   10   43 1   
    32   11   14 1   
    33   11   44 1   
    34   11   45 1   
    35   12   14 1   
    36   12   46 1   
    37   12   47 1   
    38   13   15 1   
    39   13   48 1   
    40   13   49 1   
    41   14   50 1   
    42   14   51 1   
    43   15   16 1   
    44   15   52 1   
    45   15   53 1   
    46   16   17 1   
    47   16   54 1   
    48   16   55 1   
    49   17   18 1   
    50   17   56 1   
    51   17   57 1   
    52   18   20 1   
    53   18   58 1   
    54   18   59 1   
    55   19   21 1   
    56   19   24 1   
    57   19   60 1   
    58   19   61 1   
    59   20   22 2   
    60   20   24 1   
    61   21   23 1   
    62   21   62 1   
    63   23   64 1   
    64   63   65 1   
@<TRIPOS>SUBSTRUCTURE
     1 OLC         1 TEMP              0 ****  ****    0 ROOT
