@<TRIPOS>MOLECULE
OLD
   34    29     1     0     0
SMALL
bcc


@<TRIPOS>ATOM
      1 N          -1.6800    1.7610   -3.6650 n3        1 OLD     -0.908800
      2 CA         -2.3470    0.7120   -3.0850 c3        1 OLD      0.011500
      3 CB         -2.0470    0.6850   -1.5840 c3        1 OLD     -0.006200
      4 CG         -1.6600   -0.7710   -1.1520 ce        1 OLD      0.365400
      5 CD2        -2.1470   -1.9220   -1.6830 c1        1 OLD      0.078500
      6 ND1        -0.7940   -1.0930   -0.1880 n1        1 OLD     -0.970500
      7 CE1        -0.7310   -2.4530   -0.1070 cg        1 OLD      0.261800
      8 NE2        -1.5630   -2.9600   -1.0270 ne        1 OLD     -0.434400
      9 CH         -0.0460   -0.1760    0.5980 c2        1 OLD     -0.055000
     10 CG1         2.2570   -0.1180    1.8730 cg        1 OLD     -0.110200
     11 CD1         3.6150   -0.5190    1.9710 c1        1 OLD     -0.046000
     12 CE3         4.3890   -0.1040    3.0600 c1        1 OLD     -0.046000
     13 CD3         1.6810    0.7120    2.8870 c1        1 OLD     -0.028500
     14 CE2         2.4530    1.1250    3.9690 c1        1 OLD     -0.059500
     15 CZ          3.8140    0.7220    4.0690 c1        1 OLD      0.089800
     16 BR          4.8590    1.2740    5.5480 br        1 OLD     -0.190800
     17 C9          1.3630   -0.6900    0.7630 ce        1 OLD      0.490500
     18 O2          1.8010   -1.4630   -0.0080 o         1 OLD     -0.560300
     19 C          -3.8930    0.8800   -3.3060 c         1 OLD      0.890600
     20 O          -4.3570    1.9110   -4.0060 o         1 OLD     -0.834800
     21 OXT        -4.7140    0.1000   -2.6910 o         1 OLD     -0.834800
     22 HN         -0.7990    1.6690   -3.5200 hn        1 OLD      0.333800
     23 HNA        -1.8420    1.7640   -4.5670 hn        1 OLD      0.333800
     24 HA         -2.0310   -0.1750   -3.5160 h1        1 OLD      0.051700
     25 HB         -2.8650    0.9810   -1.0700 hc        1 OLD      0.065700
     26 HBA        -1.2600    1.3260   -1.3750 hc        1 OLD      0.065700
     27 HD2        -2.8550   -1.9890   -2.3420 DU        1 OLD      0.187000
     28 HE1        -0.1650   -2.9740    0.5250 DU        1 OLD      0.187000
     29 HH         -0.4710   -0.0790    1.4930 ha        1 OLD      0.140000
     30 HHA        -0.0250    0.7240    0.1360 ha        1 OLD      0.140000
     31 HD1         4.0090   -1.0870    1.2790 ha        1 OLD      0.093500
     32 HE3         5.3430   -0.3850    3.1290 ha        1 OLD      0.093500
     33 HD3         0.6730    0.8830    2.8890 ha        1 OLD      0.108500
     34 HE2         2.0350    1.7270    4.7040 ha        1 OLD      0.096500
@<TRIPOS>BOND
     1    1    2 1   
     2    1   22 1   
     3    1   23 1   
     4    2    3 1   
     5    2   19 1   
     6    2   24 1   
     7    3    4 1   
     8    3   25 1   
     9    3   26 1   
    10    4    5 2   
    11    4    6 1   
    12    5    8 2   
    13    6    7 3   
    14    7    8 1   
    15    9   17 2   
    16    9   29 1   
    17    9   30 1   
    18   10   13 3   
    19   10   17 1   
    20   11   12 3   
    21   11   31 1   
    22   12   32 1   
    23   13   33 1   
    24   14   15 3   
    25   14   34 1   
    26   15   16 1   
    27   17   18 1   
    28   19   20 1   
    29   19   21 1   
@<TRIPOS>SUBSTRUCTURE
     1 OLD         1 TEMP              0 ****  ****    0 ROOT
