@<TRIPOS>MOLECULE
OLD
   34    35     1     0     0
SMALL
bcc


@<TRIPOS>ATOM
      1 N           4.8720   -2.1930    0.0450 n3        1 OLD     -0.880800
      2 CA          3.6800   -1.4230   -0.2860 c3        1 OLD      0.026500
      3 CB          4.0010   -0.1580   -1.1030 c3        1 OLD     -0.000100
      4 CG          3.9280    1.0790   -0.2980 cc        1 OLD     -0.168900
      5 CD2         4.9730    1.9010    0.1760 cd        1 OLD      0.264200
      6 ND1         2.7390    1.7020    0.1260 na        1 OLD     -0.190900
      7 CE1         3.1180    2.8570    0.8290 cc        1 OLD      0.379400
      8 NE2         4.4600    2.9940    0.8710 nd        1 OLD     -0.695000
      9 CH          1.4180    1.2550   -0.1870 c3        1 OLD     -0.099700
     10 CG1        -0.9680    0.8780    0.5580 ca        1 OLD     -0.165600
     11 CD1        -1.1100   -0.3310   -0.1300 ca        1 OLD     -0.085000
     12 CE3        -2.3870   -0.8350   -0.3960 ca        1 OLD     -0.126000
     13 CD3        -2.1120    1.5670    0.9890 ca        1 OLD     -0.085000
     14 CE2        -3.3820    1.0700    0.7190 ca        1 OLD     -0.126000
     15 CZ         -3.5190   -0.1360    0.0210 ca        1 OLD     -0.007900
     16 BR         -5.2340   -0.8070   -0.3450 br        1 OLD     -0.116100
     17 C9          0.3570    1.4660    0.8710 c         1 OLD      0.578700
     18 O2          0.5300    2.1270    1.9030 o         1 OLD     -0.547100
     19 C           2.5790   -2.2420   -1.0310 c         1 OLD      0.886600
     20 O           2.7760   -3.4650   -1.2580 o         1 OLD     -0.846800
     21 OXT         1.5140   -1.6300   -1.3580 o         1 OLD     -0.846800
     22 HN          4.5670   -3.0380    0.4980 hn        1 OLD      0.333800
     23 HNA         5.3180   -2.4750   -0.8100 hn        1 OLD      0.333800
     24 HA          3.2200   -1.1130    0.6980 h1        1 OLD      0.052700
     25 HB          5.0310   -0.2120   -1.5470 hc        1 OLD      0.060200
     26 HBA         3.2690   -0.0950   -1.9560 hc        1 OLD      0.060200
     27 HD2         6.0430    1.7450    0.0600 h4        1 OLD      0.031100
     28 HE1         2.3810    3.5100    1.3090 h5        1 OLD      0.061100
     29 HH          1.0550    1.7920   -1.1150 h1        1 OLD      0.125200
     30 HHA         1.4770    0.1390   -0.4450 h1        1 OLD      0.125200
     31 HD1        -0.2270   -0.9150   -0.4700 ha        1 OLD      0.185500
     32 HE3        -2.4780   -1.7890   -0.9390 ha        1 OLD      0.147500
     33 HD3        -1.9930    2.5060    1.5540 ha        1 OLD      0.185500
     34 HE2        -4.2690    1.6240    1.0590 ha        1 OLD      0.147500
@<TRIPOS>BOND
     1    1    2 1   
     2    1   22 1   
     3    1   23 1   
     4    2    3 1   
     5    2   19 1   
     6    2   24 1   
     7    3    4 1   
     8    3   25 1   
     9    3   26 1   
    10    4    5 2   
    11    4    6 1   
    12    5    8 1   
    13    5   27 1   
    14    6    7 1   
    15    6    9 1   
    16    7    8 2   
    17    7   28 1   
    18    9   17 1   
    19    9   29 1   
    20    9   30 1   
    21   10   11 ar  
    22   10   13 ar  
    23   10   17 1   
    24   11   12 ar  
    25   11   31 1   
    26   12   15 ar  
    27   12   32 1   
    28   13   14 ar  
    29   13   33 1   
    30   14   15 ar  
    31   14   34 1   
    32   15   16 1   
    33   17   18 2   
    34   19   20 1   
    35   19   21 1   
@<TRIPOS>SUBSTRUCTURE
     1 OLD         1 TEMP              0 ****  ****    0 ROOT
