@<TRIPOS>MOLECULE
OLE
   20    19     1     0     0
SMALL
bcc


@<TRIPOS>ATOM
      1 ON         -1.7340   -0.4840   -0.4660 oh        1 OLE     -0.649800
      2 CA         -0.4850    0.1900   -0.4870 c3        1 OLE      0.014100
      3 C           0.2270    0.0370   -1.8570 c         1 OLE      0.892600
      4 O          -0.2780   -0.7950   -2.6660 o         1 OLE     -0.837800
      5 CB          0.4130   -0.3460    0.6210 c3        1 OLE     -0.079400
      6 CG         -0.1130   -0.0280    2.0140 c3        1 OLE     -0.071700
      7 CD1         0.4750   -0.9800    3.0350 c3        1 OLE     -0.082600
      8 CD2         0.1900    1.4030    2.4030 c3        1 OLE     -0.082600
      9 OXT         1.2480    0.7400   -2.0840 o         1 OLE     -0.837800
     10 HO         -1.7440   -1.0760   -1.2360 ho        1 OLE      0.423000
     11 HA         -0.7180    1.2750   -0.3070 h1        1 OLE      0.036700
     12 HB1         1.4350    0.0940    0.4830 hc        1 OLE      0.045200
     13 HB2         0.4950   -1.4580    0.5030 hc        1 OLE      0.045200
     14 HG         -1.2320   -0.1670    1.9960 hc        1 OLE      0.057700
     15 HD11        0.1060   -0.7330    4.0600 hc        1 OLE      0.020867
     16 HD12        0.1850   -2.0320    2.7980 hc        1 OLE      0.020867
     17 HD13        1.5900   -0.9130    3.0350 hc        1 OLE      0.020867
     18 HD21        1.2930    1.5710    2.4540 hc        1 OLE      0.020867
     19 HD22       -0.2380    2.1070    1.6490 hc        1 OLE      0.020867
     20 HD23       -0.2490    1.6380    3.4020 hc        1 OLE      0.020867
@<TRIPOS>BOND
     1    1    2 1   
     2    1   10 1   
     3    2    3 1   
     4    2    5 1   
     5    2   11 1   
     6    3    4 1   
     7    3    9 1   
     8    5    6 1   
     9    5   12 1   
    10    5   13 1   
    11    6    7 1   
    12    6    8 1   
    13    6   14 1   
    14    7   15 1   
    15    7   16 1   
    16    7   17 1   
    17    8   18 1   
    18    8   19 1   
    19    8   20 1   
@<TRIPOS>SUBSTRUCTURE
     1 OLE         1 TEMP              0 ****  ****    0 ROOT
