@<TRIPOS>MOLECULE
OLE
   20    19     1     0     0
SMALL
bcc


@<TRIPOS>ATOM
      1 ON         -1.8300   -0.8610    1.2130 oh        1 OLE     -0.649800
      2 CA         -0.4230   -0.8610    1.2130 c3        1 OLE      0.014100
      3 C           0.0810   -0.8610    2.6380 c         1 OLE      0.892600
      4 O          -0.4330   -0.0870    3.4880 o         1 OLE     -0.837800
      5 CB          0.0810    0.3730    0.5000 c3        1 OLE     -0.079400
      6 CG          0.0720    0.1330   -0.9930 c3        1 OLE     -0.071700
      7 CD1        -0.7170    1.2280   -1.6760 c3        1 OLE     -0.082600
      8 CD2         1.4920    0.1350   -1.5140 c3        1 OLE     -0.082600
      9 OXT         1.0150   -1.6350    2.9760 o         1 OLE     -0.837800
     10 HO         -2.1260   -1.6720    1.4210 ho        1 OLE      0.423000
     11 HA         -0.0970   -1.6580    0.7530 h1        1 OLE      0.036700
     12 HB1         0.9920    0.5690    0.7930 hc        1 OLE      0.045200
     13 HB2        -0.4980    1.1300    0.7120 hc        1 OLE      0.045200
     14 HG         -0.3420   -0.7320   -1.1810 hc        1 OLE      0.057700
     15 HD11       -0.6840    1.0990   -2.6430 hc        1 OLE      0.020867
     16 HD12       -0.3310    2.0960   -1.4500 hc        1 OLE      0.020867
     17 HD13       -1.6450    1.1970   -1.3750 hc        1 OLE      0.020867
     18 HD21        1.9970   -0.5820   -1.0850 hc        1 OLE      0.020867
     19 HD22        1.4850   -0.0040   -2.4800 hc        1 OLE      0.020867
     20 HD23        1.9110    0.9930   -1.3120 hc        1 OLE      0.020867
@<TRIPOS>BOND
     1    1    2 1   
     2    1   10 1   
     3    2    3 1   
     4    2    5 1   
     5    2   11 1   
     6    3    4 1   
     7    3    9 1   
     8    5    6 1   
     9    5   12 1   
    10    5   13 1   
    11    6    7 1   
    12    6    8 1   
    13    6   14 1   
    14    7   15 1   
    15    7   16 1   
    16    7   17 1   
    17    8   18 1   
    18    8   19 1   
    19    8   20 1   
@<TRIPOS>SUBSTRUCTURE
     1 OLE         1 TEMP              0 ****  ****    0 ROOT
