@<TRIPOS>MOLECULE
OLF
   63    67     1     0     0
SMALL
bcc


@<TRIPOS>ATOM
      1 N1          0.9760    0.3850    0.7560 n3        1 OLF     -0.184000
      2 C2          2.1690   -0.3070    0.3120 c2        1 OLF      0.100000
      3 N3          2.9860   -0.7040    1.2790 n2        1 OLF     -0.154000
      4 C4          0.9650    0.1440    2.2030 cx        1 OLF     -0.089000
      5 C5          2.3100   -0.5030    2.5730 c3        1 OLF     -0.071000
      6 C6         -0.9590    1.4560   -0.3340 c2        1 OLF      0.307000
      7 C7         -0.3860    0.1390    0.2700 c3        1 OLF     -0.032000
      8 C8          0.2170    1.0880    3.1090 cx        1 OLF     -0.145000
      9 C10         3.0100    0.2150    3.6500 c1        1 OLF      0.035000
     10 C11         0.8750    1.2790    4.4180 c2        1 OLF      0.145000
     11 C12        -1.6320    2.5100   -2.4920 c2        1 OLF     -0.001000
     12 C14         2.4660   -0.4650   -1.1020 ca        1 OLF     -0.034000
     13 C15         2.1820    0.8530    4.6380 c2        1 OLF     -0.080000
     14 C16        -3.0810    4.3170   -4.1670 c2        1 OLF     -0.195000
     15 C17        -2.4010    3.2470   -4.7910 c1        1 OLF     -0.057000
     16 C18        -1.7660    2.2040   -3.9710 c3        1 OLF     -0.141000
     17 O20        -5.0040    4.6460   -5.5430 o         1 OLF     -0.562000
     18 C21        -2.1110    3.6930   -2.0040 c2        1 OLF     -0.193000
     19 C22        -2.8280    4.6020   -2.8540 c2        1 OLF     -0.039000
     20 C23        -1.2990   -0.2480    1.4860 c3        1 OLF     -0.147000
     21 C24         3.6970   -0.7790   -1.6230 ca        1 OLF     -0.110500
     22 C25         1.5700   -0.2020   -2.2420 ca        1 OLF     -0.110500
     23 F26         0.2020    1.9850    5.3410 f         1 OLF     -0.069000
     24 F27         2.7610    1.1270    5.8380 f         1 OLF     -0.089000
     25 O28        -3.8130    6.4470   -4.9610 o         1 OLF     -0.562000
     26 C29         2.8110   -1.1940   -3.9110 ca        1 OLF     -0.037000
     27 C30         3.8800   -1.0040   -3.0720 ca        1 OLF     -0.145500
     28 C31         1.5770   -1.2720   -3.1090 ca        1 OLF     -0.145500
     29 Cl32        2.9110   -1.4910   -5.5550 cl        1 OLF      0.026000
     30 C33        -0.4260    1.8330   -4.5850 c3        1 OLF     -0.177000
     31 C34        -4.7620    1.5030   -6.1770 c3        1 OLF     -0.197500
     32 C35        -0.4080   -0.2450    2.7090 cx        1 OLF     -0.139000
     33 C36        -4.5440   -1.2820   -3.5100 c3        1 OLF     -0.197500
     34 C37        -5.0270    0.6310   -5.0200 c2        1 OLF     -0.177000
     35 C38        -4.2770   -0.4240   -4.6810 c2        1 OLF     -0.177000
     36 H7         -0.3920   -0.6900   -0.4920 h1        1 OLF      0.109000
     37 H8         -0.2540    2.0130    2.7010 hc        1 OLF      0.198000
     38 HN9        -0.6800    0.7270   -2.2140 hn        1 OLF      0.233000
     39 H10         2.1480   -1.5430    3.0150 h1        1 OLF      0.155000
     40 H17        -2.4840    1.3220   -4.0900 hc        1 OLF      0.157000
     41 H21        -2.0120    3.9670   -0.9410 ha        1 OLF      0.152000
     42 H22        -3.1880    5.5450   -2.4090 ha        1 OLF      0.146000
     43 H23        -4.5230    2.5560   -5.8300 hc        1 OLF      0.086500
     44 H24         4.5930   -0.8690   -0.9900 ha        1 OLF      0.161000
     45 H25         1.6020    0.8380   -2.6200 ha        1 OLF      0.161000
     46 H30         4.9160   -1.0450   -3.4370 ha        1 OLF      0.151000
     47 H31         1.1820   -2.2710   -2.8860 ha        1 OLF      0.151000
     48 H33         0.3620    2.5550   -4.2670 hc        1 OLF      0.073000
     49 H33A       -0.1120    0.8050   -4.2800 hc        1 OLF      0.073000
     50 H33B       -0.5090    1.8630   -5.6990 hc        1 OLF      0.073000
     51 H34        -3.9080    1.1350   -6.7940 hc        1 OLF      0.086500
     52 H34A       -5.6720    1.5700   -6.8240 hc        1 OLF      0.086500
     53 H35        -1.7270   -1.2670    1.3240 hc        1 OLF      0.118500
     54 H35A       -2.1360    0.4860    1.5940 hc        1 OLF      0.118500
     55 H36        -3.6640   -1.2790   -2.8180 hc        1 OLF      0.086500
     56 H36A       -0.5900   -1.0220    3.4640 hc        1 OLF      0.141000
     57 H37        -3.4010   -0.7120   -5.2830 ha        1 OLF      0.113500
     58 H37A       -5.4390   -0.9360   -2.9370 hc        1 OLF      0.086500
     59 H38        -4.7230   -2.3380   -3.8350 hc        1 OLF      0.086500
     60 H38A       -5.9020    0.9200   -4.4110 ha        1 OLF      0.113500
     61 N9         -1.0630    1.4940   -1.7040 ns        1 OLF     -0.299000
     62 C13        -4.0290    5.2040   -4.9660 c2        1 OLF      0.382000
     63 O19        -1.3090    2.3720    0.4330 o         1 OLF     -0.358000
@<TRIPOS>BOND
     1    1    2 1   
     2    1    4 1   
     3    1    7 1   
     4    2    3 1   
     5    2   12 1   
     6    3    5 1   
     7    4    5 1   
     8    4    8 1   
     9    4   32 1   
    10    5    9 1   
    11    5   39 1   
    12    6    7 1   
    13    6   61 1   
    14    6   63 1   
    15    7   20 1   
    16    7   36 1   
    17    8   10 1   
    18    8   32 1   
    19    8   37 1   
    20    9   13 1   
    21   10   13 1   
    22   10   23 1   
    23   11   16 1   
    24   11   18 1   
    25   11   61 1   
    26   12   21 1   
    27   12   22 1   
    28   13   24 1   
    29   14   15 1   
    30   14   19 1   
    31   14   62 1   
    32   15   16 1   
    33   16   30 1   
    34   16   40 1   
    35   17   62 1   
    36   18   19 1   
    37   18   41 1   
    38   19   42 1   
    39   20   32 1   
    40   20   53 1   
    41   20   54 1   
    42   21   27 1   
    43   21   44 1   
    44   22   28 1   
    45   22   45 1   
    46   25   62 1   
    47   26   27 1   
    48   26   28 1   
    49   26   29 1   
    50   27   46 1   
    51   28   47 1   
    52   30   48 1   
    53   30   49 1   
    54   30   50 1   
    55   31   34 1   
    56   31   43 1   
    57   31   51 1   
    58   31   52 1   
    59   32   56 1   
    60   33   35 1   
    61   33   55 1   
    62   33   58 1   
    63   33   59 1   
    64   34   35 1   
    65   34   60 1   
    66   35   57 1   
    67   38   61 1   
@<TRIPOS>SUBSTRUCTURE
     1 OLF         1 TEMP              0 ****  ****    0 ROOT
