@<TRIPOS>MOLECULE
OLF
   64    67     1     0     0
SMALL
bcc


@<TRIPOS>ATOM
      1 N1         -0.0150   -1.5110   -0.1480 nh        1 OLF     -0.030200
      2 C2          0.8080   -0.5060   -0.8950 ce        1 OLF      0.600400
      3 N3          0.4820    0.7290   -0.5590 n2        1 OLF     -0.544900
      4 C4         -0.8650   -0.8230    0.6500 ce        1 OLF      0.347600
      5 C5         -0.5010    0.6680    0.5320 c3        1 OLF      0.048400
      6 C6         -1.4880    3.0560    0.1930 c3        1 OLF      0.634200
      7 C7          0.0880   -2.8450   -0.2540 c1        1 OLF     -0.182300
      8 C8         -1.9980   -1.2360    1.3810 ce        1 OLF     -0.360600
      9 C10        -1.6920    1.5540    0.5460 c2        1 OLF     -0.126400
     10 C11        -2.9770   -0.2830    1.6110 cf        1 OLF      0.307500
     11 C12        -0.8340    4.0410   -2.1290 c3        1 OLF      0.167700
     12 C14         1.7990   -0.9690   -1.8180 ca        1 OLF     -0.265900
     13 C15        -2.8540    1.0950    1.1020 cf        1 OLF      0.094500
     14 C16         0.8940    2.8110   -4.7850 cc        1 OLF      0.082400
     15 C17        -0.1740    3.4770   -4.3430 cd        1 OLF     -0.235300
     16 C18        -1.2360    4.2290   -3.6790 c3        1 OLF      0.027600
     17 O20         1.7500    2.5180   -6.9740 o         1 OLF     -0.786800
     18 C21         0.5830    3.4450   -2.1200 c2        1 OLF     -0.279200
     19 C22         0.8770    3.0900   -3.3680 cc        1 OLF     -0.140000
     20 C23         0.1780   -4.0400   -0.3600 cg        1 OLF      0.066700
     21 C24         2.3530   -0.2590   -2.8680 ca        1 OLF     -0.034500
     22 C25         2.3410   -2.3360   -1.9000 ca        1 OLF     -0.034500
     23 F26        -4.0980   -0.6070    2.2640 f         1 OLF     -0.097500
     24 F27        -3.9560    1.8640    1.2260 f         1 OLF     -0.101500
     25 O28         2.1330    0.9390   -5.4200 o         1 OLF     -0.786800
     26 C29         4.1790   -1.9240   -3.2090 ca        1 OLF      0.032400
     27 C30         3.4720   -0.8280   -3.6440 ca        1 OLF     -0.128000
     28 C31         3.7190   -2.3130   -1.8660 ca        1 OLF     -0.128000
     29 CL32        5.5070   -2.5850   -3.9830 cl        1 OLF     -0.041400
     30 C33        -2.6350    3.8210   -4.0540 c3        1 OLF     -0.104100
     31 C34        -5.0780    5.4650   -1.6150 c3        1 OLF     -0.104600
     32 C35         0.2690   -5.3940   -0.4700 ce        1 OLF     -0.099900
     33 C36         0.8030   -6.4850   -1.0010 cu        1 OLF     -0.076200
     34 C37        -5.2130    4.0530   -1.1260 c3        1 OLF     -0.104600
     35 C38        -0.2610   -6.7050    0.0140 cx        1 OLF     -0.029000
     36 H7         -0.3820    3.2710    0.2630 hx        1 OLF      0.050700
     37 H8         -2.1300   -2.2830    1.6950 ha        1 OLF      0.195000
     38 HN9        -2.7240    3.5160   -1.5080 hn        1 OLF      0.405300
     39 H10         0.0770    0.9510    1.4840 h1        1 OLF      0.169700
     40 H17        -1.1010    5.3260   -3.9010 hc        1 OLF      0.090700
     41 H21        -0.8650    5.0380   -1.6130 hx        1 OLF      0.094700
     42 H22         1.1630    3.3680   -1.2070 ha        1 OLF      0.159000
     43 H23        -5.5230    6.1800   -0.8810 hc        1 OLF      0.035200
     44 H24         1.9810    0.7300   -3.2150 ha        1 OLF      0.177500
     45 H25         1.8150   -2.9850   -2.6240 ha        1 OLF      0.177500
     46 H30         3.7140   -0.2890   -4.5840 ha        1 OLF      0.191500
     47 H31         4.3380   -2.0470   -1.0020 ha        1 OLF      0.191500
     48 H33        -3.3910    4.3840   -3.4500 hc        1 OLF      0.048367
     49 H33A       -2.8040    2.7250   -3.9220 hc        1 OLF      0.048367
     50 H33B       -2.8080    4.0570   -5.1340 hc        1 OLF      0.048367
     51 H34        -4.0020    5.7360   -1.7490 hc        1 OLF      0.035200
     52 H34A       -5.5980    5.5960   -2.5960 hc        1 OLF      0.035200
     53 H35        -5.2830    3.5130   -4.4670 ha        1 OLF      0.000000
     54 H35A       -5.8010    3.7530   -4.1020 ha        1 OLF      0.000000
     55 H36        -4.5760    3.8830   -0.2190 hc        1 OLF      0.035200
     56 H36A        1.4970   -6.9500   -1.6740 ha        1 OLF      0.209000
     57 H37        -6.2740    3.8300   -0.8560 hc        1 OLF      0.035200
     58 H37A       -1.2690   -7.0410   -0.2970 hc        1 OLF      0.071200
     59 H38        -0.0010   -7.0650    1.0280 hc        1 OLF      0.071200
     60 H38A       -4.9050    3.3310   -1.9230 hc        1 OLF      0.035200
     61 C13         1.6570    2.0390   -5.8240 c         1 OLF      0.952200
     62 O19        -2.3140    3.8410    0.7710 o         1 OLF     -0.680500
     63 H92        -1.7300    2.2270   -1.8370 hn        1 OLF      0.405300
     64 N9         -1.7740    3.1460   -1.4110 n4        1 OLF     -0.873000
@<TRIPOS>BOND
     1    1    2 1   
     2    1    4 2   
     3    1    7 1   
     4    2    3 2   
     5    2   12 1   
     6    3    5 1   
     7    4    5 1   
     8    4    8 1   
     9    5    9 1   
    10    5   39 1   
    11    6    9 1   
    12    6   36 1   
    13    6   62 1   
    14    6   64 1   
    15    7   20 3   
    16    8   10 2   
    17    8   37 1   
    18    9   13 2   
    19   10   13 1   
    20   10   23 1   
    21   11   16 1   
    22   11   18 1   
    23   11   41 1   
    24   11   64 1   
    25   12   21 ar  
    26   12   22 ar  
    27   13   24 1   
    28   14   15 2   
    29   14   19 1   
    30   14   61 1   
    31   15   16 1   
    32   15   19 1   
    33   16   30 1   
    34   16   40 1   
    35   17   61 1   
    36   18   19 2   
    37   18   42 1   
    38   20   32 1   
    39   21   27 ar  
    40   21   44 1   
    41   22   28 ar  
    42   22   45 1   
    43   25   61 1   
    44   26   27 ar  
    45   26   28 ar  
    46   26   29 1   
    47   27   46 1   
    48   28   47 1   
    49   30   48 1   
    50   30   49 1   
    51   30   50 1   
    52   31   34 1   
    53   31   43 1   
    54   31   51 1   
    55   31   52 1   
    56   32   33 2   
    57   32   35 1   
    58   33   35 1   
    59   33   56 1   
    60   34   55 1   
    61   34   57 1   
    62   34   60 1   
    63   35   58 1   
    64   35   59 1   
    65   38   64 1   
    66   53   54 1   
    67   63   64 1   
@<TRIPOS>SUBSTRUCTURE
     1 OLF         1 TEMP              0 ****  ****    0 ROOT
