@<TRIPOS>MOLECULE
OLF
   63    57     1     0     0
SMALL
bcc


@<TRIPOS>ATOM
      1 N1         -0.1500    0.0280    1.5160 n2        1 OLF     -0.154500
      2 C2         -0.5410    1.3360    1.4470 c2        1 OLF      0.087000
      3 N3          0.2890    2.0690    2.2470 n2        1 OLF     -0.154500
      4 C4          0.9210   -0.0480    2.3590 c1        1 OLF     -0.042500
      5 C5          1.1930    1.2160    2.8120 c1        1 OLF     -0.042500
      6 C6         -0.1980   -0.2000   -0.9740 c1        1 OLF      0.281000
      7 C7         -0.7470   -0.7500    0.3910 c1        1 OLF      0.009000
      8 C8          1.6480   -1.1510    2.8630 c1        1 OLF     -0.122000
      9 N9          0.9360   -0.8420   -1.6110 n3        1 OLF     -0.296000
     10 C10         2.2010    1.4180    3.7830 c1        1 OLF     -0.122000
     11 C11         2.6400   -0.9520    3.8190 c1        1 OLF      0.055500
     12 C12         1.4700   -0.3080   -2.8510 c2        1 OLF      0.011000
     13 C13         2.8550    0.8170   -6.7760 c1        1 OLF      0.358000
     14 C14        -1.2580    2.4450    1.9600 c1        1 OLF     -0.043000
     15 C15         2.9160    0.3320    4.2790 c1        1 OLF      0.055500
     16 C16         2.3610    0.4100   -5.3920 c1        1 OLF     -0.107000
     17 C17         3.1800   -0.3450   -4.5540 c2        1 OLF     -0.088000
     18 C18         2.7350   -0.7040   -3.2840 c2        1 OLF     -0.134000
     19 O19        -0.7020    0.7880   -1.4800 o         1 OLF     -0.360000
     20 O20         3.5930    1.8320   -6.9090 o         1 OLF     -0.562000
     21 C21         0.6520    0.4460   -3.6880 c1        1 OLF     -0.160000
     22 C22         1.0980    0.8050   -4.9590 c1        1 OLF     -0.095000
     23 C23        -2.1110   -0.6210    0.4190 c3        1 OLF     -0.097000
     24 C24        -1.2000    3.7870    1.5960 c1        1 OLF     -0.100500
     25 C25        -1.9010    2.0700    3.1350 c1        1 OLF     -0.085000
     26 F26         3.4340   -1.6520    4.6480 f         1 OLF     -0.095000
     27 F27         3.9530    0.6250    5.0830 f         1 OLF     -0.095000
     28 O28         2.4830    0.1700   -7.7930 o         1 OLF     -0.562000
     29 C29        -2.4280    4.3780    3.5840 c1        1 OLF     -0.048000
     30 C30        -1.7850    4.7540    2.4080 c1        1 OLF     -0.100500
     31 C31        -2.4860    3.0370    3.9470 c1        1 OLF     -0.142000
     32 CL32       -3.1040    5.5990    4.6380 cl        1 OLF     -0.020000
     33 C33         3.9510   -1.5140   -2.8230 c3        1 OLF     -0.169000
     34 C34        -2.7900   -1.1600   -0.9130 c3        1 OLF     -0.153000
     35 C35        -2.7970   -1.6800    1.4210 c3        1 OLF     -0.153000
     36 C36        -2.4180   -3.1200    1.1170 c3        1 OLF     -0.156500
     37 C37        -2.4110   -2.6080   -1.2390 c3        1 OLF     -0.156500
     38 C38        -1.9340   -3.2540   -0.1480 c3        1 OLF     -0.155000
     39 H7         -0.5060   -1.6950    0.4830 ha        1 OLF      0.120000
     40 H8          1.4200   -2.0600    2.5770 ha        1 OLF      0.163000
     41 HN9         1.3400   -1.5620   -1.2110 hn        1 OLF      0.227000
     42 H10         2.3960    2.3240    4.1080 ha        1 OLF      0.163000
     43 H17         4.0710   -0.6240   -4.8600 ha        1 OLF      0.158000
     44 H21        -0.2350    0.7240   -3.3840 ha        1 OLF      0.138000
     45 H22         0.5210    1.3370   -5.5490 ha        1 OLF      0.158000
     46 H23        -2.3900    0.3000    0.6200 hc        1 OLF      0.122000
     47 H24        -0.7470    4.0520    0.7670 ha        1 OLF      0.169500
     48 H25        -1.9420    1.1260    3.3910 ha        1 OLF      0.148000
     49 H30        -1.7450    5.7010    2.1510 ha        1 OLF      0.169500
     50 H31        -2.9400    2.7720    4.7780 ha        1 OLF      0.145000
     51 H33         4.0340   -2.3240   -3.3740 hc        1 OLF      0.070000
     52 H33A        4.7630   -0.9690   -2.9190 hc        1 OLF      0.070000
     53 H33B        3.8380   -1.7690   -1.8820 hc        1 OLF      0.070000
     54 H34        -2.5150   -0.5860   -1.6620 hc        1 OLF      0.090250
     55 H34A       -3.7680   -1.1040   -0.8140 hc        1 OLF      0.090250
     56 H35        -2.5230   -1.4680    2.3400 hc        1 OLF      0.090250
     57 H35A       -3.7760   -1.5900    1.3540 hc        1 OLF      0.090250
     58 H36        -3.2140   -3.6900    1.2190 hc        1 OLF      0.078250
     59 H36A       -1.7300   -3.4130    1.7570 hc        1 OLF      0.078250
     60 H37        -3.2080   -3.0820   -1.5690 hc        1 OLF      0.078250
     61 H37A       -1.7210   -2.6100   -1.9410 hc        1 OLF      0.078250
     62 H38        -0.9800   -3.0280   -0.0980 hc        1 OLF      0.075500
     63 H38A       -1.9880   -4.2150   -0.3580 hc        1 OLF      0.075500
@<TRIPOS>BOND
     1    1    2 1   
     2    1    4 1   
     3    2    3 1   
     4    2   14 1   
     5    3    5 1   
     6    4    5 1   
     7    6    9 1   
     8    6   19 1   
     9    7   23 1   
    10    7   39 1   
    11    8   11 1   
    12    8   40 1   
    13    9   12 1   
    14    9   41 1   
    15   10   15 1   
    16   10   42 1   
    17   11   26 1   
    18   12   18 1   
    19   12   21 1   
    20   13   20 1   
    21   13   28 1   
    22   14   25 1   
    23   15   27 1   
    24   16   17 1   
    25   16   22 1   
    26   17   18 1   
    27   17   43 1   
    28   18   33 1   
    29   21   44 1   
    30   22   45 1   
    31   23   34 1   
    32   23   35 1   
    33   23   46 1   
    34   24   30 1   
    35   24   47 1   
    36   25   48 1   
    37   29   31 1   
    38   29   32 1   
    39   30   49 1   
    40   31   50 1   
    41   33   51 1   
    42   33   52 1   
    43   33   53 1   
    44   34   37 1   
    45   34   54 1   
    46   34   55 1   
    47   35   36 1   
    48   35   56 1   
    49   35   57 1   
    50   36   38 1   
    51   36   58 1   
    52   36   59 1   
    53   37   38 1   
    54   37   60 1   
    55   37   61 1   
    56   38   62 1   
    57   38   63 1   
@<TRIPOS>SUBSTRUCTURE
     1 OLF         1 TEMP              0 ****  ****    0 ROOT
