@<TRIPOS>MOLECULE
OLF
   63    67     1     0     0
SMALL
bcc


@<TRIPOS>ATOM
      1 N1         -1.6300    0.4890   -0.0340 na        1 OLF     -0.142300
      2 C2         -1.7430    1.8490    0.3860 cc        1 OLF      0.464400
      3 N3         -2.7290    2.5170   -0.2480 nd        1 OLF     -0.551100
      4 C4         -2.6490    0.3000   -0.9830 ca        1 OLF     -0.051200
      5 C5         -3.3220    1.5800   -1.1150 ca        1 OLF      0.065400
      6 C6          0.1090   -1.2400   -0.3100 c         1 OLF      0.650100
      7 C7         -0.8920   -0.5340    0.6630 c3        1 OLF     -0.022000
      8 C8         -3.0210   -0.8040   -1.7560 ca        1 OLF     -0.131000
      9 C10        -4.3830    1.7280   -2.0150 ca        1 OLF     -0.096000
     10 C11        -4.0880   -0.6380   -2.6420 ca        1 OLF      0.103900
     11 C12         2.5360   -1.3610   -0.8820 ca        1 OLF      0.006600
     12 C14        -0.8320    2.4530    1.3670 ca        1 OLF     -0.115900
     13 C15        -4.7670    0.6180   -2.7680 ca        1 OLF      0.068900
     14 C16         4.8260   -2.3970   -2.1560 ca        1 OLF     -0.128600
     15 C17         4.9440   -1.6450   -0.9850 ca        1 OLF     -0.086000
     16 C18         3.8250   -1.1240   -0.3340 ca        1 OLF     -0.150300
     17 O20         7.1890   -2.7040   -2.3060 o         1 OLF     -0.826800
     18 C21         2.4180   -2.1180   -2.0630 ca        1 OLF     -0.159000
     19 C22         3.5560   -2.6280   -2.6840 ca        1 OLF     -0.092000
     20 C23        -1.7530   -1.6340    1.3270 c3        1 OLF     -0.073700
     21 C24         0.5490    2.4580    1.1400 ca        1 OLF     -0.095000
     22 C25        -1.3580    3.0620    2.5130 ca        1 OLF     -0.095000
     23 F26        -4.4990   -1.6780   -3.4060 f         1 OLF     -0.127900
     24 F27        -5.7970    0.7180   -3.6430 f         1 OLF     -0.135900
     25 O28         5.9120   -3.6280   -3.8910 o         1 OLF     -0.826800
     26 C29         0.8770    3.6420    3.2160 ca        1 OLF      0.028400
     27 C30         1.4070    3.0490    2.0650 ca        1 OLF     -0.130500
     28 C31        -0.5040    3.6550    3.4400 ca        1 OLF     -0.130500
     29 CL32        1.9190    4.3610    4.3500 cl        1 OLF     -0.090400
     30 C33         4.0150   -0.3370    0.9080 c3        1 OLF     -0.039800
     31 C34        -0.8360   -2.5900    2.0830 c3        1 OLF     -0.078400
     32 C35        -2.7850   -1.0410    2.2730 c3        1 OLF     -0.078400
     33 C36        -3.5800   -2.1290    2.9660 c3        1 OLF     -0.074400
     34 C37        -1.6340   -3.6790    2.7710 c3        1 OLF     -0.074400
     35 C38        -2.6760   -3.0950    3.7020 c3        1 OLF     -0.078400
     36 H7         -0.3260   -0.0100    1.4940 h1        1 OLF      0.075700
     37 H8         -2.4770   -1.7630   -1.6950 ha        1 OLF      0.197000
     38 HN9         1.6140   -0.1160    0.4560 hn        1 OLF      0.306500
     39 H10        -4.8990    2.6920   -2.1320 ha        1 OLF      0.163000
     40 H17         5.9580   -1.4740   -0.5840 ha        1 OLF      0.157000
     41 H21         1.4270   -2.3180   -2.4970 ha        1 OLF      0.145000
     42 H22         3.4730   -3.2240   -3.6080 ha        1 OLF      0.159000
     43 H23        -2.2810   -2.2100    0.5150 hc        1 OLF      0.083700
     44 H24         0.9610    2.0160    0.2170 ha        1 OLF      0.156000
     45 H25        -2.4470    3.0790    2.6760 ha        1 OLF      0.156000
     46 H30         2.4930    3.0490    1.8850 ha        1 OLF      0.154000
     47 H31        -0.9170    4.1330    4.3410 ha        1 OLF      0.154000
     48 H33         3.4560   -0.7930    1.7640 hc        1 OLF      0.026367
     49 H33A        5.0970   -0.2980    1.1890 hc        1 OLF      0.026367
     50 H33B        3.6600    0.7170    0.7770 hc        1 OLF      0.026367
     51 H34        -0.1110   -3.0600    1.3660 hc        1 OLF      0.047950
     52 H34A       -0.2460   -2.0190    2.8470 hc        1 OLF      0.047950
     53 H35        -2.2670   -0.4080    3.0420 hc        1 OLF      0.047950
     54 H35A       -3.4930   -0.3800    1.7080 hc        1 OLF      0.047950
     55 H36        -4.2980   -1.6610    3.6880 hc        1 OLF      0.042950
     56 H36A       -4.1840   -2.6900    2.2050 hc        1 OLF      0.042950
     57 H37        -2.1370   -4.3170    1.9970 hc        1 OLF      0.042950
     58 H37A       -0.9360   -4.3380    3.3500 hc        1 OLF      0.042950
     59 H38        -2.1660   -2.5620    4.5470 hc        1 OLF      0.036700
     60 H38A       -3.2890   -3.9220    4.1460 hc        1 OLF      0.036700
     61 N9          1.4050   -0.8010   -0.2370 n         1 OLF     -0.442100
     62 C13         6.0700   -2.9520   -2.8370 c         1 OLF      0.909200
     63 O19        -0.3140   -2.1190   -1.0850 o         1 OLF     -0.598100
@<TRIPOS>BOND
     1    1    2 1   
     2    1    4 1   
     3    1    7 1   
     4    2    3 2   
     5    2   12 1   
     6    3    5 1   
     7    4    5 ar  
     8    4    8 ar  
     9    5    9 ar  
    10    6    7 1   
    11    6   61 1   
    12    6   63 2   
    13    7   20 1   
    14    7   36 1   
    15    8   10 ar  
    16    8   37 1   
    17    9   13 ar  
    18    9   39 1   
    19   10   13 ar  
    20   10   23 1   
    21   11   16 ar  
    22   11   18 ar  
    23   11   61 1   
    24   12   21 ar  
    25   12   22 ar  
    26   13   24 1   
    27   14   15 ar  
    28   14   19 ar  
    29   14   62 1   
    30   15   16 ar  
    31   15   40 1   
    32   16   30 1   
    33   17   62 1   
    34   18   19 ar  
    35   18   41 1   
    36   19   42 1   
    37   20   31 1   
    38   20   32 1   
    39   20   43 1   
    40   21   27 ar  
    41   21   44 1   
    42   22   28 ar  
    43   22   45 1   
    44   25   62 1   
    45   26   27 ar  
    46   26   28 ar  
    47   26   29 1   
    48   27   46 1   
    49   28   47 1   
    50   30   48 1   
    51   30   49 1   
    52   30   50 1   
    53   31   34 1   
    54   31   51 1   
    55   31   52 1   
    56   32   33 1   
    57   32   53 1   
    58   32   54 1   
    59   33   35 1   
    60   33   55 1   
    61   33   56 1   
    62   34   35 1   
    63   34   57 1   
    64   34   58 1   
    65   35   59 1   
    66   35   60 1   
    67   38   61 1   
@<TRIPOS>SUBSTRUCTURE
     1 OLF         1 TEMP              0 ****  ****    0 ROOT
