@<TRIPOS>MOLECULE
OLF
   63    66     1     0     0
SMALL
bcc


@<TRIPOS>ATOM
      1 N1          0.0050    0.4760   -0.0320 n3        1 OLF     -0.212000
      2 C2          1.0560   -0.5190    0.0350 c2        1 OLF      0.074000
      3 N3          1.1850   -1.0970    1.2170 n2        1 OLF     -0.113000
      4 C4         -0.5540    0.5320    1.2410 c2        1 OLF      0.070000
      5 C5          0.0980   -0.5980    2.0660 c3        1 OLF     -0.088000
      6 C6         -0.3770    2.5870   -1.3070 c2        1 OLF      0.284000
      7 C7         -0.5260    1.0360   -1.2470 c3        1 OLF      0.015000
      8 C8         -1.3840    1.4400    1.8410 c2        1 OLF     -0.272000
      9 C10         0.2910   -0.3250    3.4960 c1        1 OLF     -0.062000
     10 C11        -1.4160    1.4650    3.2720 c2        1 OLF      0.214000
     11 C12         0.2320    4.5100   -2.7500 c3        1 OLF      0.045000
     12 C14         1.9500   -0.7930   -1.1020 c2        1 OLF     -0.026000
     13 C15        -0.5510    0.6590    4.0510 c2        1 OLF     -0.115000
     14 C16        -0.0830    5.7520   -5.9140 cu        1 OLF      0.122000
     15 C17        -0.6710    5.4320   -4.7560 cu        1 OLF     -0.227000
     16 C18        -1.1340    5.0920   -3.4170 c3        1 OLF     -0.100000
     17 O20        -0.2610    5.3420   -8.2230 o         1 OLF     -0.518000
     18 C21         1.3560    4.7760   -3.7680 c2        1 OLF     -0.299000
     19 C22         0.7920    5.2560   -4.8750 cu        1 OLF     -0.111000
     20 C23        -2.0220    0.7540   -1.4900 c3        1 OLF     -0.153000
     21 C24         3.3750   -0.4120   -0.9250 c3        1 OLF     -0.203000
     22 C25         1.5280   -1.4180   -2.2290 c2        1 OLF     -0.151000
     23 F26        -2.2510    2.3370    3.8630 f         1 OLF     -0.074000
     24 F27        -0.5240    0.8650    5.3950 f         1 OLF     -0.096000
     25 O28        -0.0850    7.4720   -7.5250 o         1 OLF     -0.518000
     26 C29         3.7780   -1.4020   -3.1540 c2        1 OLF     -0.141000
     27 C30         4.2950   -0.7420   -1.9980 c1        1 OLF     -0.045000
     28 C31         2.4550   -1.7200   -3.2880 c2        1 OLF     -0.041000
     29 CL32        4.8770   -1.7820   -4.3900 cl        1 OLF      0.011000
     30 C33        -2.3730    4.3520   -3.3110 c1        1 OLF     -0.031000
     31 C34        -5.7790   -2.4920   -2.4250 c3        1 OLF     -0.213000
     32 C35        -2.2950   -0.6840   -1.7120 c2        1 OLF     -0.186000
     33 C36        -3.2620   -1.3570   -1.0810 c2        1 OLF     -0.144000
     34 C37        -5.0300   -3.1050   -1.2700 c3        1 OLF     -0.154000
     35 C38        -3.5470   -2.7930   -1.3170 c3        1 OLF     -0.135000
     36 H7          0.0590    0.5640   -2.0960 h1        1 OLF      0.118000
     37 H8         -1.9130    2.2280    1.2790 ha        1 OLF      0.196000
     38 HN9         0.4410    2.4830   -3.1860 hn        1 OLF      0.231000
     39 H10        -0.6680   -1.4550    2.1430 h1        1 OLF      0.193000
     40 H17        -1.3760    6.0550   -2.8560 hc        1 OLF      0.168000
     41 H21         0.4070    5.0620   -1.7870 h1        1 OLF      0.110000
     42 H22         2.3920    4.5690   -3.5280 ha        1 OLF      0.147000
     43 H23        -5.6520   -1.3820   -2.4290 hc        1 OLF      0.075667
     44 H24         3.7810   -0.8920    0.0210 hc        1 OLF      0.192500
     45 H25         0.4800   -1.7280   -2.3660 ha        1 OLF      0.146000
     46 H30         3.4610    0.7050   -0.7470 hc        1 OLF      0.192500
     47 H31         2.0550   -2.2150   -4.1890 ha        1 OLF      0.153000
     48 H33        -2.4260    3.6220   -2.4820 ha        1 OLF      0.019000
     49 H33A       -1.9760    2.4660   -4.5130 ha        1 OLF      0.012500
     50 H33B       -2.2150    2.9150   -4.9690 ha        1 OLF      0.012500
     51 H34        -6.8690   -2.7240   -2.3470 hc        1 OLF      0.075667
     52 H34A       -5.4020   -2.8910   -3.3970 hc        1 OLF      0.075667
     53 H35        -2.3230    1.3280   -2.4130 hc        1 OLF      0.119000
     54 H35A       -2.6230    1.1610   -0.6330 hc        1 OLF      0.119000
     55 H36        -3.1290   -3.1210   -2.3070 hc        1 OLF      0.086500
     56 H36A       -1.6630   -1.1730   -2.4720 ha        1 OLF      0.117000
     57 H37        -5.4600   -2.7330   -0.3020 hc        1 OLF      0.078000
     58 H37A       -3.0240   -3.3920   -0.5210 hc        1 OLF      0.086500
     59 H38        -3.9050   -0.8640   -0.3320 ha        1 OLF      0.127000
     60 H38A       -5.1640   -4.2190   -1.2860 hc        1 OLF      0.078000
     61 N9          0.1560    3.0960   -2.4570 n         1 OLF     -0.353000
     62 C13        -0.1480    6.2310   -7.3420 c2        1 OLF      0.397000
     63 O19        -0.7760    3.3000   -0.3640 o         1 OLF     -0.379000
@<TRIPOS>BOND
     1    1    2 1   
     2    1    4 1   
     3    1    7 1   
     4    2    3 1   
     5    2   12 1   
     6    3    5 1   
     7    4    5 1   
     8    4    8 1   
     9    5    9 1   
    10    5   39 1   
    11    6    7 1   
    12    6   61 1   
    13    6   63 1   
    14    7   20 1   
    15    7   36 1   
    16    8   10 1   
    17    8   37 1   
    18    9   13 1   
    19   10   13 1   
    20   10   23 1   
    21   11   16 1   
    22   11   18 1   
    23   11   41 1   
    24   11   61 1   
    25   12   21 1   
    26   12   22 1   
    27   13   24 1   
    28   14   15 1   
    29   14   19 1   
    30   14   62 1   
    31   15   16 1   
    32   15   19 1   
    33   16   30 1   
    34   16   40 1   
    35   17   62 1   
    36   18   19 1   
    37   18   42 1   
    38   20   32 1   
    39   20   53 1   
    40   20   54 1   
    41   21   27 1   
    42   21   44 1   
    43   21   46 1   
    44   22   28 1   
    45   22   45 1   
    46   25   62 1   
    47   26   27 1   
    48   26   28 1   
    49   26   29 1   
    50   28   47 1   
    51   30   48 1   
    52   31   34 1   
    53   31   43 1   
    54   31   51 1   
    55   31   52 1   
    56   32   33 1   
    57   32   56 1   
    58   33   35 1   
    59   33   59 1   
    60   34   35 1   
    61   34   57 1   
    62   34   60 1   
    63   35   55 1   
    64   35   58 1   
    65   38   61 1   
    66   49   50 1   
@<TRIPOS>SUBSTRUCTURE
     1 OLF         1 TEMP              0 ****  ****    0 ROOT
