@<TRIPOS>MOLECULE
OLI
   53    50     1     0     0
SMALL
bcc


@<TRIPOS>ATOM
      1 C1          1.3770    0.8240    9.8270 c1        1 OLI      0.327000
      2 O1          2.2450    1.4860   10.4550 o         1 OLI     -0.586000
      3 O2          0.9550   -0.2650   10.2970 os        1 OLI     -0.590000
      4 C2          0.8480    1.3330    8.5050 c3        1 OLI     -0.223000
      5 C3          1.6900    0.7760    7.3770 c3        1 OLI     -0.144000
      6 C4          1.1030    1.2050    6.0500 c3        1 OLI     -0.157000
      7 C5          2.0130    0.7570    4.9280 c3        1 OLI     -0.157000
      8 C6          1.2870    0.8890    3.6070 c3        1 OLI     -0.158000
      9 C7          2.2420    0.5840    2.4740 c3        1 OLI     -0.156000
     10 C8          1.4830    0.5700    1.1650 c3        1 OLI     -0.135000
     11 C9          2.4550    0.7350    0.0170 c2        1 OLI     -0.155000
     12 C10         2.0360    0.5590   -1.2510 c1        1 OLI     -0.187000
     13 C11         0.5930    0.1960   -1.5270 c2        1 OLI     -0.129000
     14 C12         0.3180    0.3170   -3.0100 c3        1 OLI     -0.155000
     15 C13        -0.8810   -0.5320   -3.3710 c3        1 OLI     -0.159000
     16 C14        -1.1380   -0.4350   -4.8590 c3        1 OLI     -0.157000
     17 C15        -2.2730   -1.3610   -5.2360 c3        1 OLI     -0.158000
     18 C16        -2.6330   -1.1520   -6.6910 c3        1 OLI     -0.157000
     19 C17        -3.5850   -2.2400   -7.1360 c3        1 OLI     -0.159000
     20 C18        -4.1040   -1.9200   -8.5210 c3        1 OLI     -0.210000
     21 H21         0.8900    2.3100    8.4910 hc        1 OLI      0.058000
     22 H22        -0.0790    1.0440    8.3920 hc        1 OLI      0.058000
     23 H31         2.6040    1.1160    7.4540 hc        1 OLI      0.083500
     24 H32         1.7000   -0.2000    7.4290 hc        1 OLI      0.083500
     25 H41         1.0170    2.1790    6.0310 hc        1 OLI      0.065000
     26 H42         0.2210    0.7980    5.9380 hc        1 OLI      0.065000
     27 H51         2.8150    1.3150    4.9160 hc        1 OLI      0.076000
     28 H52         2.2670   -0.1770    5.0680 hc        1 OLI      0.076000
     29 H61         0.9480    1.8010    3.5110 hc        1 OLI      0.073500
     30 H62         0.5390    0.2590    3.5820 hc        1 OLI      0.073500
     31 H71         2.9370    1.2710    2.4400 hc        1 OLI      0.078500
     32 H72         2.6540   -0.2900    2.6210 hc        1 OLI      0.078500
     33 H81         0.8380    1.3050    1.1540 hc        1 OLI      0.086000
     34 H82         1.0100   -0.2810    1.0720 hc        1 OLI      0.086000
     35 H9          3.3860    0.9690    0.1960 ha        1 OLI      0.122000
     36 H10         2.6630    0.6650   -1.9920 ha        1 OLI      0.116000
     37 H111        0.0050    0.8030   -1.0360 ha        1 OLI      0.087000
     38 H112        0.4270   -0.7240   -1.2390 ha        1 OLI      0.087000
     39 H121        0.1350    1.2510   -3.2320 hc        1 OLI      0.078000
     40 H122        1.0990    0.0090   -3.5130 hc        1 OLI      0.078000
     41 H131       -0.7060   -1.4640   -3.1300 hc        1 OLI      0.080000
     42 H132       -1.6660   -0.2120   -2.8830 hc        1 OLI      0.080000
     43 H141       -0.3300   -0.6940   -5.3470 hc        1 OLI      0.077500
     44 H142       -1.3770    0.4850   -5.0890 hc        1 OLI      0.077500
     45 H151       -3.0520   -1.1680   -4.6760 hc        1 OLI      0.079000
     46 H152       -1.9960   -2.2890   -5.0990 hc        1 OLI      0.079000
     47 H161       -1.8210   -1.1850   -7.2350 hc        1 OLI      0.078000
     48 H162       -3.0620   -0.2790   -6.7980 hc        1 OLI      0.078000
     49 H171       -4.3350   -2.2930   -6.5110 hc        1 OLI      0.078000
     50 H172       -3.1140   -3.0970   -7.1550 hc        1 OLI      0.078000
     51 H181       -3.3510   -1.7010   -9.1100 hc        1 OLI      0.070333
     52 H182       -4.7140   -1.1540   -8.4720 hc        1 OLI      0.070333
     53 H183       -4.5830   -2.6970   -8.8780 hc        1 OLI      0.070333
@<TRIPOS>BOND
     1    1    2 1   
     2    1    4 1   
     3    4    5 1   
     4    4   21 1   
     5    4   22 1   
     6    5    6 1   
     7    5   23 1   
     8    5   24 1   
     9    6    7 1   
    10    6   25 1   
    11    6   26 1   
    12    7    8 1   
    13    7   27 1   
    14    7   28 1   
    15    8    9 1   
    16    8   29 1   
    17    8   30 1   
    18    9   10 1   
    19    9   31 1   
    20    9   32 1   
    21   10   11 1   
    22   10   33 1   
    23   10   34 1   
    24   11   12 1   
    25   11   35 1   
    26   12   36 1   
    27   13   14 1   
    28   13   37 1   
    29   13   38 1   
    30   14   15 1   
    31   14   39 1   
    32   14   40 1   
    33   15   16 1   
    34   15   41 1   
    35   15   42 1   
    36   16   17 1   
    37   16   43 1   
    38   16   44 1   
    39   17   18 1   
    40   17   45 1   
    41   17   46 1   
    42   18   19 1   
    43   18   47 1   
    44   18   48 1   
    45   19   20 1   
    46   19   49 1   
    47   19   50 1   
    48   20   51 1   
    49   20   52 1   
    50   20   53 1   
@<TRIPOS>SUBSTRUCTURE
     1 OLI         1 TEMP              0 ****  ****    0 ROOT
