@<TRIPOS>MOLECULE
OLI
   53    52     1     0     0
SMALL
bcc


@<TRIPOS>ATOM
      1 C1          0.5250    0.9140    0.3760 c         1 OLI      0.907600
      2 O1          0.9630    2.0910    0.2260 o         1 OLI     -0.853300
      3 O2          0.6130    0.2630    1.4560 o         1 OLI     -0.853300
      4 C2         -0.1780    0.2350   -0.8140 c3        1 OLI     -0.194400
      5 C3          0.6050    0.4160   -2.0910 c3        1 OLI     -0.065400
      6 C4         -0.1610   -0.0830   -3.2980 c3        1 OLI     -0.078400
      7 C5          0.6410    0.0870   -4.5720 c3        1 OLI     -0.078400
      8 C6         -0.1270   -0.4040   -5.7800 c3        1 OLI     -0.079400
      9 C7          0.6760   -0.2340   -7.0520 c3        1 OLI     -0.077400
     10 C8         -0.0950   -0.7260   -8.2590 c3        1 OLI     -0.053200
     11 C9          0.6670   -0.5720   -9.5200 c2        1 OLI     -0.159200
     12 C10         0.2160   -0.9650  -10.7160 c2        1 OLI     -0.191200
     13 C11        -1.1040   -1.6060  -10.9250 c3        1 OLI     -0.046200
     14 C12        -1.3710   -1.9080  -12.3850 c3        1 OLI     -0.076400
     15 C13        -2.7250   -2.5600  -12.5690 c3        1 OLI     -0.080400
     16 C14        -2.9950   -2.8630  -14.0270 c3        1 OLI     -0.078400
     17 C15        -4.3480   -3.5160  -14.2110 c3        1 OLI     -0.079400
     18 C16        -4.6200   -3.8180  -15.6690 c3        1 OLI     -0.078400
     19 C17        -5.9730   -4.4720  -15.8540 c3        1 OLI     -0.080400
     20 C18        -6.2480   -4.7740  -17.3050 c3        1 OLI     -0.092100
     21 H21        -0.3160   -0.8530   -0.5910 hc        1 OLI      0.018700
     22 H22        -1.1930    0.6960   -0.9190 hc        1 OLI      0.018700
     23 H31         1.5790   -0.1340   -2.0120 hc        1 OLI      0.044200
     24 H32         0.8490    1.5060   -2.2110 hc        1 OLI      0.044200
     25 H41        -0.4200   -1.1650   -3.1600 hc        1 OLI      0.025700
     26 H42        -1.1280    0.4790   -3.3870 hc        1 OLI      0.025700
     27 H51         1.6060   -0.4780   -4.4850 hc        1 OLI      0.036700
     28 H52         0.9040    1.1690   -4.7060 hc        1 OLI      0.036700
     29 H61        -1.0920    0.1630   -5.8670 hc        1 OLI      0.034200
     30 H62        -0.3910   -1.4860   -5.6440 hc        1 OLI      0.034200
     31 H71         0.9390    0.8480   -7.1880 hc        1 OLI      0.039700
     32 H72         1.6410   -0.8000   -6.9650 hc        1 OLI      0.039700
     33 H81        -0.3660   -1.8080   -8.1160 hc        1 OLI      0.046700
     34 H82        -1.0650   -0.1610   -8.3400 hc        1 OLI      0.046700
     35 H9          1.6600   -0.1020   -9.4280 ha        1 OLI      0.122000
     36 H10         0.8320   -0.8220  -11.6180 ha        1 OLI      0.116000
     37 H111       -1.1540   -2.5590  -10.3290 hc        1 OLI      0.047700
     38 H112       -1.9130   -0.9340  -10.5250 hc        1 OLI      0.047700
     39 H121       -0.5700   -2.5850  -12.7830 hc        1 OLI      0.038700
     40 H122       -1.3270   -0.9580  -12.9800 hc        1 OLI      0.038700
     41 H131       -2.7680   -3.5100  -11.9730 hc        1 OLI      0.040700
     42 H132       -3.5260   -1.8830  -12.1700 hc        1 OLI      0.040700
     43 H141       -2.1940   -3.5390  -14.4260 hc        1 OLI      0.038200
     44 H142       -2.9520   -1.9130  -14.6230 hc        1 OLI      0.038200
     45 H151       -4.3910   -4.4660  -13.6160 hc        1 OLI      0.039700
     46 H152       -5.1500   -2.8400  -13.8120 hc        1 OLI      0.039700
     47 H161       -4.5770   -2.8680  -16.2650 hc        1 OLI      0.038700
     48 H162       -3.8190   -4.4940  -16.0690 hc        1 OLI      0.038700
     49 H171       -6.7720   -3.7950  -15.4520 hc        1 OLI      0.038700
     50 H172       -6.0140   -5.4210  -15.2570 hc        1 OLI      0.038700
     51 H181       -5.4750   -5.4670  -17.7160 hc        1 OLI      0.031033
     52 H182       -7.2490   -5.2550  -17.4180 hc        1 OLI      0.031033
     53 H183       -6.2360   -3.8370  -17.9120 hc        1 OLI      0.031033
@<TRIPOS>BOND
     1    1    2 1   
     2    1    3 1   
     3    1    4 1   
     4    4    5 1   
     5    4   21 1   
     6    4   22 1   
     7    5    6 1   
     8    5   23 1   
     9    5   24 1   
    10    6    7 1   
    11    6   25 1   
    12    6   26 1   
    13    7    8 1   
    14    7   27 1   
    15    7   28 1   
    16    8    9 1   
    17    8   29 1   
    18    8   30 1   
    19    9   10 1   
    20    9   31 1   
    21    9   32 1   
    22   10   11 1   
    23   10   33 1   
    24   10   34 1   
    25   11   12 2   
    26   11   35 1   
    27   12   13 1   
    28   12   36 1   
    29   13   14 1   
    30   13   37 1   
    31   13   38 1   
    32   14   15 1   
    33   14   39 1   
    34   14   40 1   
    35   15   16 1   
    36   15   41 1   
    37   15   42 1   
    38   16   17 1   
    39   16   43 1   
    40   16   44 1   
    41   17   18 1   
    42   17   45 1   
    43   17   46 1   
    44   18   19 1   
    45   18   47 1   
    46   18   48 1   
    47   19   20 1   
    48   19   49 1   
    49   19   50 1   
    50   20   51 1   
    51   20   52 1   
    52   20   53 1   
@<TRIPOS>SUBSTRUCTURE
     1 OLI         1 TEMP              0 ****  ****    0 ROOT
