@<TRIPOS>MOLECULE
OLM
   58    61     1     0     0
SMALL
bcc


@<TRIPOS>ATOM
      1 C4         -0.1040    1.1470    1.4440 ce        1 OLM     -0.021000
      2 C3          1.1450    1.5630    1.7440 cf        1 OLM     -0.221000
      3 O3          6.6960    4.8340    1.5880 oh        1 OLM     -0.613800
      4 C2          1.8550    1.0070    2.8800 cf        1 OLM      0.024800
      5 O2          5.6120    1.6090    4.4830 o         1 OLM     -0.775300
      6 C1          3.1920    0.8770    3.0140 c2        1 OLM     -0.121000
      7 O1          5.8480    3.8310    4.1800 o         1 OLM     -0.775300
      8 C20         3.7240   -1.8900   -1.2190 c3        1 OLM     -0.105100
      9 C19         4.2740   -0.8400   -0.2870 c3        1 OLM     -0.076400
     10 C15         3.8870    1.4480    0.6110 cc        1 OLM      0.342300
     11 N6          4.2310    2.6460    0.2060 nd        1 OLM     -0.598000
     12 C16         4.8380    3.3440    1.3100 cd        1 OLM      0.346600
     13 C22         5.3410    4.7640    1.1670 c3        1 OLM      0.145500
     14 C23         4.4600    5.6760    2.0190 c3        1 OLM     -0.106600
     15 C24         5.3410    5.2330   -0.2860 c3        1 OLM     -0.106600
     16 C17         4.8870    2.5460    2.4290 cc        1 OLM     -0.245900
     17 C21         5.5040    2.6780    3.8330 c         1 OLM      0.953200
     18 N1          4.2400    1.2380    2.0800 nx        1 OLM     -0.237800
     19 C7          0.9890    0.4780    3.9860 c3        1 OLM     -0.019000
     20 C6         -0.2620   -0.1420    3.4830 c2        1 OLM     -0.168200
     21 C5         -0.7700    0.1480    2.2660 ce        1 OLM     -0.052200
     22 C8         -1.9490   -0.5680    1.7000 c3        1 OLM      0.032900
     23 C9         -3.2120   -0.3200    2.4930 c2        1 OLM     -0.190200
     24 C10        -4.2860    0.3490    2.0200 ce        1 OLM     -0.116000
     25 C11        -4.1240    1.0890    0.7640 ce        1 OLM     -0.212100
     26 C12        -3.1470    0.5930    0.0160 c1        1 OLM     -0.058800
     27 C13        -2.2110   -0.3460    0.2140 ce        1 OLM     -0.073100
     28 C14        -1.5270   -1.1440   -0.7470 cc        1 OLM      0.361800
     29 N5         -0.3810   -1.9410   -0.5080 n1        1 OLM     -0.403500
     30 N4         -0.0660   -2.4430   -1.6490 nd        1 OLM     -0.166000
     31 N3         -0.9150   -2.0410   -2.6030 nd        1 OLM     -0.166000
     32 N2         -1.8160   -1.2560   -2.1250 nc        1 OLM     -0.403500
     33 H1          1.6470    2.3280    1.1350 ha        1 OLM      0.141000
     34 H2         -0.6520    1.5320    0.5660 ha        1 OLM      0.172000
     35 H3          6.7150    4.6850    2.5490 ho        1 OLM      0.449000
     36 H5          4.9610    0.5030    2.1500 hn        1 OLM      0.477800
     37 H6          3.6530    0.5150    3.9630 hx        1 OLM      0.210000
     38 H7          4.4500   -1.2940    0.7240 hc        1 OLM      0.033700
     39 H8          3.6350   -1.4880   -2.2570 hc        1 OLM      0.055033
     40 H9          2.7080   -2.2260   -0.8910 hc        1 OLM      0.055033
     41 H10         4.4040   -2.7760   -1.2400 hc        1 OLM      0.055033
     42 H11         5.2630   -0.4720   -0.6680 hc        1 OLM      0.033700
     43 H12         2.3490   -0.0270    0.3210 hc        1 OLM      0.109200
     44 H13         3.0290    0.6910   -1.1970 hc        1 OLM      0.109200
     45 H14         3.4040    5.6310    1.6680 hc        1 OLM      0.051533
     46 H15         4.5120    5.3570    3.0910 hc        1 OLM      0.051533
     47 H16         4.8310    6.7240    1.9360 hc        1 OLM      0.051533
     48 H17         5.7760    6.2600   -0.3340 hc        1 OLM      0.051533
     49 H18         4.3000    5.2540   -0.6820 hc        1 OLM      0.051533
     50 H19         5.9650    4.5550   -0.9140 hc        1 OLM      0.051533
     51 H20         0.7280    1.3380    4.6690 hc        1 OLM      0.073700
     52 H21         1.5550   -0.2710    4.6030 hc        1 OLM      0.073700
     53 H22        -1.7400   -1.6810    1.7810 hc        1 OLM      0.109700
     54 H23        -3.1980   -0.7450    3.5060 ha        1 OLM      0.114000
     55 H24        -5.2140    0.4610    2.5940 ha        1 OLM      0.117000
     56 H25        -4.6700    2.0200    0.6020 ha        1 OLM      0.136000
     57 H26        -0.7540   -0.8550    4.1600 ha        1 OLM      0.133000
     58 C18         3.3020    0.3190   -0.1710 c3        1 OLM     -0.144700
@<TRIPOS>BOND
     1    1    2 2   
     2    1   21 1   
     3    1   34 1   
     4    2    4 1   
     5    2   33 1   
     6    3   13 1   
     7    3   35 1   
     8    4    6 2   
     9    4   19 1   
    10    5   17 1   
    11    6   18 1   
    12    6   37 1   
    13    7   17 1   
    14    8    9 1   
    15    8   39 1   
    16    8   40 1   
    17    8   41 1   
    18    9   38 1   
    19    9   42 1   
    20    9   58 1   
    21   10   11 2   
    22   10   18 1   
    23   10   58 1   
    24   11   12 1   
    25   12   13 1   
    26   12   16 2   
    27   13   14 1   
    28   13   15 1   
    29   14   45 1   
    30   14   46 1   
    31   14   47 1   
    32   15   48 1   
    33   15   49 1   
    34   15   50 1   
    35   16   17 1   
    36   16   18 1   
    37   18   36 1   
    38   19   20 1   
    39   19   51 1   
    40   19   52 1   
    41   20   21 2   
    42   20   57 1   
    43   21   22 1   
    44   22   23 1   
    45   22   27 1   
    46   22   53 1   
    47   23   24 2   
    48   23   54 1   
    49   24   25 1   
    50   24   55 1   
    51   25   26 2   
    52   25   56 1   
    53   26   27 2   
    54   27   28 1   
    55   28   29 2   
    56   28   32 1   
    57   29   30 2   
    58   30   31 1   
    59   31   32 2   
    60   43   58 1   
    61   44   58 1   
@<TRIPOS>SUBSTRUCTURE
     1 OLM         1 TEMP              0 ****  ****    0 ROOT
