@<TRIPOS>MOLECULE
OLN
   29    28     1     0     0
SMALL
bcc


@<TRIPOS>ATOM
      1 CA          1.3570    0.1560    0.0720 c3        1 OLN     -0.046300
      2 C          -0.2100    0.0560    0.2020 c         1 OLN      0.913600
      3 O          -0.6530   -0.9960    0.7310 o         1 OLN     -0.829800
      4 OXT        -0.9150    1.0100   -0.2300 o         1 OLN     -0.829800
      5 CB          1.9450    0.1400    1.4870 c3        1 OLN     -0.068400
      6 CG          3.4470   -0.0400    1.4710 c3        1 OLN     -0.107400
      7 CD          3.9670   -0.3320    2.8770 c3        1 OLN      0.064000
      8 NE          5.3810   -0.6490    2.9280 n         1 OLN     -0.524900
      9 CZ          6.2440    0.1960    3.6470 c         1 OLN      0.723100
     10 O2          5.8330    0.9720    4.5460 o         1 OLN     -0.648100
     11 NH2         7.6300    0.1470    3.3920 n         1 OLN     -0.652000
     12 N1          1.7580    1.3090   -0.7070 n         1 OLN     -0.517900
     13 C1          2.8220    1.3090   -1.5670 c         1 OLN      0.640100
     14 O1          3.7080    0.4190   -1.5640 o         1 OLN     -0.669100
     15 C2          2.9460    2.4870   -2.5130 c3        1 OLN     -0.175100
     16 HA          1.7060   -0.7770   -0.4610 h1        1 OLN      0.055700
     17 HB1         1.6770    1.0810    2.0320 hc        1 OLN      0.053200
     18 HB2         1.4550   -0.7170    2.0250 hc        1 OLN      0.053200
     19 HG1         3.9350    0.8830    1.0620 hc        1 OLN      0.050700
     20 HG2         3.7100   -0.8780    0.7710 hc        1 OLN      0.050700
     21 HD1         3.4270   -1.2320    3.2900 h1        1 OLN      0.063200
     22 HD2         3.7440    0.5430    3.5510 h1        1 OLN      0.063200
     23 HNE         5.7380   -1.0100    2.0680 hn        1 OLN      0.288500
     24 HH21        8.1860    0.5520    4.1080 hn        1 OLN      0.287000
     25 HH22        8.0060   -0.6650    2.9680 hn        1 OLN      0.287000
     26 HN1         1.0140    1.9590   -0.8660 hn        1 OLN      0.327500
     27 H21         2.0710    2.5180   -3.2050 hc        1 OLN      0.050033
     28 H22         3.8810    2.3740   -3.1110 hc        1 OLN      0.050033
     29 H23         2.9920    3.4450   -1.9430 hc        1 OLN      0.050033
@<TRIPOS>BOND
     1    1    2 1   
     2    1    5 1   
     3    1   12 1   
     4    1   16 1   
     5    2    3 1   
     6    2    4 1   
     7    5    6 1   
     8    5   17 1   
     9    5   18 1   
    10    6    7 1   
    11    6   19 1   
    12    6   20 1   
    13    7    8 1   
    14    7   21 1   
    15    7   22 1   
    16    8    9 1   
    17    8   23 1   
    18    9   10 2   
    19    9   11 1   
    20   11   24 1   
    21   11   25 1   
    22   12   13 1   
    23   12   26 1   
    24   13   14 2   
    25   13   15 1   
    26   15   27 1   
    27   15   28 1   
    28   15   29 1   
@<TRIPOS>SUBSTRUCTURE
     1 OLN         1 TEMP              0 ****  ****    0 ROOT
