@<TRIPOS>MOLECULE
OLN
   32    31     1     0     0
SMALL
bcc


@<TRIPOS>ATOM
      1 CA          1.5070    0.0000    0.0000 c3        1 OLN     -0.166500
      2 C           0.0000    0.0000    0.0000 c         1 OLN      0.915600
      3 O          -0.6040   -1.0470    0.0000 o         1 OLN     -0.653800
      4 OXT        -0.6710    1.1610   -0.0020 o         1 OLN     -0.653800
      5 CB          2.0170    0.0000    1.4420 c3        1 OLN     -0.007400
      6 CG          3.5470    0.0020    1.4420 c3        1 OLN     -0.054400
      7 CD          4.0560    0.0020    2.8840 c3        1 OLN     -0.008200
      8 NE          5.5210    0.0030    2.8850 ny        1 OLN      0.204200
      9 CZ          6.1950    0.0030    4.0520 c         1 OLN     -0.023900
     10 O2          5.5870    0.0040    5.1040 o         1 OLN     -0.307100
     11 NH2         7.5430    0.0040    4.0520 nz        1 OLN      0.250600
     12 N1          1.9950    1.1940   -0.6910 ny        1 OLN      0.120200
     13 C1          2.2200    1.1610   -2.0190 c         1 OLN      0.337100
     14 O1          2.0180    0.1410   -2.6420 o         1 OLN     -0.398100
     15 C2          2.7210    2.3900   -2.7310 c3        1 OLN     -0.053100
     16 HA          1.8680   -0.8850   -0.5100 hx        1 OLN      0.106700
     17 HB1         1.6550    0.8840    1.9530 hc        1 OLN      0.071200
     18 HB2         1.6570   -0.8850    1.9530 hc        1 OLN      0.071200
     19 HG1         3.9070    0.8870    0.9310 hc        1 OLN      0.028700
     20 HG2         3.9090   -0.8820    0.9310 hc        1 OLN      0.028700
     21 HD1         3.6940    0.8860    3.3950 hx        1 OLN      0.111200
     22 HD2         3.6960   -0.8830    3.3940 hx        1 OLN      0.111200
     23 HNE         5.8130   -0.8100    2.3800 hn        1 OLN      0.246800
     24 HH21        7.8770   -0.8280    3.6080 hn        1 OLN      0.262133
     25 HH22        7.8760    0.0360    4.9960 hn        1 OLN      0.262133
     26 HN1         2.8600    1.4490   -0.2570 hn        1 OLN      0.260800
     27 H21         2.3320    3.2750   -2.2420 hc        1 OLN      0.055033
     28 H22         2.3890    2.3710   -3.7620 hc        1 OLN      0.055033
     29 H23         3.8040    2.4080   -2.7000 hc        1 OLN      0.055033
     30 HE3         5.8110    0.8180    2.3810 hn        1 OLN      0.246800
     31 HH23        7.8760    0.8050    3.5530 hn        1 OLN      0.262133
     32 H12         1.3250    1.9190   -0.5280 hn        1 OLN      0.260800
@<TRIPOS>BOND
     1    1    2 1   
     2    1    5 1   
     3    1   12 1   
     4    1   16 1   
     5    2    3 1   
     6    2    4 1   
     7    5    6 1   
     8    5   17 1   
     9    5   18 1   
    10    6    7 1   
    11    6   19 1   
    12    6   20 1   
    13    7    8 1   
    14    7   21 1   
    15    7   22 1   
    16    8    9 1   
    17    8   23 1   
    18    8   30 1   
    19    9   10 2   
    20    9   11 1   
    21   11   24 1   
    22   11   25 1   
    23   11   31 1   
    24   12   13 1   
    25   12   26 1   
    26   12   32 1   
    27   13   14 2   
    28   13   15 1   
    29   15   27 1   
    30   15   28 1   
    31   15   29 1   
@<TRIPOS>SUBSTRUCTURE
     1 OLN         1 TEMP              0 ****  ****    0 ROOT
