@<TRIPOS>MOLECULE
OLN
   29    28     1     0     0
SMALL
bcc


@<TRIPOS>ATOM
      1 CA         -0.8720    0.5670   -1.2550 c3        1 OLN     -0.043300
      2 C          -2.3600    0.3440   -1.3490 c         1 OLN      0.909600
      3 O          -2.8050   -0.6850   -1.9120 o         1 OLN     -0.833300
      4 OXT        -3.1500    1.2290   -0.9520 o         1 OLN     -0.833300
      5 CB         -0.4440    0.5450    0.2120 c3        1 OLN     -0.057400
      6 CG          0.1810   -0.8170    0.5420 c3        1 OLN     -0.125400
      7 CD          0.5950   -0.8450    2.0150 c3        1 OLN      0.069000
      8 NE          1.2260   -2.1100    2.3150 n         1 OLN     -0.522900
      9 CZ          1.5130   -2.4600    3.6680 c         1 OLN      0.725100
     10 O2          1.1000   -1.7640    4.5760 o         1 OLN     -0.654100
     11 NH2         2.2390   -3.6490    3.9560 n         1 OLN     -0.654000
     12 N1         -0.5460    1.8290   -1.8260 n         1 OLN     -0.522900
     13 C1         -0.6780    2.0290   -3.2360 c         1 OLN      0.641100
     14 O1         -1.1200    1.1380   -3.9390 o         1 OLN     -0.655100
     15 C2         -0.3200    3.3800   -3.8510 c3        1 OLN     -0.176100
     16 HA         -0.4060   -0.1410   -1.7410 h1        1 OLN      0.065700
     17 HB1        -1.2260    0.6920    0.7830 hc        1 OLN      0.031700
     18 HB2         0.2150    1.2530    0.3710 hc        1 OLN      0.031700
     19 HG1        -0.4710   -1.5230    0.3750 hc        1 OLN      0.071200
     20 HG2         0.9670   -0.9600   -0.0200 hc        1 OLN      0.071200
     21 HD1         1.2270   -0.1140    2.1910 h1        1 OLN      0.060200
     22 HD2        -0.1980   -0.7340    2.5790 h1        1 OLN      0.060200
     23 HNE         1.4670   -2.6710    1.6390 hn        1 OLN      0.293500
     24 HH21        2.4560   -3.8540    4.8210 hn        1 OLN      0.288000
     25 HH22        2.4740   -4.2160    3.2790 hn        1 OLN      0.288000
     26 HN1        -0.3320    2.5290   -1.2870 hn        1 OLN      0.324500
     27 H21        -0.5400    3.3720   -4.8110 hc        1 OLN      0.049700
     28 H22         0.6410    3.5480   -3.7370 hc        1 OLN      0.049700
     29 H23        -0.8300    4.0870   -3.4060 hc        1 OLN      0.049700
@<TRIPOS>BOND
     1    1    2 1   
     2    1    5 1   
     3    1   12 1   
     4    1   16 1   
     5    2    3 1   
     6    2    4 1   
     7    5    6 1   
     8    5   17 1   
     9    5   18 1   
    10    6    7 1   
    11    6   19 1   
    12    6   20 1   
    13    7    8 1   
    14    7   21 1   
    15    7   22 1   
    16    8    9 1   
    17    8   23 1   
    18    9   10 2   
    19    9   11 1   
    20   11   24 1   
    21   11   25 1   
    22   12   13 1   
    23   12   26 1   
    24   13   14 2   
    25   13   15 1   
    26   15   27 1   
    27   15   28 1   
    28   15   29 1   
@<TRIPOS>SUBSTRUCTURE
     1 OLN         1 TEMP              0 ****  ****    0 ROOT
