@<TRIPOS>MOLECULE
OLN
   29    28     1     0     0
SMALL
bcc


@<TRIPOS>ATOM
      1 CA         -0.5600   -0.1310   -1.6860 c3        1 OLN     -0.046300
      2 C          -1.7350    0.1320   -2.7030 c         1 OLN      0.913600
      3 O          -2.7580   -0.5880   -2.5620 o         1 OLN     -0.829800
      4 OXT        -1.5830    1.0210   -3.5860 o         1 OLN     -0.829800
      5 CB         -1.0810    0.1840   -0.2790 c3        1 OLN     -0.068400
      6 CG         -0.1260   -0.2890    0.7940 c3        1 OLN     -0.107400
      7 CD         -0.7870   -0.2180    2.1690 c3        1 OLN      0.064000
      8 NE          0.0150   -0.7800    3.2390 n         1 OLN     -0.524900
      9 CZ          0.4420    0.0580    4.2830 c         1 OLN      0.723100
     10 O2         -0.1290    1.1450    4.5510 o         1 OLN     -0.648100
     11 NH2         1.5200   -0.3460    5.0960 n         1 OLN     -0.652000
     12 N1          0.6310    0.6100   -2.0410 n         1 OLN     -0.517900
     13 C1          1.9000    0.1240   -1.8810 c         1 OLN      0.640100
     14 O1          2.1690   -0.8770   -1.1740 o         1 OLN     -0.669100
     15 C2          3.0230    0.8920   -2.5520 c3        1 OLN     -0.175100
     16 HA         -0.3240   -1.2350   -1.7300 h1        1 OLN      0.055700
     17 HB1        -1.2680    1.2830   -0.1690 hc        1 OLN      0.053200
     18 HB2        -2.0700   -0.3410   -0.1820 hc        1 OLN      0.053200
     19 HG1         0.1940   -1.3410    0.5650 hc        1 OLN      0.050200
     20 HG2         0.8030    0.3390    0.7790 hc        1 OLN      0.050200
     21 HD1        -1.0510    0.8510    2.4070 h1        1 OLN      0.063200
     22 HD2        -1.7460   -0.8130    2.1480 h1        1 OLN      0.063200
     23 HNE         0.6760   -1.4580    2.9240 hn        1 OLN      0.288500
     24 HH21        1.5820    0.1450    5.9570 hn        1 OLN      0.287000
     25 HH22        1.7490   -1.3090    5.1360 hn        1 OLN      0.287000
     26 HN1         0.4710    1.3120   -2.7360 hn        1 OLN      0.327500
     27 H21         3.9950    0.4090   -2.2940 hc        1 OLN      0.050033
     28 H22         2.8910    0.8770   -3.6600 hc        1 OLN      0.050033
     29 H23         3.0370    1.9510   -2.2020 hc        1 OLN      0.050033
@<TRIPOS>BOND
     1    1    2 1   
     2    1    5 1   
     3    1   12 1   
     4    1   16 1   
     5    2    3 1   
     6    2    4 1   
     7    5    6 1   
     8    5   17 1   
     9    5   18 1   
    10    6    7 1   
    11    6   19 1   
    12    6   20 1   
    13    7    8 1   
    14    7   21 1   
    15    7   22 1   
    16    8    9 1   
    17    8   23 1   
    18    9   10 2   
    19    9   11 1   
    20   11   24 1   
    21   11   25 1   
    22   12   13 1   
    23   12   26 1   
    24   13   14 2   
    25   13   15 1   
    26   15   27 1   
    27   15   28 1   
    28   15   29 1   
@<TRIPOS>SUBSTRUCTURE
     1 OLN         1 TEMP              0 ****  ****    0 ROOT
