@<TRIPOS>MOLECULE
OLO
   42    44     1     0     0
SMALL
bcc


@<TRIPOS>ATOM
      1 N          -0.1200   -0.9080    0.5130 na        1 OLO     -0.214000
      2 C           1.2850   -0.9900    0.5630 cc        1 OLO      0.535700
      3 N1          1.8260   -0.5250    1.7150 nd        1 OLO     -0.558100
      4 C3A         0.7440   -0.1070    2.4790 ca        1 OLO     -0.088200
      5 C7A        -0.5200   -0.3410    1.7300 ca        1 OLO      0.444800
      6 C1          0.6120    0.4790    3.7560 ca        1 OLO      0.569200
      7 N2         -0.6070    0.7940    4.2640 nb        1 OLO     -0.677000
      8 C2         -1.7030    0.5330    3.4720 ca        1 OLO      0.726900
      9 N3         -1.7420   -0.0280    2.2180 nb        1 OLO     -0.599000
     10 C3         -0.9800   -1.3110   -0.5650 c3        1 OLO      0.002600
     11 N4         -3.0240    0.9150    4.0500 n4        1 OLO     -0.732700
     12 C4         -3.7460   -0.2710    4.6220 c3        1 OLO      0.102800
     13 C5         -5.1170    0.1370    5.1870 c3        1 OLO      0.109400
     14 O          -5.7640    0.8940    4.1840 oh        1 OLO     -0.635800
     15 N5          1.8200    0.7500    4.5520 n4        1 OLO     -0.758700
     16 C6          2.2290   -0.4450    5.3990 c3        1 OLO      0.197100
     17 C7          3.3990    0.4190    7.4320 ca        1 OLO     -0.092500
     18 C8          4.5680    0.6700    8.1450 ca        1 OLO     -0.116500
     19 C9          5.8120    0.3860    7.5750 ca        1 OLO     -0.056000
     20 C10         5.8860   -0.1520    6.2880 ca        1 OLO     -0.116500
     21 C11         4.7210   -0.4070    5.5680 ca        1 OLO     -0.092500
     22 C12         3.4720   -0.1220    6.1400 ca        1 OLO     -0.218300
     23 H           1.8730   -1.4040   -0.2800 h5        1 OLO      0.133800
     24 H31        -1.6630   -2.1340   -0.2170 h1        1 OLO      0.098033
     25 H32        -0.3490   -1.6810   -1.4180 h1        1 OLO      0.098033
     26 H33        -1.5970   -0.4340   -0.9060 h1        1 OLO      0.098033
     27 HN4        -3.6210    1.3260    3.3070 hn        1 OLO      0.493300
     28 H41        -3.8860   -1.0200    3.7900 hx        1 OLO      0.120200
     29 H42        -3.1170   -0.7200    5.4400 hx        1 OLO      0.120200
     30 H51        -5.6760   -0.8050    5.4380 h1        1 OLO      0.085700
     31 H52        -5.0030    0.7640    6.1120 h1        1 OLO      0.085700
     32 HO         -6.7210    0.8220    4.3180 ho        1 OLO      0.468000
     33 HN5         1.6750    1.5600    5.1750 hn        1 OLO      0.480800
     34 H61         1.3730   -0.6670    6.0980 hx        1 OLO      0.110700
     35 H62         2.3810   -1.3140    4.6950 hx        1 OLO      0.110700
     36 H9          6.7370    0.5810    8.1450 ha        1 OLO      0.173000
     37 H10         6.8690   -0.3830    5.8430 ha        1 OLO      0.169500
     38 H11         4.7850   -0.8490    4.5620 ha        1 OLO      0.140000
     39 H7          2.4210    0.6260    7.8940 ha        1 OLO      0.140000
     40 H421       -2.8920    1.6260    4.7850 hn        1 OLO      0.493300
     41 H521        2.5920    0.9770    3.9040 hn        1 OLO      0.480800
     42 H8          4.5120    1.0870    9.1650 ha        1 OLO      0.169500
@<TRIPOS>BOND
     1    1    2 1   
     2    1    5 1   
     3    1   10 1   
     4    2    3 2   
     5    2   23 1   
     6    3    4 1   
     7    4    5 ar  
     8    4    6 ar  
     9    5    9 ar  
    10    6    7 ar  
    11    6   15 1   
    12    7    8 ar  
    13    8    9 ar  
    14    8   11 1   
    15   10   24 1   
    16   10   25 1   
    17   10   26 1   
    18   11   12 1   
    19   11   27 1   
    20   11   40 1   
    21   12   13 1   
    22   12   28 1   
    23   12   29 1   
    24   13   14 1   
    25   13   30 1   
    26   13   31 1   
    27   14   32 1   
    28   15   16 1   
    29   15   33 1   
    30   15   41 1   
    31   16   22 1   
    32   16   34 1   
    33   16   35 1   
    34   17   18 ar  
    35   17   22 ar  
    36   17   39 1   
    37   18   19 ar  
    38   18   42 1   
    39   19   20 ar  
    40   19   36 1   
    41   20   21 ar  
    42   20   37 1   
    43   21   22 ar  
    44   21   38 1   
@<TRIPOS>SUBSTRUCTURE
     1 OLO         1 TEMP              0 ****  ****    0 ROOT
