@<TRIPOS>MOLECULE
OLO
   40    42     1     0     0
SMALL
bcc


@<TRIPOS>ATOM
      1 N           3.0630   -0.1310    2.6190 na        1 OLO     -0.273000
      2 C           3.8290   -0.0660    1.4260 cc        1 OLO      0.389700
      3 N1          3.0870   -0.0640    0.3110 nd        1 OLO     -0.535100
      4 C3A         1.7590   -0.1170    0.7570 ca        1 OLO     -0.264200
      5 C7A         1.7190   -0.1520    2.2120 ca        1 OLO      0.491800
      6 C1          0.4950   -0.1380    0.0790 ca        1 OLO      0.784200
      7 N2         -0.6610   -0.1720    0.8050 nb        1 OLO     -0.834000
      8 C2         -0.5710   -0.2320    2.1920 ca        1 OLO      0.914900
      9 N3          0.5850   -0.1950    2.9580 nb        1 OLO     -0.788000
     10 C3          3.5520   -0.0750    3.9530 c3        1 OLO      0.036600
     11 N4         -1.7720   -0.4120    2.9130 nh        1 OLO     -0.816900
     12 C4         -3.0250   -0.0440    2.2950 c3        1 OLO      0.200800
     13 C5         -4.2140   -0.2010    3.2530 c3        1 OLO      0.115400
     14 O          -4.0430    0.7400    4.3010 oh        1 OLO     -0.607800
     15 N5          0.4720   -0.1550   -1.3000 nh        1 OLO     -0.859900
     16 C6         -0.7540   -0.0180   -2.0460 c3        1 OLO      0.264100
     17 C7          0.1620   -1.0100   -4.1720 ca        1 OLO     -0.116000
     18 C8          0.3340   -0.9820   -5.5550 ca        1 OLO     -0.131500
     19 C9         -0.1860    0.0750   -6.3030 ca        1 OLO     -0.123000
     20 C10        -0.8770    1.1040   -5.6660 ca        1 OLO     -0.131500
     21 C11        -1.0470    1.0820   -4.2820 ca        1 OLO     -0.116000
     22 C12        -0.5300    0.0220   -3.5300 ca        1 OLO     -0.111300
     23 H           4.9240   -0.0340    1.4620 h5        1 OLO      0.068800
     24 H31         3.6000    0.9900    4.3120 h1        1 OLO      0.055033
     25 H32         2.8680   -0.6530    4.6320 h1        1 OLO      0.055033
     26 H33         4.5820   -0.5210    3.9920 h1        1 OLO      0.055033
     27 HN4        -1.7140   -0.1610    3.8810 hn        1 OLO      0.432800
     28 H41        -3.0070    1.0220    1.9260 h1        1 OLO      0.059700
     29 H42        -3.2050   -0.7210    1.4120 h1        1 OLO      0.059700
     30 H51        -5.1590    0.0200    2.6890 h1        1 OLO      0.035200
     31 H52        -4.2680   -1.2420    3.6710 h1        1 OLO      0.035200
     32 HO         -4.7710    0.6040    4.9180 ho        1 OLO      0.405000
     33 HN5         1.3290    0.0280   -1.7700 hn        1 OLO      0.455800
     34 H61        -1.4190   -0.9000   -1.8040 h1        1 OLO      0.058700
     35 H62        -1.3030    0.9140   -1.7200 h1        1 OLO      0.058700
     36 H8          0.8800   -1.7950   -6.0560 ha        1 OLO      0.133500
     37 H9         -0.0500    0.0950   -7.3950 ha        1 OLO      0.133000
     38 H10        -1.2880    1.9380   -6.2540 ha        1 OLO      0.133500
     39 H11        -1.5900    1.8990   -3.7830 ha        1 OLO      0.138500
     40 H7          0.5670   -1.8480   -3.5840 ha        1 OLO      0.138500
@<TRIPOS>BOND
     1    1    2 1   
     2    1    5 1   
     3    1   10 1   
     4    2    3 2   
     5    2   23 1   
     6    3    4 1   
     7    4    5 ar  
     8    4    6 ar  
     9    5    9 ar  
    10    6    7 ar  
    11    6   15 1   
    12    7    8 ar  
    13    8    9 ar  
    14    8   11 1   
    15   10   24 1   
    16   10   25 1   
    17   10   26 1   
    18   11   12 1   
    19   11   27 1   
    20   12   13 1   
    21   12   28 1   
    22   12   29 1   
    23   13   14 1   
    24   13   30 1   
    25   13   31 1   
    26   14   32 1   
    27   15   16 1   
    28   15   33 1   
    29   16   22 1   
    30   16   34 1   
    31   16   35 1   
    32   17   18 ar  
    33   17   22 ar  
    34   17   40 1   
    35   18   19 ar  
    36   18   36 1   
    37   19   20 ar  
    38   19   37 1   
    39   20   21 ar  
    40   20   38 1   
    41   21   22 ar  
    42   21   39 1   
@<TRIPOS>SUBSTRUCTURE
     1 OLO         1 TEMP              0 ****  ****    0 ROOT
