@<TRIPOS>MOLECULE
OLO
   40    34     1     0     0
SMALL
bcc


@<TRIPOS>ATOM
      1 N          -0.2110   -0.8620   -3.6710 n2        1 OLO     -0.190000
      2 C           1.1490   -0.7710   -3.6270 c1        1 OLO     -0.066000
      3 N1          1.5210   -0.6420   -2.3220 n2        1 OLO     -0.107000
      4 C3A         0.3930   -0.6530   -1.5570 c1        1 OLO     -0.272000
      5 C7A        -0.6810   -0.7890   -2.3870 c1        1 OLO      0.099000
      6 C1          0.1970   -0.3740   -0.1970 c1        1 OLO      0.263000
      7 N2         -1.0510   -0.2410    0.2890 n1        1 OLO     -0.301000
      8 C2         -2.1380   -0.3790   -0.5490 c1        1 OLO      0.196000
      9 N3         -1.9470   -0.6540   -1.8910 n1        1 OLO     -0.267000
     10 C3         -0.7150   -0.9280   -5.0400 c2        1 OLO     -0.062000
     11 N4         -3.5830   -0.3960   -0.5510 n3        1 OLO     -0.269000
     12 C4         -4.3180    0.3930    0.4110 c3        1 OLO     -0.042000
     13 C5         -5.8090    0.2460    0.1520 c3        1 OLO     -0.032000
     14 O          -6.4760    1.4080    0.5730 oh        1 OLO     -0.323000
     15 N5          1.5460   -0.3150    0.3780 n3        1 OLO     -0.302000
     16 C6          1.8330    0.6150    1.4330 c3        1 OLO      0.018000
     17 C7          4.3310    0.5060    1.6740 c1        1 OLO     -0.117000
     18 C8          5.3970    0.7810    2.5390 c1        1 OLO     -0.125000
     19 C9          5.2150    0.7100    3.9140 c1        1 OLO     -0.125000
     20 C10         3.9650    0.3650    4.4380 c1        1 OLO     -0.125000
     21 C11         2.8910    0.0880    3.5710 c1        1 OLO     -0.125000
     22 C12         3.0740    0.1590    2.1970 c1        1 OLO     -0.103000
     23 H           1.7580   -0.7400   -4.4130 DU        1 OLO      0.199000
     24 H31        -0.4420   -1.7860   -5.4520 ha        1 OLO      0.094333
     25 H32        -0.3460   -0.1840   -5.5590 ha        1 OLO      0.094333
     26 H33        -1.6940   -0.8660   -5.0300 ha        1 OLO      0.094333
     27 HN4        -4.0330   -0.9190   -1.1530 hn        1 OLO      0.214000
     28 H41        -4.0610    1.3380    0.3230 h1        1 OLO      0.107000
     29 H42        -4.1060    0.0750    1.3340 h1        1 OLO      0.107000
     30 H51        -6.1550   -0.5310    0.6520 h1        1 OLO      0.067000
     31 H52        -5.9600    0.1110   -0.8080 h1        1 OLO      0.067000
     32 HO         -7.3430    1.3290    0.4010 ho        1 OLO      0.204000
     33 HN5         2.1820   -0.9000    0.1020 hn        1 OLO      0.252000
     34 H61         1.9940    1.5050    1.0500 h1        1 OLO      0.101000
     35 H62         1.0760    0.6560    2.0420 h1        1 OLO      0.101000
     36 H7          4.4610    0.5570    0.7030 ha        1 OLO      0.141000
     37 H8          6.2730    1.0220    2.1740 ha        1 OLO      0.134000
     38 H9          5.9560    0.9010    4.5120 ha        1 OLO      0.134000
     39 H10         3.8370    0.3160    5.4130 ha        1 OLO      0.134000
     40 H11         2.0220   -0.1510    3.9340 ha        1 OLO      0.134000
@<TRIPOS>BOND
     1    1    2 1   
     2    1    5 1   
     3    2    3 1   
     4    3    4 1   
     5    4    6 1   
     6    5    9 1   
     7    6   15 1   
     8    7    8 1   
     9    8   11 1   
    10   10   24 1   
    11   10   25 1   
    12   10   26 1   
    13   11   12 1   
    14   11   27 1   
    15   12   13 1   
    16   12   28 1   
    17   12   29 1   
    18   13   14 1   
    19   13   30 1   
    20   13   31 1   
    21   14   32 1   
    22   15   16 1   
    23   15   33 1   
    24   16   22 1   
    25   16   34 1   
    26   16   35 1   
    27   17   22 1   
    28   17   36 1   
    29   18   19 1   
    30   18   37 1   
    31   19   38 1   
    32   20   21 1   
    33   20   39 1   
    34   21   40 1   
@<TRIPOS>SUBSTRUCTURE
     1 OLO         1 TEMP              0 ****  ****    0 ROOT
