@<TRIPOS>MOLECULE
OLO
   40    42     1     0     0
SMALL
bcc


@<TRIPOS>ATOM
      1 N          -0.0560    0.1610   -0.0090 na        1 OLO     -0.273000
      2 C           1.3630    0.1690    0.0140 cc        1 OLO      0.389700
      3 N1          1.8790    0.1550    1.2490 nd        1 OLO     -0.535100
      4 C3A         0.7710    0.1240    2.1080 ca        1 OLO     -0.264200
      5 C7A        -0.4630    0.1190    1.3340 ca        1 OLO      0.491800
      6 C1          0.6350    0.0920    3.5350 ca        1 OLO      0.784200
      7 N2         -0.6100    0.0450    4.0940 nb        1 OLO     -0.834000
      8 C2         -1.7170    0.0730    3.2510 ca        1 OLO      0.914900
      9 N3         -1.7130    0.0810    1.8640 nb        1 OLO     -0.788000
     10 C3         -0.8930    0.0990   -1.1580 c3        1 OLO      0.036600
     11 N4         -2.9900    0.1700    3.8560 nu        1 OLO     -0.816900
     12 C4         -3.1500   -0.2510    5.2290 c3        1 OLO      0.200800
     13 C5         -4.6130   -0.1830    5.6900 c3        1 OLO      0.115400
     14 O          -5.3410   -1.1390    4.9370 oh        1 OLO     -0.607800
     15 N5          1.7670    0.1430    4.3200 nu        1 OLO     -0.859900
     16 C6          1.7170   -0.0410    5.7490 c3        1 OLO      0.264100
     17 C7          3.9390    1.0560    6.1990 ca        1 OLO     -0.116000
     18 C8          5.1860    1.0730    6.8230 ca        1 OLO     -0.131500
     19 C9          5.5760    0.0100    7.6360 ca        1 OLO     -0.123000
     20 C10         4.7180   -1.0740    7.8240 ca        1 OLO     -0.131500
     21 C11         3.4720   -1.0970    7.1980 ca        1 OLO     -0.116000
     22 C12         3.0770   -0.0300    6.3850 ca        1 OLO     -0.111300
     23 H           1.9400    0.1960   -0.9170 h5        1 OLO      0.068800
     24 H31        -1.1100   -0.9710   -1.4300 h1        1 OLO      0.055033
     25 H32        -1.8650    0.6210   -0.9480 h1        1 OLO      0.055033
     26 H33        -0.3790    0.5980   -2.0210 h1        1 OLO      0.055033
     27 HN4        -3.7500   -0.1020    3.2630 hn        1 OLO      0.432800
     28 H41        -2.7780   -1.3050    5.3850 h1        1 OLO      0.059700
     29 H42        -2.5500    0.4370    5.8900 h1        1 OLO      0.059700
     30 H51        -4.6540   -0.4420    6.7820 h1        1 OLO      0.035200
     31 H52        -5.0430    0.8420    5.5360 h1        1 OLO      0.035200
     32 HO         -6.2640   -1.0590    5.2040 ho        1 OLO      0.405000
     33 HN5         2.6420    0.0200    3.8620 hn        1 OLO      0.455800
     34 H61         1.1010    0.7960    6.1950 h1        1 OLO      0.058700
     35 H62         1.1910   -1.0110    5.9950 h1        1 OLO      0.058700
     36 H8          5.8610    1.9280    6.6730 ha        1 OLO      0.133500
     37 H9          6.5590    0.0250    8.1290 ha        1 OLO      0.133000
     38 H10         5.0240   -1.9140    8.4650 ha        1 OLO      0.133500
     39 H11         2.8000   -1.9560    7.3460 ha        1 OLO      0.138500
     40 H7          3.6300    1.8990    5.5630 ha        1 OLO      0.138500
@<TRIPOS>BOND
     1    1    2 1   
     2    1    5 1   
     3    1   10 1   
     4    2    3 2   
     5    2   23 1   
     6    3    4 1   
     7    4    5 ar  
     8    4    6 ar  
     9    5    9 ar  
    10    6    7 ar  
    11    6   15 1   
    12    7    8 ar  
    13    8    9 ar  
    14    8   11 1   
    15   10   24 1   
    16   10   25 1   
    17   10   26 1   
    18   11   12 1   
    19   11   27 1   
    20   12   13 1   
    21   12   28 1   
    22   12   29 1   
    23   13   14 1   
    24   13   30 1   
    25   13   31 1   
    26   14   32 1   
    27   15   16 1   
    28   15   33 1   
    29   16   22 1   
    30   16   34 1   
    31   16   35 1   
    32   17   18 ar  
    33   17   22 ar  
    34   17   40 1   
    35   18   19 ar  
    36   18   36 1   
    37   19   20 ar  
    38   19   37 1   
    39   20   21 ar  
    40   20   38 1   
    41   21   22 ar  
    42   21   39 1   
@<TRIPOS>SUBSTRUCTURE
     1 OLO         1 TEMP              0 ****  ****    0 ROOT
