@<TRIPOS>MOLECULE
OLP
   44    46     1     0     0
SMALL
bcc


@<TRIPOS>ATOM
      1 CAH         0.1920   -0.5850    0.1430 ca        1 OLP     -0.129000
      2 CAQ         1.5400   -0.9280    0.2430 ca        1 OLP      0.012400
      3 CL          2.3990   -1.3350   -1.1660 cl        1 OLP     -0.082400
      4 CAF         2.1900   -0.9440    1.4810 ca        1 OLP     -0.102000
      5 CAE         1.4700   -0.6160    2.6290 ca        1 OLP     -0.118000
      6 CAG         0.1240   -0.2730    2.5560 ca        1 OLP     -0.087000
      7 CAR        -0.5340   -0.2410    1.3030 ca        1 OLP      0.114400
      8 N6         -1.9130    0.0390    1.3030 ne        1 OLP     -0.475100
      9 C6         -2.5380    0.7810    0.4450 cd        1 OLP      0.605300
     10 N1         -1.9230    1.4790   -0.6620 nd        1 OLP     -0.681000
     11 C5         -3.9920    0.9910    0.5430 cd        1 OLP      0.252000
     12 N7         -4.9080    0.4560    1.4390 nd        1 OLP     -0.574000
     13 C8         -6.1020    0.9850    1.0870 cc        1 OLP      0.429400
     14 N9         -6.0110    1.8700   -0.0070 na        1 OLP     -0.174900
     15 CAW        -7.0920    2.5450   -0.7010 c3        1 OLP      0.052000
     16 CAB        -7.5230    1.8230   -1.9790 c3        1 OLP     -0.116100
     17 CAA        -8.3150    2.7600    0.1910 c3        1 OLP     -0.116100
     18 C4         -4.6590    1.8670   -0.3720 cc        1 OLP     -0.069000
     19 N3         -4.0260    2.5260   -1.4490 na        1 OLP     -0.631600
     20 C2         -2.6130    2.2770   -1.4250 cc        1 OLP      0.671100
     21 N2         -1.8430    2.9420   -2.5390 n4        1 OLP     -0.724000
     22 CAK        -1.1720    4.1850   -2.0490 c3        1 OLP      0.103800
     23 CAJ        -0.5080    4.9620   -3.1930 c3        1 OLP      0.105400
     24 OAC        -1.5070    5.1650   -4.1760 oh        1 OLP     -0.635800
     25 HAH        -0.3040   -0.6240   -0.8390 ha        1 OLP      0.144000
     26 HAF         3.2530   -1.2210    1.5510 ha        1 OLP      0.161000
     27 HAE         1.9720   -0.6380    3.6100 ha        1 OLP      0.155000
     28 HAG        -0.4290   -0.0310    3.4790 ha        1 OLP      0.161000
     29 H8         -7.0580    0.7830    1.5890 h5        1 OLP      0.090100
     30 HAW        -6.6880    3.5650   -0.9920 h1        1 OLP      0.051700
     31 HAB1       -6.6620    1.6820   -2.6740 hc        1 OLP      0.061700
     32 HAB2       -7.9600    0.8220   -1.7450 hc        1 OLP      0.061700
     33 HAB3       -8.3010    2.4400   -2.4900 hc        1 OLP      0.061700
     34 HAA1       -8.8200    1.7910    0.4190 hc        1 OLP      0.061700
     35 HAA2       -8.0390    3.2610    1.1500 hc        1 OLP      0.061700
     36 HAA3       -9.0370    3.4140   -0.3580 hc        1 OLP      0.061700
     37 H3         -4.3050    3.4820   -1.5780 hn        1 OLP      0.426800
     38 H2         -2.4720    3.1830   -3.3210 hn        1 OLP      0.480800
     39 HAK1       -0.3960    3.8990   -1.2830 hx        1 OLP      0.119200
     40 HAK2       -1.9590    4.8300   -1.5620 hx        1 OLP      0.119200
     41 HAJ1       -0.1310    5.9360   -2.7780 h1        1 OLP      0.077700
     42 HAJ2        0.3490    4.3860   -3.6340 h1        1 OLP      0.077700
     43 HAC        -1.1960    5.8550   -4.7780 ho        1 OLP      0.456000
     44 H22        -1.1320    2.2850   -2.8930 hn        1 OLP      0.480800
@<TRIPOS>BOND
     1    1    2 ar  
     2    1    7 ar  
     3    1   25 1   
     4    2    3 1   
     5    2    4 ar  
     6    4    5 ar  
     7    4   26 1   
     8    5    6 ar  
     9    5   27 1   
    10    6    7 ar  
    11    6   28 1   
    12    7    8 1   
    13    8    9 2   
    14    9   10 1   
    15    9   11 1   
    16   10   20 2   
    17   11   12 1   
    18   11   18 2   
    19   12   13 2   
    20   13   14 1   
    21   13   29 1   
    22   14   15 1   
    23   14   18 1   
    24   15   16 1   
    25   15   17 1   
    26   15   30 1   
    27   16   31 1   
    28   16   32 1   
    29   16   33 1   
    30   17   34 1   
    31   17   35 1   
    32   17   36 1   
    33   18   19 1   
    34   19   20 1   
    35   19   37 1   
    36   20   21 1   
    37   21   22 1   
    38   21   38 1   
    39   21   44 1   
    40   22   23 1   
    41   22   39 1   
    42   22   40 1   
    43   23   24 1   
    44   23   41 1   
    45   23   42 1   
    46   24   43 1   
@<TRIPOS>SUBSTRUCTURE
     1 OLP         1 TEMP              0 ****  ****    0 ROOT
