@<TRIPOS>MOLECULE
OLP
   43    45     1     0     0
SMALL
bcc


@<TRIPOS>ATOM
      1 CAH         0.2760   -0.1530    0.0890 ca        1 OLP     -0.138000
      2 CAQ         1.6490   -0.3040    0.2860 ca        1 OLP      0.023400
      3 Cl          2.6780   -0.4110   -1.0700 cl        1 OLP     -0.116400
      4 CAF         2.1960   -0.3640    1.5690 ca        1 OLP     -0.142000
      5 CAE         1.3430   -0.2770    2.6680 ca        1 OLP     -0.121000
      6 CAG        -0.0290   -0.1310    2.4990 ca        1 OLP     -0.122000
      7 CAR        -0.5900   -0.0650    1.2010 ca        1 OLP      0.176400
      8 N6         -1.9920   -0.0250    1.0900 ne        1 OLP     -0.585100
      9 C6         -2.6380    0.7780    0.2890 cd        1 OLP      0.656300
     10 N1         -2.0380    1.7630   -0.5490 nd        1 OLP     -0.794000
     11 C5         -4.1080    0.7090    0.2330 cd        1 OLP      0.218000
     12 N7         -5.0100   -0.1580    0.8450 nd        1 OLP     -0.582000
     13 C8         -6.2280    0.2310    0.4170 cc        1 OLP      0.387400
     14 N9         -6.1740    1.3210   -0.4840 na        1 OLP     -0.211900
     15 CAW        -7.2770    2.0620   -1.0540 c3        1 OLP      0.057000
     16 CAB        -8.5550    1.2280   -1.1590 c3        1 OLP     -0.113100
     17 CAA        -7.5880    3.3570   -0.2980 c3        1 OLP     -0.113100
     18 C4         -4.8140    1.6460   -0.5880 cc        1 OLP      0.003000
     19 N3         -4.1940    2.6840   -1.2810 na        1 OLP     -0.690600
     20 C2         -2.7530    2.5820   -1.3060 cc        1 OLP      0.817100
     21 N2         -2.1180    3.4440   -2.2480 nu        1 OLP     -0.786200
     22 CAK        -0.6770    3.5840   -2.1550 c3        1 OLP      0.186800
     23 CAJ        -0.1330    4.5980   -3.1700 c3        1 OLP      0.117400
     24 OAC        -0.6920    5.8630   -2.8520 oh        1 OLP     -0.614800
     25 HAH        -0.1290   -0.1130   -0.9340 ha        1 OLP      0.152000
     26 HAF         3.2790   -0.4820    1.7120 ha        1 OLP      0.142000
     27 HAE         1.7620   -0.3240    3.6840 ha        1 OLP      0.133000
     28 HAG        -0.6840   -0.0700    3.3830 ha        1 OLP      0.147000
     29 H8         -7.1790   -0.2330    0.6940 h5        1 OLP      0.067100
     30 HAW        -6.9590    2.3420   -2.1070 h1        1 OLP      0.052700
     31 HAB1       -8.3670    0.2620   -1.6870 hc        1 OLP      0.053033
     32 HAB2       -9.3090    1.8120   -1.7400 hc        1 OLP      0.053033
     33 HAB3       -8.9750    1.0110   -0.1480 hc        1 OLP      0.053033
     34 HAA1       -8.3930    3.9050   -0.8440 hc        1 OLP      0.053033
     35 HAA2       -6.6850    4.0100   -0.2370 hc        1 OLP      0.053033
     36 HAA3       -7.9400    3.1390    0.7380 hc        1 OLP      0.053033
     37 H3         -4.6570    3.0350   -2.0920 hn        1 OLP      0.431800
     38 H2         -2.5700    4.3370   -2.3370 hn        1 OLP      0.414800
     39 HAK1       -0.2080    2.5830   -2.3750 h1        1 OLP      0.072200
     40 HAK2       -0.3550    3.9060   -1.1230 h1        1 OLP      0.072200
     41 HAJ1        0.9850    4.6280   -3.0720 h1        1 OLP      0.038700
     42 HAJ2       -0.4060    4.3140   -4.2210 h1        1 OLP      0.038700
     43 HAC        -0.2790    6.5060   -3.4400 ho        1 OLP      0.409000
@<TRIPOS>BOND
     1    1    2 ar  
     2    1    7 ar  
     3    1   25 1   
     4    2    3 1   
     5    2    4 ar  
     6    4    5 ar  
     7    4   26 1   
     8    5    6 ar  
     9    5   27 1   
    10    6    7 ar  
    11    6   28 1   
    12    7    8 1   
    13    8    9 2   
    14    9   10 1   
    15    9   11 1   
    16   10   20 2   
    17   11   12 1   
    18   11   18 2   
    19   12   13 2   
    20   13   14 1   
    21   13   29 1   
    22   14   15 1   
    23   14   18 1   
    24   15   16 1   
    25   15   17 1   
    26   15   30 1   
    27   16   31 1   
    28   16   32 1   
    29   16   33 1   
    30   17   34 1   
    31   17   35 1   
    32   17   36 1   
    33   18   19 1   
    34   19   20 1   
    35   19   37 1   
    36   20   21 1   
    37   21   22 1   
    38   21   38 1   
    39   22   23 1   
    40   22   39 1   
    41   22   40 1   
    42   23   24 1   
    43   23   41 1   
    44   23   42 1   
    45   24   43 1   
@<TRIPOS>SUBSTRUCTURE
     1 OLP         1 TEMP              0 ****  ****    0 ROOT
