@<TRIPOS>MOLECULE
OLP
   43    36     1     0     0
SMALL
bcc


@<TRIPOS>ATOM
      1 CAH         2.0020   -3.6350    0.3080 c1        1 OLP     -0.119000
      2 CAQ         2.9250   -4.5080   -0.2940 c1        1 OLP     -0.056000
      3 CL          2.3680   -5.9020   -1.0810 cl        1 OLP     -0.030000
      4 CAF         4.2800   -4.1460   -0.3810 c1        1 OLP     -0.142000
      5 CAE         4.6990   -2.9400    0.1220 c1        1 OLP     -0.130000
      6 CAG         3.7630   -2.0640    0.7280 c1        1 OLP     -0.130000
      7 CAR         2.4200   -2.4280    0.8110 c1        1 OLP      0.035000
      8 N6          1.5320   -1.6430    1.5380 n2        1 OLP     -0.152000
      9 C6          0.7700   -0.7550    0.9150 c1        1 OLP      0.175000
     10 N1          1.3380    0.3040    0.2970 n1        1 OLP     -0.284000
     11 C5         -0.6270   -0.8840    0.9370 c1        1 OLP     -0.140000
     12 N7         -1.4680   -1.8530    1.4500 n1        1 OLP     -0.055000
     13 C8         -2.7320   -1.4980    1.1610 c1        1 OLP     -0.099000
     14 N9         -2.6930   -0.3080    0.4670 n2        1 OLP     -0.165000
     15 CAW        -3.8890    0.3190   -0.0160 c2        1 OLP      0.032000
     16 CAB        -4.6330   -0.6540   -0.9730 c3        1 OLP     -0.230000
     17 CAA        -4.7910    0.6550    1.1450 c3        1 OLP     -0.230000
     18 C4         -1.3990    0.0600    0.3350 c1        1 OLP      0.013000
     19 N3         -0.8180    1.1210   -0.2850 n2        1 OLP     -0.249000
     20 C2          0.5540    1.2460   -0.3050 c1        1 OLP      0.222000
     21 N2          1.3440    2.3570   -0.9120 n3        1 OLP     -0.273000
     22 CAK         1.4710    3.5800   -0.2380 c3        1 OLP     -0.071000
     23 CAJ         2.1160    4.6350   -1.1920 c3        1 OLP     -0.030000
     24 OAC         2.1310    5.8500   -0.5790 oh        1 OLP     -0.325000
     25 HAH         1.0040   -3.9020    0.3730 ha        1 OLP      0.158000
     26 HAF         4.9480   -4.7740   -0.8150 ha        1 OLP      0.142000
     27 HAE         5.6500   -2.6830    0.0640 ha        1 OLP      0.135000
     28 HAG         4.0660   -1.1830    1.0950 ha        1 OLP      0.135000
     29 H8         -3.5640   -2.0140    1.4040 DU        1 OLP      0.205000
     30 HAW        -3.6590    1.1340   -0.4940 ha        1 OLP      0.102000
     31 HAB1       -5.1280   -1.3430   -0.4300 hc        1 OLP      0.091333
     32 HAB2       -3.9680   -1.1110   -1.5680 hc        1 OLP      0.091333
     33 HAB3       -5.2630   -0.1590   -1.5130 hc        1 OLP      0.091333
     34 HAA1       -5.3190   -0.1220    1.3780 hc        1 OLP      0.091333
     35 HAA2       -5.3640    1.3600    0.9000 hc        1 OLP      0.091333
     36 HAA3       -4.1970    0.9530    1.9920 hc        1 OLP      0.091333
     37 H3         -1.3410    1.7550   -0.6910 hn        1 OLP      0.235000
     38 H2          1.6960    2.2600   -1.7260 hn        1 OLP      0.217000
     39 HAK1        2.0590    3.4570    0.5790 h1        1 OLP      0.099500
     40 HAK2        0.5210    3.9150    0.0610 h1        1 OLP      0.099500
     41 HAJ1        3.0440    4.3660   -1.4100 h1        1 OLP      0.074000
     42 HAJ2        1.5940    4.6900   -2.0090 h1        1 OLP      0.074000
     43 HAC         2.5570    6.4910   -1.1480 ho        1 OLP      0.210000
@<TRIPOS>BOND
     1    1    7 1   
     2    1   25 1   
     3    2    3 1   
     4    2    4 1   
     5    4   26 1   
     6    5    6 1   
     7    5   27 1   
     8    6   28 1   
     9    7    8 1   
    10    8    9 1   
    11    9   10 1   
    12   11   18 1   
    13   12   13 1   
    14   13   14 1   
    15   14   18 1   
    16   15   16 1   
    17   15   17 1   
    18   15   30 1   
    19   16   31 1   
    20   16   32 1   
    21   16   33 1   
    22   17   34 1   
    23   17   35 1   
    24   17   36 1   
    25   19   20 1   
    26   19   37 1   
    27   20   21 1   
    28   21   22 1   
    29   21   38 1   
    30   22   23 1   
    31   22   39 1   
    32   22   40 1   
    33   23   24 1   
    34   23   41 1   
    35   23   42 1   
    36   24   43 1   
@<TRIPOS>SUBSTRUCTURE
     1 OLP         1 TEMP              0 ****  ****    0 ROOT
