@<TRIPOS>MOLECULE
OLP
   43    45     1     0     0
SMALL
bcc


@<TRIPOS>ATOM
      1 CAH        -2.7390    1.2160   -0.5340 ca        1 OLP     -0.138000
      2 CAQ        -4.1230    1.2990   -0.3820 ca        1 OLP      0.023400
      3 CL         -5.1280    0.3260   -1.3590 cl        1 OLP     -0.116400
      4 CAF        -4.7000    2.1580    0.5540 ca        1 OLP     -0.142000
      5 CAE        -3.8670    2.9480    1.3450 ca        1 OLP     -0.121000
      6 CAG        -2.4850    2.8880    1.2100 ca        1 OLP     -0.122000
      7 CAR        -1.8920    2.0150    0.2650 ca        1 OLP      0.176400
      8 N6         -0.4970    2.0740    0.0980 ne        1 OLP     -0.585100
      9 C6          0.2730    1.0220    0.0100 cd        1 OLP      0.656300
     10 N1         -0.1660   -0.3300    0.1200 nd        1 OLP     -0.794000
     11 C5          1.7190    1.2050   -0.1970 cd        1 OLP      0.218000
     12 N7          2.4780    2.3520   -0.4140 nd        1 OLP     -0.582000
     13 C8          3.7460    1.9210   -0.5590 cc        1 OLP      0.387400
     14 N9          3.8650    0.5140   -0.4680 na        1 OLP     -0.211900
     15 CAW         5.0720   -0.2800   -0.4680 c3        1 OLP      0.057000
     16 CAB         6.2230    0.3960   -1.2150 c3        1 OLP     -0.113100
     17 CAA         5.5450   -0.6570    0.9390 c3        1 OLP     -0.113100
     18 C4          2.5660    0.0510   -0.2120 cc        1 OLP      0.003000
     19 N3          2.1130   -1.2420    0.0400 na        1 OLP     -0.690600
     20 C2          0.6730   -1.3530    0.0690 cc        1 OLP      0.817100
     21 N2          0.1850   -2.6930    0.0220 nh        1 OLP     -0.786200
     22 CAK        -1.2240   -2.8980    0.3010 c3        1 OLP      0.186800
     23 CAJ        -1.5990   -4.3850    0.2970 c3        1 OLP      0.117400
     24 OAC        -0.8750   -5.0120    1.3440 oh        1 OLP     -0.614800
     25 HAH        -2.3110    0.5320   -1.2840 ha        1 OLP      0.152000
     26 HAF        -5.7920    2.2140    0.6660 ha        1 OLP      0.142000
     27 HAE        -4.3110    3.6300    2.0850 ha        1 OLP      0.133000
     28 HAG        -1.8470    3.5260    1.8410 ha        1 OLP      0.147000
     29 H8          4.6170    2.5560   -0.7510 h5        1 OLP      0.067100
     30 HAW         4.8200   -1.2400   -1.0170 h1        1 OLP      0.052700
     31 HAB1        7.0640   -0.3340   -1.3000 hc        1 OLP      0.053033
     32 HAB2        5.9130    0.7060   -2.2410 hc        1 OLP      0.053033
     33 HAB3        6.5870    1.2940   -0.6600 hc        1 OLP      0.053033
     34 HAA1        4.7420   -1.1900    1.5020 hc        1 OLP      0.053033
     35 HAA2        6.4310   -1.3310    0.8510 hc        1 OLP      0.053033
     36 HAA3        5.8420    0.2510    1.5170 hc        1 OLP      0.053033
     37 H3          2.6380   -1.9960   -0.3490 hn        1 OLP      0.431800
     38 H2          0.7590   -3.3420    0.5280 hn        1 OLP      0.414800
     39 HAK1       -1.5200   -2.4590    1.2980 h1        1 OLP      0.072200
     40 HAK2       -1.8240   -2.3840   -0.5030 h1        1 OLP      0.072200
     41 HAJ1       -2.7040   -4.4710    0.4790 h1        1 OLP      0.038700
     42 HAJ2       -1.3460   -4.8700   -0.6830 h1        1 OLP      0.038700
     43 HAC        -1.1820   -5.9250    1.3880 ho        1 OLP      0.409000
@<TRIPOS>BOND
     1    1    2 ar  
     2    1    7 ar  
     3    1   25 1   
     4    2    3 1   
     5    2    4 ar  
     6    4    5 ar  
     7    4   26 1   
     8    5    6 ar  
     9    5   27 1   
    10    6    7 ar  
    11    6   28 1   
    12    7    8 1   
    13    8    9 2   
    14    9   10 1   
    15    9   11 1   
    16   10   20 2   
    17   11   12 1   
    18   11   18 2   
    19   12   13 2   
    20   13   14 1   
    21   13   29 1   
    22   14   15 1   
    23   14   18 1   
    24   15   16 1   
    25   15   17 1   
    26   15   30 1   
    27   16   31 1   
    28   16   32 1   
    29   16   33 1   
    30   17   34 1   
    31   17   35 1   
    32   17   36 1   
    33   18   19 1   
    34   19   20 1   
    35   19   37 1   
    36   20   21 1   
    37   21   22 1   
    38   21   38 1   
    39   22   23 1   
    40   22   39 1   
    41   22   40 1   
    42   23   24 1   
    43   23   41 1   
    44   23   42 1   
    45   24   43 1   
@<TRIPOS>SUBSTRUCTURE
     1 OLP         1 TEMP              0 ****  ****    0 ROOT
