@<TRIPOS>MOLECULE
OLT
   19    18     1     0     0
SMALL
bcc


@<TRIPOS>ATOM
      1 N          -0.2870   -1.4130   -1.0080 n3        1 OLT     -0.895800
      2 CA         -0.1850   -0.7750    0.2950 c3        1 OLT     -0.002500
      3 C          -1.1870    0.4030    0.5340 c         1 OLT      0.886600
      4 O          -1.9120    0.7830   -0.4310 o         1 OLT     -0.843300
      5 CB          1.2380   -0.2960    0.6510 c3        1 OLT      0.142100
      6 OG1         1.9050    0.3480   -0.4460 os        1 OLT     -0.450600
      7 CG2         2.1360   -1.4610    1.0320 c3        1 OLT     -0.085100
      8 CD1         1.3830    1.6310   -0.7480 c3        1 OLT      0.107700
      9 OXT        -1.2150    0.9110    1.6890 o         1 OLT     -0.843300
     10 H          -1.2020   -1.2090   -1.3770 hn        1 OLT      0.337800
     11 H2          0.3790   -0.9910   -1.6310 hn        1 OLT      0.337800
     12 HCA        -0.4600   -1.5640    1.0550 h1        1 OLT      0.048700
     13 HB          1.1490    0.4300    1.5090 h1        1 OLT      0.066700
     14 HG21        2.1980   -2.1930    0.1930 hc        1 OLT      0.028700
     15 HG22        3.1650   -1.0960    1.2630 hc        1 OLT      0.028700
     16 HG23        1.7170   -1.9690    1.9310 hc        1 OLT      0.028700
     17 HD11        1.5570    2.3300    0.1070 h1        1 OLT      0.035367
     18 HD12        1.9630    1.9630   -1.6450 h1        1 OLT      0.035367
     19 HD13        0.2880    1.5760   -0.9770 h1        1 OLT      0.035367
@<TRIPOS>BOND
     1    1    2 1   
     2    1   10 1   
     3    1   11 1   
     4    2    3 1   
     5    2    5 1   
     6    2   12 1   
     7    3    4 1   
     8    3    9 1   
     9    5    6 1   
    10    5    7 1   
    11    5   13 1   
    12    6    8 1   
    13    7   14 1   
    14    7   15 1   
    15    7   16 1   
    16    8   17 1   
    17    8   18 1   
    18    8   19 1   
@<TRIPOS>SUBSTRUCTURE
     1 OLT         1 TEMP              0 ****  ****    0 ROOT
