@<TRIPOS>MOLECULE
OLU
   22    24     1     0     0
SMALL
bcc


@<TRIPOS>ATOM
      1 O6'         0.0180   -0.0960    0.0060 o         1 OLU     -0.479100
      2 C4'         1.2410   -0.0620    0.1270 c         1 OLU      0.685500
      3 N3'         1.9230   -0.0400    1.3910 ne        1 OLU     -0.636100
      4 C2'         3.2230   -0.0040    1.2320 cf        1 OLU      0.472900
      5 S1'         3.8430    0.0090   -0.3920 ss        1 OLU     -0.128300
      6 C5'         2.2030   -0.0380   -1.0630 c3        1 OLU     -0.185300
      7 C2          4.1570    0.0240    2.3500 cd        1 OLU      0.246900
      8 S1          3.5880    0.0070    3.9810 ss        1 OLU      0.128900
      9 C5          5.1630    0.0540    4.5570 ca        1 OLU     -0.080100
     10 C6          5.6350    0.0690    5.8710 ca        1 OLU     -0.135000
     11 C4          6.0850    0.0810    3.4510 ca        1 OLU      0.038400
     12 N3          5.4810    0.0630    2.1950 nc        1 OLU     -0.480100
     13 C9          7.4770    0.1230    3.6960 ca        1 OLU     -0.024000
     14 C8          7.9310    0.1370    4.9970 ca        1 OLU     -0.208000
     15 C7          7.0130    0.1100    6.0780 ca        1 OLU      0.147100
     16 O7          7.4350    0.1220    7.3860 oh        1 OLU     -0.490100
     17 H5'1        2.0540   -0.9500   -1.6880 h1        1 OLU      0.118700
     18 H5'2        2.0030    0.8620   -1.6920 h1        1 OLU      0.118700
     19 H6          4.9480    0.0480    6.7290 ha        1 OLU      0.163000
     20 H9          8.1810    0.1440    2.8490 ha        1 OLU      0.157000
     21 H8          9.0100    0.1690    5.2080 ha        1 OLU      0.142000
     22 HO7         8.4030    0.1510    7.3910 ho        1 OLU      0.425000
@<TRIPOS>BOND
     1    1    2 2   
     2    2    3 1   
     3    2    6 1   
     4    3    4 2   
     5    4    5 1   
     6    4    7 1   
     7    5    6 1   
     8    6   17 1   
     9    6   18 1   
    10    7    8 1   
    11    7   12 2   
    12    8    9 1   
    13    9   10 ar  
    14    9   11 ar  
    15   10   15 ar  
    16   10   19 1   
    17   11   12 1   
    18   11   13 ar  
    19   13   14 ar  
    20   13   20 1   
    21   14   15 ar  
    22   14   21 1   
    23   15   16 1   
    24   16   22 1   
@<TRIPOS>SUBSTRUCTURE
     1 OLU         1 TEMP              0 ****  ****    0 ROOT
