@<TRIPOS>MOLECULE
OLU
   22    24     1     0     0
SMALL
bcc


@<TRIPOS>ATOM
      1 O6'        -4.9010   -1.6040   -0.0700 o         1 OLU     -0.479100
      2 C4'        -4.0160   -0.7500   -0.0470 c         1 OLU      0.685500
      3 N3'        -2.6120   -1.0480   -0.0270 ne        1 OLU     -0.636100
      4 C2'        -1.8910    0.0460   -0.0040 cf        1 OLU      0.472900
      5 S1'        -2.7270    1.5700   -0.0030 ss        1 OLU     -0.128300
      6 C5'        -4.3000    0.7550   -0.0370 c3        1 OLU     -0.185300
      7 C2         -0.4350    0.0330    0.0200 cd        1 OLU      0.246900
      8 S1          0.4400   -1.4560    0.0200 ss        1 OLU      0.128900
      9 C5          1.8990   -0.6290    0.0520 ca        1 OLU     -0.080100
     10 C6          3.2060   -1.1200    0.0690 ca        1 OLU     -0.135000
     11 C4          1.6540    0.7900    0.0620 ca        1 OLU      0.038400
     12 N3          0.3060    1.1430    0.0430 nc        1 OLU     -0.480100
     13 C9          2.7420    1.6920    0.0890 ca        1 OLU     -0.024000
     14 C8          4.0280    1.1960    0.1060 ca        1 OLU     -0.208000
     15 C7          4.2560   -0.2040    0.0960 ca        1 OLU      0.147100
     16 O7          5.5260   -0.7300    0.1120 oh        1 OLU     -0.490100
     17 H5'1       -4.8760    1.0370   -0.9500 h1        1 OLU      0.118700
     18 H5'2       -4.9060    1.0180    0.8620 h1        1 OLU      0.118700
     19 H6          3.4140   -2.1990    0.0620 ha        1 OLU      0.163000
     20 H9          2.5530    2.7770    0.0970 ha        1 OLU      0.157000
     21 H8          4.8880    1.8810    0.1270 ha        1 OLU      0.142000
     22 HO7         6.1570    0.0050    0.1300 ho        1 OLU      0.425000
@<TRIPOS>BOND
     1    1    2 2   
     2    2    3 1   
     3    2    6 1   
     4    3    4 2   
     5    4    5 1   
     6    4    7 1   
     7    5    6 1   
     8    6   17 1   
     9    6   18 1   
    10    7    8 1   
    11    7   12 2   
    12    8    9 1   
    13    9   10 ar  
    14    9   11 ar  
    15   10   15 ar  
    16   10   19 1   
    17   11   12 1   
    18   11   13 ar  
    19   13   14 ar  
    20   13   20 1   
    21   14   15 ar  
    22   14   21 1   
    23   15   16 1   
    24   16   22 1   
@<TRIPOS>SUBSTRUCTURE
     1 OLU         1 TEMP              0 ****  ****    0 ROOT
