@<TRIPOS>MOLECULE
OLU
   22    18     1     0     0
SMALL
bcc


@<TRIPOS>ATOM
      1 O6'        -4.4840   -2.5510   -2.5580 o         1 OLU     -0.241000
      2 C4'        -3.6100   -1.7120   -2.4670 c1        1 OLU      0.257000
      3 N3'        -2.4050   -1.7470   -1.4790 n1        1 OLU     -0.210000
      4 C2'        -1.3380   -1.0400   -1.8640 c1        1 OLU     -0.038000
      5 S1'        -1.4810   -0.3720   -3.2660 s         1 OLU      0.279000
      6 C5'        -3.1360   -0.6340   -3.6820 c3        1 OLU     -0.397000
      7 C2         -0.4180   -0.4340   -0.8280 c2        1 OLU     -0.266000
      8 S1         -0.6140   -0.5360    0.6950 ss        1 OLU      0.577000
      9 C5          0.6320    0.0760    1.3650 c1        1 OLU     -0.303000
     10 C6          0.9860    0.2490    2.6960 c1        1 OLU     -0.195000
     11 C4          1.5110    0.5130    0.3320 c1        1 OLU     -0.098000
     12 N3          0.8410    0.1880   -1.0660 n1        1 OLU     -0.052000
     13 C9          2.7200    1.1110    0.6590 c1        1 OLU     -0.032000
     14 C8          3.0740    1.2840    2.0010 c1        1 OLU     -0.153000
     15 C7          2.2040    0.8510    3.0220 c1        1 OLU      0.110000
     16 O7          2.5270    0.8630    4.3910 oh        1 OLU     -0.243000
     17 H5'1       -3.7590    0.1210   -3.6680 h1        1 OLU      0.158000
     18 H5'2       -3.2080   -0.9490   -4.6060 h1        1 OLU      0.158000
     19 H6          0.3850   -0.0510    3.4040 ha        1 OLU      0.146000
     20 H9          3.3230    1.4110   -0.0470 ha        1 OLU      0.159000
     21 H8          3.9250    1.7040    2.2300 ha        1 OLU      0.160000
     22 HO7         2.3230    1.6560    4.7370 ho        1 OLU      0.224000
@<TRIPOS>BOND
     1    1    2 1   
     2    2    6 1   
     3    3    4 1   
     4    4    7 1   
     5    5    6 1   
     6    6   17 1   
     7    6   18 1   
     8    7    8 1   
     9    7   12 1   
    10    8    9 1   
    11    9   10 1   
    12   10   19 1   
    13   11   13 1   
    14   13   20 1   
    15   14   15 1   
    16   14   21 1   
    17   15   16 1   
    18   16   22 1   
@<TRIPOS>SUBSTRUCTURE
     1 OLU         1 TEMP              0 ****  ****    0 ROOT
