@<TRIPOS>MOLECULE
OLU
   22    24     1     0     0
SMALL
bcc


@<TRIPOS>ATOM
      1 O6'         0.0190   -0.0670   -0.0060 o         1 OLU     -0.479100
      2 C4'         1.2420   -0.0420    0.1170 c         1 OLU      0.685500
      3 N3'         1.9220   -0.0210    1.3810 ne        1 OLU     -0.636100
      4 C2'         3.2230    0.0030    1.2230 cf        1 OLU      0.472900
      5 S1'         3.8450    0.0040   -0.3990 ss        1 OLU     -0.128300
      6 C5'         2.2060   -0.0320   -1.0730 c3        1 OLU     -0.185300
      7 C2          4.1550    0.0290    2.3420 cd        1 OLU      0.246900
      8 S1          3.5840    0.0290    3.9730 ss        1 OLU      0.128900
      9 C5          5.1590    0.0630    4.5510 ca        1 OLU     -0.080100
     10 C6          5.6300    0.0810    5.8650 ca        1 OLU     -0.135000
     11 C4          6.0830    0.0730    3.4460 ca        1 OLU      0.038400
     12 N3          5.4810    0.0530    2.1900 nc        1 OLU     -0.480100
     13 C9          7.4750    0.1020    3.6930 ca        1 OLU     -0.024000
     14 C8          7.9270    0.1190    4.9950 ca        1 OLU     -0.208000
     15 C7          7.0080    0.1090    6.0740 ca        1 OLU      0.147100
     16 O7          7.4280    0.1260    7.3820 oh        1 OLU     -0.490100
     17 H5'1        2.0490   -0.9460   -1.6940 h1        1 OLU      0.118700
     18 H5'2        2.0150    0.8660   -1.7060 h1        1 OLU      0.118700
     19 H6          4.9410    0.0730    6.7220 ha        1 OLU      0.163000
     20 H9          8.1800    0.1090    2.8470 ha        1 OLU      0.157000
     21 H8          9.0070    0.1410    5.2070 ha        1 OLU      0.142000
     22 HO7         8.3960    0.1440    7.3880 ho        1 OLU      0.425000
@<TRIPOS>BOND
     1    1    2 2   
     2    2    3 1   
     3    2    6 1   
     4    3    4 2   
     5    4    5 1   
     6    4    7 1   
     7    5    6 1   
     8    6   17 1   
     9    6   18 1   
    10    7    8 1   
    11    7   12 2   
    12    8    9 1   
    13    9   10 ar  
    14    9   11 ar  
    15   10   15 ar  
    16   10   19 1   
    17   11   12 1   
    18   11   13 ar  
    19   13   14 ar  
    20   13   20 1   
    21   14   15 ar  
    22   14   21 1   
    23   15   16 1   
    24   16   22 1   
@<TRIPOS>SUBSTRUCTURE
     1 OLU         1 TEMP              0 ****  ****    0 ROOT
