@<TRIPOS>MOLECULE
OLW
   40    42     1     0     0
SMALL
bcc


@<TRIPOS>ATOM
      1 N01         0.0710   -0.8510    0.0190 nc        1 OLW     -0.638000
      2 C02         1.3940   -0.6790    0.0800 cd        1 OLW      0.427400
      3 N03         1.7970   -0.2840    1.3870 na        1 OLW     -0.269700
      4 C04         0.6160   -0.2150    2.1630 cd        1 OLW     -0.200600
      5 C05        -0.4260   -0.5660    1.3040 cc        1 OLW      0.310200
      6 C1'         8.1890   -2.0090   -3.8570 ca        1 OLW     -0.195300
      7 N11         3.2820    0.3860    3.1440 nb        1 OLW     -0.689000
      8 C12         3.1050   -0.0150    1.8220 ca        1 OLW      0.786500
      9 N13         4.1290   -0.1700    0.9020 nb        1 OLW     -0.763000
     10 C14         5.3820    0.0950    1.3440 ca        1 OLW      0.451600
     11 C15         5.6510    0.5040    2.6610 ca        1 OLW     -0.384600
     12 C16         4.5400    0.6330    3.5230 ca        1 OLW      0.481200
     13 C17         6.5430   -0.0240    0.3950 c3        1 OLW     -0.156700
     14 C18         6.1910   -0.8310   -0.8500 c3        1 OLW      0.109800
     15 N19         7.3630   -1.0130   -1.7580 ny        1 OLW     -0.770000
     16 C2'         9.1060   -3.0230   -3.5620 ca        1 OLW     -0.077000
     17 C20         7.0020   -1.8120   -2.9790 c3        1 OLW      0.175100
     18 C3'        10.2020   -3.2350   -4.4080 ca        1 OLW      0.012000
     19 C4'        10.3710   -2.4410   -5.5530 ca        1 OLW     -0.044000
     20 C5'         9.4460   -1.4370   -5.8420 ca        1 OLW     -0.119000
     21 C6'         8.3580   -1.2170   -4.9990 ca        1 OLW     -0.078000
     22 C7'        11.1380   -4.2610   -4.1040 cg        1 OLW      0.196800
     23 N8'        11.9050   -5.0990   -3.8550 n1        1 OLW     -0.289800
     24 H02         2.1050   -0.8100   -0.7410 h5        1 OLW      0.066100
     25 H04         0.6250    0.0690    3.2160 h4        1 OLW      0.207000
     26 H05        -1.4940   -0.6340    1.5190 h4        1 OLW      0.063100
     27 H15         6.6680    0.7160    3.0110 ha        1 OLW      0.167000
     28 H16         4.6690    0.9520    4.5770 h4        1 OLW      0.056100
     29 H17         6.8590    1.0180    0.1110 hc        1 OLW      0.081200
     30 H17A        7.3950   -0.5060    0.9490 hc        1 OLW      0.081200
     31 H18         5.8160   -1.8540   -0.5570 hx        1 OLW      0.121200
     32 H18A        5.3810   -0.3090   -1.4380 hx        1 OLW      0.121200
     33 HN19        7.7200   -0.0960   -2.0500 hn        1 OLW      0.448300
     34 H2'         8.9650   -3.6680   -2.6800 ha        1 OLW      0.148000
     35 H20         6.1820   -1.2580   -3.5220 hx        1 OLW      0.113200
     36 H20A        6.5940   -2.8050   -2.6280 hx        1 OLW      0.113200
     37 H4'        11.2300   -2.6150   -6.2230 ha        1 OLW      0.175000
     38 H5'         9.5740   -0.8200   -6.7470 ha        1 OLW      0.170000
     39 H6'         7.6270   -0.4300   -5.2460 ha        1 OLW      0.148000
     40 H192        8.1190   -1.4940   -1.2570 hn        1 OLW      0.448300
@<TRIPOS>BOND
     1    1    2 2   
     2    1    5 1   
     3    2    3 1   
     4    2   24 1   
     5    3    4 1   
     6    3    8 1   
     7    4    5 2   
     8    4   25 1   
     9    5   26 1   
    10    6   16 ar  
    11    6   17 1   
    12    6   21 ar  
    13    7    8 ar  
    14    7   12 ar  
    15    8    9 ar  
    16    9   10 ar  
    17   10   11 ar  
    18   10   13 1   
    19   11   12 ar  
    20   11   27 1   
    21   12   28 1   
    22   13   14 1   
    23   13   29 1   
    24   13   30 1   
    25   14   15 1   
    26   14   31 1   
    27   14   32 1   
    28   15   17 1   
    29   15   33 1   
    30   15   40 1   
    31   16   18 ar  
    32   16   34 1   
    33   17   35 1   
    34   17   36 1   
    35   18   19 ar  
    36   18   22 1   
    37   19   20 ar  
    38   19   37 1   
    39   20   21 ar  
    40   20   38 1   
    41   21   39 1   
    42   22   23 3   
@<TRIPOS>SUBSTRUCTURE
     1 OLW         1 TEMP              0 ****  ****    0 ROOT
