@<TRIPOS>MOLECULE
OLW
   40    42     1     0     0
SMALL
bcc


@<TRIPOS>ATOM
      1 N01         0.0650   -0.9160    0.0140 nc        1 OLW     -0.638000
      2 C02         1.3860   -0.7340    0.0680 cd        1 OLW      0.427400
      3 N03         1.7940   -0.3400    1.3750 na        1 OLW     -0.269700
      4 C04         0.6160   -0.2820    2.1580 cd        1 OLW     -0.200600
      5 C05        -0.4280   -0.6400    1.3030 cc        1 OLW      0.310200
      6 C1'         8.1770   -2.0290   -3.8930 ca        1 OLW     -0.195300
      7 N11         3.2830    0.3390    3.1240 nb        1 OLW     -0.689000
      8 C12         3.1020   -0.0620    1.8030 ca        1 OLW      0.786500
      9 N13         4.1220   -0.2060    0.8780 nb        1 OLW     -0.763000
     10 C14         5.3750    0.0670    1.3130 ca        1 OLW      0.451600
     11 C15         5.6480    0.4760    2.6290 ca        1 OLW     -0.384600
     12 C16         4.5410    0.5950    3.4980 ca        1 OLW      0.481200
     13 C17         6.5320   -0.0400    0.3580 c3        1 OLW     -0.156700
     14 C18         6.1830   -0.8590   -0.8810 c3        1 OLW      0.109800
     15 N19         7.3510   -1.0310   -1.7950 n4        1 OLW     -0.770000
     16 C2'         9.1120   -3.0270   -3.5970 ca        1 OLW     -0.077000
     17 C20         6.9940   -1.8430   -3.0090 c3        1 OLW      0.175100
     18 C3'        10.2050   -3.2290   -4.4490 ca        1 OLW      0.012000
     19 C4'        10.3540   -2.4410   -5.6010 ca        1 OLW     -0.044000
     20 C5'         9.4130   -1.4530   -5.8910 ca        1 OLW     -0.119000
     21 C6'         8.3280   -1.2420   -5.0420 ca        1 OLW     -0.078000
     22 C7'        11.1580   -4.2380   -4.1430 cg        1 OLW      0.196800
     23 N8'        11.9390   -5.0630   -3.8930 n1        1 OLW     -0.289800
     24 H02         2.0940   -0.8570   -0.7570 h5        1 OLW      0.066100
     25 H04         0.6290   -0.0020    3.2110 h4        1 OLW      0.207000
     26 H05        -1.4940   -0.7170    1.5240 h4        1 OLW      0.063100
     27 H15         6.6650    0.6960    2.9740 ha        1 OLW      0.167000
     28 H16         4.6720    0.9130    4.5520 h4        1 OLW      0.056100
     29 H17         6.8310    1.0040    0.0660 hc        1 OLW      0.081200
     30 H17A        7.3940   -0.5080    0.9080 hc        1 OLW      0.081200
     31 H18         5.3620   -0.3510   -1.4670 hx        1 OLW      0.121700
     32 H18A        5.8230   -1.8850   -0.5790 hx        1 OLW      0.121700
     33 HN19        8.1170   -1.4990   -1.2960 hn        1 OLW      0.448300
     34 H2'         8.9860   -3.6670   -2.7100 ha        1 OLW      0.148000
     35 H20         6.1630   -1.3040   -3.5490 hx        1 OLW      0.113200
     36 H20A        6.6020   -2.8390   -2.6490 hx        1 OLW      0.113200
     37 H4'        11.2120   -2.6070   -6.2750 ha        1 OLW      0.175000
     38 H5'         9.5260   -0.8400   -6.8010 ha        1 OLW      0.170000
     39 H6'         7.5830   -0.4690   -5.2900 ha        1 OLW      0.148000
     40 H192        7.6940   -0.1110   -2.0950 hn        1 OLW      0.448300
@<TRIPOS>BOND
     1    1    2 2   
     2    1    5 1   
     3    2    3 1   
     4    2   24 1   
     5    3    4 1   
     6    3    8 1   
     7    4    5 2   
     8    4   25 1   
     9    5   26 1   
    10    6   16 ar  
    11    6   17 1   
    12    6   21 ar  
    13    7    8 ar  
    14    7   12 ar  
    15    8    9 ar  
    16    9   10 ar  
    17   10   11 ar  
    18   10   13 1   
    19   11   12 ar  
    20   11   27 1   
    21   12   28 1   
    22   13   14 1   
    23   13   29 1   
    24   13   30 1   
    25   14   15 1   
    26   14   31 1   
    27   14   32 1   
    28   15   17 1   
    29   15   33 1   
    30   15   40 1   
    31   16   18 ar  
    32   16   34 1   
    33   17   35 1   
    34   17   36 1   
    35   18   19 ar  
    36   18   22 1   
    37   19   20 ar  
    38   19   37 1   
    39   20   21 ar  
    40   20   38 1   
    41   21   39 1   
    42   22   23 3   
@<TRIPOS>SUBSTRUCTURE
     1 OLW         1 TEMP              0 ****  ****    0 ROOT
