@<TRIPOS>MOLECULE
OLZ
   21    20     1     0     0
SMALL
bcc


@<TRIPOS>ATOM
      1 OXT        -2.5530   -1.3810   -0.1570 o         1 OLZ     -0.839300
      2 C          -2.4050   -0.1280   -0.1230 c         1 OLZ      0.888600
      3 O          -3.3320    0.6980    0.1140 o         1 OLZ     -0.839300
      4 CA         -0.9750    0.4450   -0.4160 c3        1 OLZ      0.015500
      5 N          -0.8410    1.8770   -0.1900 n3        1 OLZ     -0.881800
      6 CB          0.0260   -0.3960    0.3800 c3        1 OLZ      0.141400
      7 OG          1.3230   -0.2040   -0.2000 os        1 OLZ     -0.430600
      8 CD          2.3160   -0.9840    0.4460 c3        1 OLZ      0.090400
      9 CE          3.6520   -0.6830   -0.2460 c3        1 OLZ      0.150800
     10 NZ          4.0460    0.7030   -0.3080 n3        1 OLZ     -0.900800
     11 HA         -0.7760    0.2730   -1.5140 h1        1 OLZ      0.058700
     12 HN         -1.6770    2.3110   -0.5510 hn        1 OLZ      0.329800
     13 HNA        -0.8420    2.0460    0.8000 hn        1 OLZ      0.329800
     14 HB          0.0600   -0.0960    1.4600 h1        1 OLZ      0.035700
     15 HBA        -0.2640   -1.4780    0.2990 h1        1 OLZ      0.035700
     16 HD          2.3620   -0.7190    1.5370 h1        1 OLZ      0.016200
     17 HDA         2.0730   -2.0760    0.3540 h1        1 OLZ      0.016200
     18 HE          4.4540   -1.2530    0.3030 h1        1 OLZ      0.043700
     19 HEA         3.6000   -1.0750   -1.3000 h1        1 OLZ      0.043700
     20 HNZ         3.4010    1.2080   -0.8890 hn        1 OLZ      0.347800
     21 HNZA        4.0080    1.1100    0.6090 hn        1 OLZ      0.347800
@<TRIPOS>BOND
     1    1    2 1   
     2    2    3 1   
     3    2    4 1   
     4    4    5 1   
     5    4    6 1   
     6    4   11 1   
     7    5   12 1   
     8    5   13 1   
     9    6    7 1   
    10    6   14 1   
    11    6   15 1   
    12    7    8 1   
    13    8    9 1   
    14    8   16 1   
    15    8   17 1   
    16    9   10 1   
    17    9   18 1   
    18    9   19 1   
    19   10   20 1   
    20   10   21 1   
@<TRIPOS>SUBSTRUCTURE
     1 OLZ         1 TEMP              0 ****  ****    0 ROOT
