@<TRIPOS>MOLECULE
OM1
   57    56     1     0     0
SMALL
bcc


@<TRIPOS>ATOM
      1 C15         1.5360   -2.6020    0.4880 c2        1 OM1     -0.110000
      2 C16         4.1150    2.3860    0.8220 c2        1 OM1     -0.146000
      3 C14         1.5970   -1.4070    0.9780 c1        1 OM1     -0.027000
      4 C17         3.5430    1.3720    1.3920 c1        1 OM1     -0.156000
      5 C23         2.5480   -1.9870    7.4350 c3        1 OM1     -0.173000
      6 C6         -2.6320   -1.8960    4.1150 c2        1 OM1     -0.069000
      7 C10        -8.3570    1.1960    5.1980 cu        1 OM1     -0.197500
      8 C24         1.5470   -2.6550    8.2580 c1        1 OM1     -0.164000
      9 C7         -3.7890   -2.5480    4.3460 c2        1 OM1     -0.225000
     10 C9         -7.3310    0.3900    5.0110 cu        1 OM1     -0.197500
     11 C13         1.6970   -0.2460    1.5950 c2        1 OM1     -0.147000
     12 C30         1.5100   -2.9640    5.3860 c2        1 OM1     -0.165000
     13 C5         -2.5840   -0.4580    3.9530 c2        1 OM1     -0.088000
     14 C18         2.9960    0.3360    1.9700 c2        1 OM1      0.009000
     15 C22         2.4730   -2.1960    5.9630 c2        1 OM1     -0.013000
     16 C25         0.5920   -3.4290    7.6220 c2        1 OM1     -0.303000
     17 C29         0.5310   -3.6150    6.2410 c2        1 OM1      0.263000
     18 C8         -5.0420   -1.8120    4.4880 c1        1 OM1     -0.041000
     19 C2          0.5110    0.3900    2.1880 c2        1 OM1      0.328000
     20 C27        -0.4700   -4.0520    9.6540 c1        1 OM1     -0.043000
     21 C4         -1.5960    0.2580    3.3740 c2        1 OM1     -0.110000
     22 C19         3.6460   -0.4360    3.0620 c2        1 OM1     -0.021000
     23 C21         3.5580   -1.5220    5.1670 c3        1 OM1     -0.072000
     24 N3         -0.4330   -0.3050    2.8140 n3        1 OM1     -0.138000
     25 N20         3.0230   -0.6290    4.1690 n2        1 OM1     -0.174000
     26 O33         0.2830   -3.0210    3.3190 o         1 OM1     -0.575000
     27 O1          0.3520    1.7400    2.1190 oh        1 OM1     -0.233000
     28 O32         2.4370   -3.5090    3.2420 o         1 OM1     -0.575000
     29 O26        -0.4170   -4.1020    8.3820 os        1 OM1     -0.049000
     30 O28        -0.4010   -4.3750    5.6290 oh        1 OM1     -0.191000
     31 O11        -6.1110   -2.5790    4.3650 oh        1 OM1     -0.219000
     32 H15         4.7940    2.2670   -0.0370 ha        1 OM1      0.145000
     33 H16         1.4140   -2.8480   -0.5740 ha        1 OM1      0.206000
     34 H14         1.6020   -3.4510    1.2220 ha        1 OM1      0.206000
     35 H17         3.9620    3.4210    1.1640 ha        1 OM1      0.145000
     36 H23         3.5620   -2.3200    7.8070 hc        1 OM1      0.152500
     37 H24         2.4760   -0.8800    7.6540 hc        1 OM1      0.152500
     38 H6         -1.6830   -2.4760    4.0480 ha        1 OM1      0.196000
     39 H7         -3.7840   -3.6470    4.4600 ha        1 OM1      0.137000
     40 H10        -3.4630    0.0970    4.3430 ha        1 OM1      0.176000
     41 H9         -6.2790    0.1720    4.9700 ha        1 OM1      0.202500
     42 H41C       -1.6530    1.3630    3.3070 h4        1 OM1      0.169000
     43 H42C       -8.7780    2.1510    5.4290 ha        1 OM1      0.202500
     44 H191        1.1490    2.1180    1.6980 ho        1 OM1      0.277000
     45 H192        4.6270   -0.8750    2.7810 h4        1 OM1      0.129000
     46 H211        4.1900   -2.3460    4.7110 h1        1 OM1      0.110500
     47 H212        4.2130   -0.9200    5.8630 h1        1 OM1      0.110500
     48 H3         -0.2680   -1.3230    2.9390 hn        1 OM1      0.347000
     49 H271       -0.9800   -4.7730    6.3050 ho        1 OM1      0.249000
     50 H272        0.2770   -3.4760   10.2390 ha        1 OM1      0.072000
     51 H121       -9.0740   -0.4660    3.8480 hc        1 OM1      0.090000
     52 H122       -6.8940   -2.0060    4.4950 ho        1 OM1      0.260000
     53 H123       -9.0890   -0.8980    5.6230 hc        1 OM1      0.090000
     54 H20        -1.9110   -4.9230    3.8410 ha        1 OM1      0.002500
     55 H220       -1.3220   -4.7260    3.5660 ha        1 OM1      0.002500
     56 C31         1.4120   -3.1830    3.8970 c2        1 OM1      0.384000
     57 C12        -8.6860   -0.2140    4.8520 cx        1 OM1     -0.190000
@<TRIPOS>BOND
     1    1    3 1   
     2    1   33 1   
     3    1   34 1   
     4    2    4 1   
     5    2   32 1   
     6    2   35 1   
     7    3   11 1   
     8    4   14 1   
     9    5    8 1   
    10    5   15 1   
    11    5   36 1   
    12    5   37 1   
    13    6    9 1   
    14    6   13 1   
    15    6   38 1   
    16    7   10 1   
    17    7   43 1   
    18    7   57 1   
    19    8   16 1   
    20    9   18 1   
    21    9   39 1   
    22   10   41 1   
    23   10   57 1   
    24   11   14 1   
    25   11   19 1   
    26   12   15 1   
    27   12   17 1   
    28   12   56 1   
    29   13   21 1   
    30   13   40 1   
    31   14   22 1   
    32   15   23 1   
    33   16   17 1   
    34   16   29 1   
    35   17   30 1   
    36   18   31 1   
    37   19   24 1   
    38   19   27 1   
    39   20   29 1   
    40   20   50 1   
    41   21   24 1   
    42   21   42 1   
    43   22   25 1   
    44   22   45 1   
    45   23   25 1   
    46   23   46 1   
    47   23   47 1   
    48   24   48 1   
    49   26   56 1   
    50   27   44 1   
    51   28   56 1   
    52   30   49 1   
    53   31   52 1   
    54   51   57 1   
    55   53   57 1   
    56   54   55 1   
@<TRIPOS>SUBSTRUCTURE
     1 OM1         1 TEMP              0 ****  ****    0 ROOT
