@<TRIPOS>MOLECULE
OM1
   57    60     1     0     0
SMALL
bcc


@<TRIPOS>ATOM
      1 C15         1.9110   -4.4040   -1.6580 ca        1 OM1     -0.130000
      2 C16         0.6630   -5.0030   -1.4880 ca        1 OM1     -0.110000
      3 C14         2.2070   -3.2130   -0.9970 ca        1 OM1     -0.110000
      4 C17        -0.2900   -4.4090   -0.6620 ca        1 OM1     -0.116000
      5 C23        -2.0270    1.5800    0.2370 ca        1 OM1     -0.129000
      6 C6          3.9560    1.2250   -0.0760 ca        1 OM1     -0.083500
      7 C10         5.6260    0.5420    1.5350 ca        1 OM1     -0.083500
      8 C24        -2.3960    2.8120   -0.3340 ca        1 OM1     -0.091000
      9 C7          4.9260    1.8800   -0.8230 ca        1 OM1     -0.183500
     10 C9          6.6150    1.1960    0.8010 ca        1 OM1     -0.183500
     11 C13         1.2520   -2.6140   -0.1690 ca        1 OM1     -0.138600
     12 C30        -4.3430    0.7750    0.2810 ca        1 OM1     -0.147600
     13 C5          4.2990    0.5530    1.1060 ca        1 OM1     -0.165300
     14 C18        -0.0050   -3.2120    0.0040 ca        1 OM1     -0.042300
     15 C22        -2.9640    0.5940    0.5470 ca        1 OM1     -0.061300
     16 C25        -3.7410    2.9930   -0.5750 ca        1 OM1      0.048100
     17 C29        -4.7040    1.9920   -0.2720 ca        1 OM1      0.106100
     18 C8          6.2630    1.8630   -0.3780 ca        1 OM1      0.132100
     19 C2          1.5850   -1.3250    0.5090 c         1 OM1      0.672700
     20 C27        -5.7960    3.7790   -1.1690 c3        1 OM1      0.319200
     21 C4          3.2270   -0.1230    1.9110 c3        1 OM1      0.133300
     22 C19        -1.0430   -2.5980    0.8990 c3        1 OM1      0.200100
     23 C21        -2.4740   -0.6730    1.1910 c3        1 OM1      0.189100
     24 N3          2.7030   -1.3290    1.3230 n         1 OM1     -0.547900
     25 N20        -1.7900   -1.5380    0.2410 n3        1 OM1     -0.817200
     26 O33        -5.2120   -1.4980    0.0170 oh        1 OM1     -0.583100
     27 O1          0.8750   -0.3030    0.3870 o         1 OM1     -0.630100
     28 O32        -6.3320   -0.1570    1.3130 o         1 OM1     -0.477000
     29 O26        -4.3850    4.0960   -1.1270 os        1 OM1     -0.331900
     30 O28        -5.9640    2.4420   -0.6390 os        1 OM1     -0.316900
     31 O11         7.1510    2.5390   -1.1900 os        1 OM1     -0.325900
     32 H15         2.6620   -4.8680   -2.3140 ha        1 OM1      0.139000
     33 H16         0.4280   -5.9430   -2.0090 ha        1 OM1      0.139000
     34 H14         3.1890   -2.7380   -1.1430 ha        1 OM1      0.138000
     35 H17        -1.2780   -4.8780   -0.5360 ha        1 OM1      0.147000
     36 H23        -0.9590    1.3850    0.4390 ha        1 OM1      0.169000
     37 H24        -1.6510    3.5810   -0.5730 ha        1 OM1      0.161000
     38 H6          2.9040    1.2320   -0.4060 ha        1 OM1      0.141500
     39 H7          4.6710    2.4110   -1.7500 ha        1 OM1      0.146000
     40 H10         5.9020    0.0190    2.4630 ha        1 OM1      0.141500
     41 H9          7.6550    1.1810    1.1550 ha        1 OM1      0.146000
     42 H41C        3.6350   -0.3970    2.9270 h1        1 OM1      0.069700
     43 H42C        2.3720    0.6010    2.0560 h1        1 OM1      0.069700
     44 H191       -1.7890   -3.3850    1.2100 h1        1 OM1      0.045200
     45 H192       -0.5240   -2.2360    1.8380 h1        1 OM1      0.045200
     46 H211       -1.8090   -0.3790    2.0600 h1        1 OM1      0.051700
     47 H212       -3.3360   -1.2610    1.6210 h1        1 OM1      0.051700
     48 H3          3.3260   -2.1000    1.2520 hn        1 OM1      0.310500
     49 H271       -6.3450    4.4950   -0.5100 h2        1 OM1      0.077700
     50 H272       -6.1310    3.7810   -2.2360 h2        1 OM1      0.077700
     51 H121        8.5910    3.0680    0.2390 h1        1 OM1      0.045367
     52 H122        8.9270    1.5340   -0.7120 h1        1 OM1      0.045367
     53 H123        9.0190    3.1700   -1.5470 h1        1 OM1      0.045367
     54 H20        -1.1730   -0.9900   -0.3370 hn        1 OM1      0.383800
     55 H220       -4.4010   -1.5370   -0.5130 ho        1 OM1      0.446000
     56 C31        -5.3460   -0.2630    0.5860 c         1 OM1      0.655700
     57 C12         8.5050    2.5680   -0.7550 c3        1 OM1      0.112700
@<TRIPOS>BOND
     1    1    2 ar  
     2    1    3 ar  
     3    1   32 1   
     4    2    4 ar  
     5    2   33 1   
     6    3   11 ar  
     7    3   34 1   
     8    4   14 ar  
     9    4   35 1   
    10    5    8 ar  
    11    5   15 ar  
    12    5   36 1   
    13    6    9 ar  
    14    6   13 ar  
    15    6   38 1   
    16    7   10 ar  
    17    7   13 ar  
    18    7   40 1   
    19    8   16 ar  
    20    8   37 1   
    21    9   18 ar  
    22    9   39 1   
    23   10   18 ar  
    24   10   41 1   
    25   11   14 ar  
    26   11   19 1   
    27   12   15 ar  
    28   12   17 ar  
    29   12   56 1   
    30   13   21 1   
    31   14   22 1   
    32   15   23 1   
    33   16   17 ar  
    34   16   29 1   
    35   17   30 1   
    36   18   31 1   
    37   19   24 1   
    38   19   27 2   
    39   20   29 1   
    40   20   30 1   
    41   20   49 1   
    42   20   50 1   
    43   21   24 1   
    44   21   42 1   
    45   21   43 1   
    46   22   25 1   
    47   22   44 1   
    48   22   45 1   
    49   23   25 1   
    50   23   46 1   
    51   23   47 1   
    52   24   48 1   
    53   25   54 1   
    54   26   55 1   
    55   26   56 1   
    56   28   56 2   
    57   31   57 1   
    58   51   57 1   
    59   52   57 1   
    60   53   57 1   
@<TRIPOS>SUBSTRUCTURE
     1 OM1         1 TEMP              0 ****  ****    0 ROOT
