@<TRIPOS>MOLECULE
OM1
   57    51     1     0     0
SMALL
bcc


@<TRIPOS>ATOM
      1 C15        -0.1650   -0.2780   -4.0820 c1        1 OM1     -0.065000
      2 C16         1.2020   -0.3630   -4.0240 c1        1 OM1     -0.065000
      3 C14        -0.9140   -0.1740   -2.9000 c1        1 OM1     -0.065000
      4 C17         1.8510   -0.3460   -2.7870 c1        1 OM1     -0.065000
      5 C23         3.0380   -2.9560    2.5120 c1        1 OM1     -0.048500
      6 C6         -5.8150    1.5510   -0.9760 c1        1 OM1     -0.020500
      7 C10        -4.5050    3.3740   -0.1610 c1        1 OM1     -0.065000
      8 C24         3.5240   -3.4060    3.7450 c1        1 OM1     -0.080500
      9 C7         -6.8900    2.3930   -1.1330 c1        1 OM1     -0.100500
     10 C9         -5.5790    4.2190   -0.3160 c1        1 OM1     -0.065000
     11 C13        -0.2720   -0.1570   -1.6740 cg        1 OM1     -0.080200
     12 C30         5.2940   -2.4210    1.8350 cg        1 OM1     -0.030200
     13 C5         -4.6250    2.0360   -0.4920 c1        1 OM1     -0.131100
     14 C18         1.1110   -0.2430   -1.6150 c1        1 OM1     -0.060100
     15 C22         3.9140   -2.4660    1.5630 c1        1 OM1     -0.125100
     16 C25         4.9000   -3.3610    4.0170 c1        1 OM1      0.061600
     17 C29         5.7780   -2.8690    3.0610 c1        1 OM1      0.063600
     18 C8         -6.7740    3.7290   -0.8030 c1        1 OM1      0.120600
     19 C2         -1.2040    0.5440   -0.6100 c         1 OM1      0.626300
     20 C31         6.6450   -2.3090    1.0880 c         1 OM1      0.858800
     21 C27         7.0070   -3.6910    4.7950 c3        1 OM1      0.317200
     22 C12        -8.3090    5.3760   -1.6760 c3        1 OM1      0.111700
     23 C4         -3.5570    1.0650   -0.0120 c3        1 OM1      0.098100
     24 C19         2.3090   -0.1100   -0.6630 c3        1 OM1      0.112900
     25 C21         3.3820   -2.0170    0.1480 c3        1 OM1      0.135900
     26 N3         -2.4570    1.0240   -0.9910 n         1 OM1     -0.538900
     27 N20         2.2450   -1.1250    0.3090 n4        1 OM1     -0.768000
     28 O33         7.1050   -3.2990    0.4740 o         1 OM1     -0.815800
     29 O1         -0.8050    0.7000    0.5650 o         1 OM1     -0.667100
     30 O32         7.3210   -1.2000    1.1310 o         1 OM1     -0.815800
     31 O26         5.6740   -3.8630    5.1060 os        1 OM1     -0.320400
     32 O28         7.0850   -3.0010    3.5680 os        1 OM1     -0.291400
     33 O11        -8.1050    4.2100   -0.8170 os        1 OM1     -0.307400
     34 H15        -0.6260   -0.2890   -4.9630 ha        1 OM1      0.094667
     35 H16         1.7100   -0.4340   -4.8310 ha        1 OM1      0.094667
     36 H14        -1.8620   -0.1150   -2.9410 ha        1 OM1      0.094667
     37 H17         2.7930   -0.4390   -2.7460 ha        1 OM1      0.094667
     38 H23         2.1270   -2.9530    2.3460 ha        1 OM1      0.073500
     39 H24         2.9090   -3.7500    4.4140 ha        1 OM1      0.096500
     40 H6         -5.8950    0.6460   -1.1990 ha        1 OM1      0.085500
     41 H7         -7.7360    2.0460   -1.4770 ha        1 OM1      0.096500
     42 H10        -3.7090    3.6870    0.2890 ha        1 OM1      0.094667
     43 H9         -5.5380    5.1280    0.0450 ha        1 OM1      0.094667
     44 H41C       -3.9510    0.1620    0.0820 h1        1 OM1      0.072700
     45 H42C       -3.2110    1.3610    0.8540 h1        1 OM1      0.072700
     46 H191        3.1150   -0.1940   -1.1560 hx        1 OM1      0.130700
     47 H192        2.2850    0.8010   -0.2060 hx        1 OM1      0.130700
     48 H211        3.1050   -2.8150   -0.3710 hx        1 OM1      0.102200
     49 H212        4.0890   -1.5530   -0.3280 hx        1 OM1      0.102200
     50 H3         -2.5670    1.4220   -1.8370 hn        1 OM1      0.317500
     51 H271        7.4640   -4.6090    4.7070 h2        1 OM1      0.072700
     52 H272        7.4280   -3.1900    5.4660 h2        1 OM1      0.072700
     53 H121       -7.4610    5.8940   -1.7390 h1        1 OM1      0.047033
     54 H122       -8.9970    5.9330   -1.3020 h1        1 OM1      0.047033
     55 H123       -8.5920    5.0660   -2.6150 h1        1 OM1      0.047033
     56 H20         2.2650   -0.7600    1.1200 hn        1 OM1      0.473800
     57 H220        1.4500   -1.6100    0.2030 hn        1 OM1      0.473800
@<TRIPOS>BOND
     1    1    3 3   
     2    1   34 1   
     3    2    4 3   
     4    2   35 1   
     5    3   36 1   
     6    4   37 1   
     7    5   15 3   
     8    5   38 1   
     9    6   13 3   
    10    6   40 1   
    11    7   10 3   
    12    7   42 1   
    13    8   16 3   
    14    8   39 1   
    15    9   18 3   
    16    9   41 1   
    17   10   43 1   
    18   11   14 3   
    19   11   19 1   
    20   12   17 3   
    21   12   20 1   
    22   13   23 1   
    23   14   24 1   
    24   15   25 1   
    25   16   31 1   
    26   17   32 1   
    27   18   33 1   
    28   19   26 1   
    29   19   29 2   
    30   20   28 1   
    31   20   30 1   
    32   21   31 1   
    33   21   32 1   
    34   21   51 1   
    35   21   52 1   
    36   22   33 1   
    37   22   53 1   
    38   22   54 1   
    39   22   55 1   
    40   23   26 1   
    41   23   44 1   
    42   23   45 1   
    43   24   27 1   
    44   24   46 1   
    45   24   47 1   
    46   25   27 1   
    47   25   48 1   
    48   25   49 1   
    49   26   50 1   
    50   27   56 1   
    51   27   57 1   
@<TRIPOS>SUBSTRUCTURE
     1 OM1         1 TEMP              0 ****  ****    0 ROOT
