@<TRIPOS>MOLECULE
OM2
   55    56     1     0     0
SMALL
bcc


@<TRIPOS>ATOM
      1 C1         -1.0960    0.8670    0.8250 c1        1 OM2     -0.093000
      2 C2          0.0610    0.7150   -0.0130 c2        1 OM2     -0.021000
      3 C3         -1.5000    0.4890    2.0170 c2        1 OM2     -0.218000
      4 C4          0.7270   -0.0780    0.7880 c1        1 OM2     -0.206000
      5 C5          3.1070   -2.0860    7.2920 c3        1 OM2     -0.093000
      6 C6          3.6160   -3.2520    8.0590 c2        1 OM2     -0.091000
      7 C7         -0.5100   -0.2430    2.9000 c3        1 OM2     -0.062000
      8 C8          1.4350   -3.6470    6.2820 c2        1 OM2     -0.252000
      9 C9          0.6030   -0.8610    1.9940 c3        1 OM2     -0.044000
     10 C10         2.3120   -2.5000    6.0920 c2        1 OM2     -0.129000
     11 C11         3.0140   -4.4540    7.9720 c2        1 OM2     -0.112000
     12 C12         1.8280   -4.6430    7.1390 c2        1 OM2      0.175000
     13 C13         0.0380    0.7630    3.8900 cx        1 OM2     -0.011000
     14 C15         2.9320   -6.4000    9.3610 c1        1 OM2     -0.010000
     15 C17        -1.2980    3.4290    5.2760 c2        1 OM2     -0.201000
     16 C18         2.1150   -3.4420    3.1350 c3        1 OM2     -0.099000
     17 C19         1.9570   -1.0540    2.7000 c3        1 OM2     -0.024000
     18 C20         2.5200   -1.8440    4.9200 c2        1 OM2     -0.020000
     19 C21        -4.7740   -2.1960    4.4160 c3        1 OM2     -0.215000
     20 C22        -0.5910    2.3690    5.6840 c2        1 OM2     -0.159000
     21 N23        -0.7040    1.0600    5.1140 n3        1 OM2     -0.013000
     22 N24         1.9180   -2.1210    3.6860 n3        1 OM2     -0.274000
     23 O26         0.4480    0.3140    5.1850 os        1 OM2     -0.231000
     24 O28         3.5850   -5.5630    8.6610 os        1 OM2     -0.015000
     25 O29         1.1770   -5.8170    7.3640 oh        1 OM2     -0.263000
     26 H1         -2.4970    0.6800    2.4350 ha        1 OM2      0.187000
     27 H2          0.2470    1.1930   -0.9700 ha        1 OM2      0.190000
     28 H3         -1.0180   -1.0850    3.4550 hc        1 OM2      0.157000
     29 H4          0.2160   -1.8810    1.6780 hc        1 OM2      0.138000
     30 H5          3.9740   -1.4400    6.9860 hc        1 OM2      0.107500
     31 H6          4.4920   -3.0930    8.7060 ha        1 OM2      0.154000
     32 H191        2.2550   -0.0840    3.1890 h1        1 OM2      0.092500
     33 H192        2.7230   -1.2830    1.9010 h1        1 OM2      0.092500
     34 H201        3.1690   -0.9420    4.9400 h4        1 OM2      0.127000
     35 H202        2.4580   -1.4650    7.9740 hc        1 OM2      0.107500
     36 H23         0.6960    1.5420    3.4380 h2        1 OM2      0.139000
     37 H151        0.4370   -5.9180    6.7340 ho        1 OM2      0.275000
     38 H152        1.8340   -6.3480    9.4920 ha        1 OM2      0.061000
     39 H161       -2.6620   -2.6560    4.2610 hc        1 OM2      0.071667
     40 H162       -3.2830   -1.5000    3.0100 hc        1 OM2      0.071667
     41 H163       -3.6750   -3.2630    2.8880 hc        1 OM2      0.071667
     42 H211       -5.0240   -3.1120    5.0060 hc        1 OM2      0.071667
     43 H212       -5.6450   -1.9570    3.7580 hc        1 OM2      0.071667
     44 H171       -1.2630    4.3730    5.8350 ha        1 OM2      0.128000
     45 H172        0.0630    2.4100    6.5770 h4        1 OM2      0.151000
     46 H173       -1.9520    3.4270    4.3950 ha        1 OM2      0.128000
     47 H22        -4.6330   -1.3500    5.1310 hc        1 OM2      0.071667
     48 H181        1.9680   -4.2130    3.9360 h1        1 OM2      0.084667
     49 H182        3.1440   -3.5670    2.6970 h1        1 OM2      0.084667
     50 H183        1.3580   -3.6130    2.3250 h1        1 OM2      0.084667
     51 H224       -0.0530   -1.8050    5.5220 ho        1 OM2      0.258000
     52 C16        -3.5340   -2.4160    3.6010 c3        1 OM2     -0.215000
     53 O25        -0.5660   -2.6020    5.2980 oh        1 OM2     -0.277000
     54 O27        -0.4580   -4.7700    5.2980 o         1 OM2     -0.369000
     55 C14         0.1380   -3.7230    5.5980 c2        1 OM2      0.366000
@<TRIPOS>BOND
     1    1    2 1   
     2    1    3 1   
     3    2    4 1   
     4    2   27 1   
     5    3    7 1   
     6    3   26 1   
     7    4    9 1   
     8    5    6 1   
     9    5   10 1   
    10    5   30 1   
    11    5   35 1   
    12    6   11 1   
    13    6   31 1   
    14    7    9 1   
    15    7   13 1   
    16    7   28 1   
    17    8   10 1   
    18    8   12 1   
    19    8   55 1   
    20    9   17 1   
    21    9   29 1   
    22   10   18 1   
    23   11   12 1   
    24   11   24 1   
    25   12   25 1   
    26   13   21 1   
    27   13   23 1   
    28   13   36 1   
    29   14   24 1   
    30   14   38 1   
    31   15   20 1   
    32   15   44 1   
    33   15   46 1   
    34   16   22 1   
    35   16   48 1   
    36   16   49 1   
    37   16   50 1   
    38   17   22 1   
    39   17   32 1   
    40   17   33 1   
    41   18   22 1   
    42   18   34 1   
    43   19   42 1   
    44   19   43 1   
    45   19   47 1   
    46   19   52 1   
    47   20   21 1   
    48   20   45 1   
    49   21   23 1   
    50   25   37 1   
    51   39   52 1   
    52   40   52 1   
    53   41   52 1   
    54   51   53 1   
    55   53   55 1   
    56   54   55 1   
@<TRIPOS>SUBSTRUCTURE
     1 OM2         1 TEMP              0 ****  ****    0 ROOT
