@<TRIPOS>MOLECULE
OM2
   56    56     1     0     0
SMALL
bcc


@<TRIPOS>ATOM
      1 C1         -0.0210    0.3640   -0.0310 cu        1 OM2      0.044000
      2 C2          1.3510   -0.0300    0.1240 cu        1 OM2     -0.135000
      3 C3          0.5590    0.8040    1.0820 cu        1 OM2     -0.173000
      4 C4          2.6020   -0.2230    0.5300 c2        1 OM2     -0.237000
      5 C5          3.2470   -2.8650    6.9160 c3        1 OM2     -0.129000
      6 C6          2.8290   -4.1660    7.4920 c2        1 OM2     -0.095000
      7 C7          1.3810    1.1650    2.2330 c3        1 OM2     -0.097000
      8 C8          1.0340   -2.7780    5.7540 c2        1 OM2     -0.289000
      9 C9          2.7860    0.5380    1.8430 c3        1 OM2     -0.093000
     10 C10         2.4540   -2.4770    5.6940 c2        1 OM2      0.077000
     11 C11         1.6070   -4.6640    7.2360 c2        1 OM2     -0.174000
     12 C12         0.6370   -3.9120    6.4450 c2        1 OM2      0.281000
     13 C13         1.4680    2.6510    2.4810 c2        1 OM2      0.202000
     14 C15         1.7120   -6.7770    8.3860 c1        1 OM2      0.047000
     15 C17        -5.4660    2.1750    6.0930 c3        1 OM2     -0.145000
     16 C18         2.9800   -2.6500    2.3920 c3        1 OM2     -0.185000
     17 C19         3.4240   -0.2710    2.9590 c3        1 OM2     -0.108000
     18 C20         3.1750   -1.9500    4.6770 c2        1 OM2     -0.240000
     19 C21        -4.9200   -3.8770    6.7820 c3        1 OM2     -0.214500
     20 C22        -4.3870    1.2800    5.7680 c1        1 OM2     -0.103000
     21 N23        -3.5150    0.5550    5.5060 n1        1 OM2     -0.108000
     22 N24         2.7200   -1.5430    3.3530 n4        1 OM2      0.044000
     23 O26         2.4920    3.1780    2.9100 o         1 OM2     -0.270000
     24 O28         1.0800   -5.8900    7.7390 os        1 OM2     -0.036000
     25 O29        -0.6530   -4.2970    6.3910 oh        1 OM2     -0.176000
     26 H1         -0.8760    0.3070   -0.6800 ha        1 OM2      0.225000
     27 H2          3.4360   -0.7180    0.0380 ha        1 OM2      0.168000
     28 H3          0.9690    0.7040    3.1770 hc        1 OM2      0.169000
     29 H4          3.5020    1.3930    1.6580 hc        1 OM2      0.154000
     30 H5          4.3470   -2.9010    6.6860 hc        1 OM2      0.141000
     31 H6          3.5530   -4.6740    8.1480 ha        1 OM2      0.167000
     32 H191        3.4680    0.3810    3.8810 hx        1 OM2      0.139000
     33 H192        4.4740   -0.5480    2.6550 hx        1 OM2      0.139000
     34 H201        4.2680   -1.7990    4.7910 hx        1 OM2      0.178000
     35 H202        3.1020   -2.0630    7.7000 hc        1 OM2      0.141000
     36 H23         0.5350    3.2190    2.2770 h4        1 OM2      0.129000
     37 H151       -0.7970   -5.0830    6.9540 ho        1 OM2      0.273000
     38 H152        2.7850   -6.7040    8.6490 ha        1 OM2      0.064000
     39 H161       -2.9150   -3.7620    5.9620 hc        1 OM2      0.071833
     40 H162       -3.9970   -2.3870    5.5110 hc        1 OM2      0.071833
     41 H163       -4.2290   -4.0070    4.7360 hc        1 OM2      0.071833
     42 H211       -4.8900   -4.9800    6.9610 hc        1 OM2      0.071833
     43 H212       -5.9660   -3.5980    6.5110 hc        1 OM2      0.071833
     44 H171       -6.0770    2.3890    5.1780 hc        1 OM2      0.119333
     45 H172       -5.0610    3.1400    6.4910 hc        1 OM2      0.119333
     46 H173       -6.1290    1.7130    6.8690 hc        1 OM2      0.119333
     47 H22        -4.6580   -3.3610    7.7380 hc        1 OM2      0.071833
     48 H181        2.4780   -3.5820    2.7670 hx        1 OM2      0.138000
     49 H182        2.5600   -2.3720    1.3870 hx        1 OM2      0.138000
     50 H183        4.0830   -2.8280    2.3070 hx        1 OM2      0.138000
     51 H224        1.7000   -1.3520    3.3580 hn        1 OM2      0.279000
     52 O25         0.1780   -0.9230    4.4200 o         1 OM2     -0.450000
     53 O27        -1.2320   -2.0840    5.6620 oh        1 OM2     -0.266000
     54 C14         0.0250   -1.8730    5.2120 c2        1 OM2      0.393000
     55 H232       -1.8420   -1.4200    5.2820 ho        1 OM2      0.283000
     56 C16        -3.9670   -3.4900    5.6910 c3        1 OM2     -0.214500
@<TRIPOS>BOND
     1    1    2 1   
     2    1    3 1   
     3    1   26 1   
     4    2    3 1   
     5    2    4 1   
     6    3    7 1   
     7    4    9 1   
     8    4   27 1   
     9    5    6 1   
    10    5   10 1   
    11    5   30 1   
    12    5   35 1   
    13    6   11 1   
    14    6   31 1   
    15    7    9 1   
    16    7   13 1   
    17    7   28 1   
    18    8   10 1   
    19    8   12 1   
    20    8   54 1   
    21    9   17 1   
    22    9   29 1   
    23   10   18 1   
    24   11   12 1   
    25   11   24 1   
    26   12   25 1   
    27   13   23 1   
    28   13   36 1   
    29   14   24 1   
    30   14   38 1   
    31   15   20 1   
    32   15   44 1   
    33   15   45 1   
    34   15   46 1   
    35   16   22 1   
    36   16   48 1   
    37   16   49 1   
    38   16   50 1   
    39   17   22 1   
    40   17   32 1   
    41   17   33 1   
    42   18   22 1   
    43   18   34 1   
    44   19   42 1   
    45   19   43 1   
    46   19   47 1   
    47   19   56 1   
    48   20   21 1   
    49   22   51 1   
    50   25   37 1   
    51   39   56 1   
    52   40   56 1   
    53   41   56 1   
    54   52   54 1   
    55   53   54 1   
    56   53   55 1   
@<TRIPOS>SUBSTRUCTURE
     1 OM2         1 TEMP              0 ****  ****    0 ROOT
