@<TRIPOS>MOLECULE
OM2
   55    57     1     0     0
SMALL
bcc


@<TRIPOS>ATOM
      1 C1         -4.9810   -1.8920    1.4850 ca        1 OM2     -0.113000
      2 C2         -4.3650   -3.1390    1.3920 ca        1 OM2     -0.117000
      3 C3         -4.4400   -0.7930    0.8180 ca        1 OM2     -0.101000
      4 C4         -3.2130   -3.2860    0.6230 ca        1 OM2     -0.123000
      5 C5          3.1770   -1.7400   -1.1490 ca        1 OM2     -0.122000
      6 C6          4.4580   -1.4010   -0.6860 ca        1 OM2     -0.130000
      7 C7         -3.2770   -0.9290    0.0490 ca        1 OM2     -0.095600
      8 C8          2.1270    0.1860   -0.0310 ca        1 OM2     -0.088600
      9 C9         -2.6710   -2.1910   -0.0590 ca        1 OM2     -0.098300
     10 C10         2.0480   -0.9800   -0.8300 ca        1 OM2     -0.141300
     11 C11         4.5370   -0.2780    0.1120 ca        1 OM2      0.070100
     12 C12         3.3920    0.5010    0.4350 ca        1 OM2      0.084100
     13 C13        -2.7230    0.2640   -0.6820 c         1 OM2      0.663700
     14 C15         5.2100    1.4590    1.4210 c3        1 OM2      0.315200
     15 C17        -2.9030    3.1090   -1.9330 c3        1 OM2     -0.102100
     16 C18         0.3950   -2.8620    0.5800 c3        1 OM2      0.097100
     17 C19        -1.4730   -2.4100   -0.9310 c3        1 OM2      0.155100
     18 C20         0.7270   -1.4050   -1.3880 c3        1 OM2      0.180100
     19 C21        -2.2860    3.8640    0.3590 c3        1 OM2     -0.077400
     20 C22        -2.2330    2.6840   -0.6270 c3        1 OM2      0.078700
     21 N23        -2.8340    1.4830   -0.0560 n         1 OM2     -0.499900
     22 N24        -0.2210   -1.8680   -0.3220 n4        1 OM2     -0.720400
     23 O26        -2.2620    0.1290   -1.8400 o         1 OM2     -0.651100
     24 O28         5.6590    0.2780    0.7100 os        1 OM2     -0.335900
     25 O29         3.7790    1.5560    1.2540 os        1 OM2     -0.300900
     26 H1         -5.8960   -1.7710    2.0850 ha        1 OM2      0.144000
     27 H2         -4.7870   -4.0060    1.9210 ha        1 OM2      0.142000
     28 H3         -4.9460    0.1830    0.8920 ha        1 OM2      0.156000
     29 H4         -2.7330   -4.2730    0.5440 ha        1 OM2      0.132000
     30 H5          3.0740   -2.6280   -1.7900 ha        1 OM2      0.129000
     31 H6          5.3430   -1.9940   -0.9470 ha        1 OM2      0.156000
     32 H191       -1.3270   -3.5110   -1.1280 hx        1 OM2      0.104200
     33 H192       -1.6450   -1.8960   -1.9270 hx        1 OM2      0.104200
     34 H201        0.2240   -0.5240   -1.8950 hx        1 OM2      0.098700
     35 H202        0.8570   -2.2390   -2.1330 hx        1 OM2      0.098700
     36 H23        -2.8550    1.4660    0.9420 hn        1 OM2      0.317500
     37 H151        5.4350    1.3240    2.5070 h2        1 OM2      0.074700
     38 H152        5.6900    2.3560    0.9590 h2        1 OM2      0.074700
     39 H161       -2.1830    2.9940    2.3520 hc        1 OM2      0.046700
     40 H162       -0.6150    2.9940    1.4330 hc        1 OM2      0.046700
     41 H163       -1.2690    4.5370    2.1450 hc        1 OM2      0.046700
     42 H211       -3.3500    4.1430    0.5690 hc        1 OM2      0.040200
     43 H212       -1.8050    4.7350   -0.1600 hc        1 OM2      0.040200
     44 H171       -2.8590    2.2840   -2.6850 hc        1 OM2      0.041367
     45 H172       -3.9700    3.3900   -1.7680 hc        1 OM2      0.041367
     46 H173       -2.3580    3.9940   -2.3410 hc        1 OM2      0.041367
     47 H22        -1.1360    2.4600   -0.8380 h1        1 OM2      0.106700
     48 H181        1.2270   -2.3670    1.1500 hx        1 OM2      0.082033
     49 H182       -0.3840   -3.2320    1.2980 hx        1 OM2      0.082033
     50 H183        0.8050   -3.7210   -0.0110 hx        1 OM2      0.082033
     51 H224       -0.4490   -0.9840    0.2630 hn        1 OM2      0.528800
     52 C16        -1.5500    3.5800    1.6420 c3        1 OM2     -0.113100
     53 O25        -0.0820    0.5720    0.8560 o         1 OM2     -0.794800
     54 O27         0.9750    2.2720   -0.0940 o         1 OM2     -0.794800
     55 C14         0.9370    1.0740    0.2580 c         1 OM2      0.919200
@<TRIPOS>BOND
     1    1    2 ar  
     2    1    3 ar  
     3    1   26 1   
     4    2    4 ar  
     5    2   27 1   
     6    3    7 ar  
     7    3   28 1   
     8    4    9 ar  
     9    4   29 1   
    10    5    6 ar  
    11    5   10 ar  
    12    5   30 1   
    13    6   11 ar  
    14    6   31 1   
    15    7    9 ar  
    16    7   13 1   
    17    8   10 ar  
    18    8   12 ar  
    19    8   55 1   
    20    9   17 1   
    21   10   18 1   
    22   11   12 ar  
    23   11   24 1   
    24   12   25 1   
    25   13   21 1   
    26   13   23 2   
    27   14   24 1   
    28   14   25 1   
    29   14   37 1   
    30   14   38 1   
    31   15   20 1   
    32   15   44 1   
    33   15   45 1   
    34   15   46 1   
    35   16   22 1   
    36   16   48 1   
    37   16   49 1   
    38   16   50 1   
    39   17   22 1   
    40   17   32 1   
    41   17   33 1   
    42   18   22 1   
    43   18   34 1   
    44   18   35 1   
    45   19   20 1   
    46   19   42 1   
    47   19   43 1   
    48   19   52 1   
    49   20   21 1   
    50   20   47 1   
    51   21   36 1   
    52   22   51 1   
    53   39   52 1   
    54   40   52 1   
    55   41   52 1   
    56   53   55 1   
    57   54   55 1   
@<TRIPOS>SUBSTRUCTURE
     1 OM2         1 TEMP              0 ****  ****    0 ROOT
