@<TRIPOS>MOLECULE
OM2
   55    43     1     0     0
SMALL
bcc


@<TRIPOS>ATOM
      1 C1         -3.9420    1.0620   -2.2280 c1        1 OM2     -0.117500
      2 C2         -3.7160   -0.1010   -1.4890 c1        1 OM2     -0.117500
      3 C3         -3.1820    2.2120   -1.9780 c1        1 OM2     -0.117500
      4 C4         -2.7280   -0.1210   -0.4940 c1        1 OM2     -0.117500
      5 C5         -0.8660   -2.8280    0.9970 c1        1 OM2     -0.117500
      6 C6         -0.8910   -4.2070    0.7480 c1        1 OM2     -0.117500
      7 C7         -2.1890    2.1960   -0.9810 c1        1 OM2     -0.094000
      8 C8          1.4180   -3.0140    1.7880 c1        1 OM2     -0.034250
      9 C9         -1.9630    1.0310   -0.2400 c1        1 OM2     -0.081000
     10 C10         0.2870   -2.2310    1.5160 c1        1 OM2     -0.034250
     11 C11         0.2540   -4.9990    1.0230 c1        1 OM2     -0.034250
     12 C12         1.3930   -4.4100    1.5370 c1        1 OM2     -0.034250
     13 C13        -1.1230    3.0190   -1.3230 c1        1 OM2      0.345000
     14 C14         2.6120   -2.3720    1.9490 c1        1 OM2      0.345000
     15 C15         1.9220   -6.5700    0.9690 c3        1 OM2      0.094000
     16 C16         2.8670    4.0620   -2.6710 c3        1 OM2     -0.213000
     17 C17         2.1820    3.8770    0.2510 c3        1 OM2     -0.228000
     18 C18        -1.8480   -1.0600    1.0420 c3        1 OM2     -0.195000
     19 C19        -0.9980    1.0790    1.0400 c3        1 OM2     -0.083000
     20 C20         0.3600   -0.7690    1.6470 c1        1 OM2     -0.058000
     21 C21         1.7840    3.1680   -2.0580 c3        1 OM2     -0.173000
     22 C22         1.1850    3.8590   -0.8620 c3        1 OM2      0.017000
     23 N23        -0.0000    3.1460   -0.4350 n2        1 OM2     -0.366000
     24 N24        -0.9860   -0.2170    1.6900 n3        1 OM2     -0.023000
     25 O25         3.2110   -2.4270    3.0500 o         1 OM2     -0.433500
     26 O26        -1.1510    3.6470   -2.3580 o         1 OM2     -0.433500
     27 O27         3.2320   -2.0270    0.9150 os        1 OM2     -0.577000
     28 O28         0.5850   -6.3550    0.6520 o         1 OM2     -0.203500
     29 O29         2.4140   -5.4080    1.5970 o         1 OM2     -0.203500
     30 H1         -4.6380    1.0730   -2.9280 ha        1 OM2      0.145167
     31 H2         -4.2530   -0.9090   -1.6670 ha        1 OM2      0.145167
     32 H3         -3.3420    3.0320   -2.5020 ha        1 OM2      0.145167
     33 H4         -2.5230   -0.9520   -0.0320 ha        1 OM2      0.145167
     34 H5         -1.6420   -2.2920    0.8100 ha        1 OM2      0.145167
     35 H6         -1.6940   -4.6220    0.3860 ha        1 OM2      0.145167
     36 H191       -0.0840    1.3100    0.7530 h1        1 OM2      0.141000
     37 H192       -1.3290    1.7670    1.6790 h1        1 OM2      0.141000
     38 H201        0.8360   -0.5360    2.4770 ha        1 OM2      0.145000
     39 H202        0.8400   -0.3960    0.8810 ha        1 OM2      0.145000
     40 H23        -0.0480    2.8060    0.4110 hn        1 OM2      0.228000
     41 H151        2.4360   -6.7460    0.1460 h2        1 OM2      0.110500
     42 H152        2.0010   -7.3430    1.5860 h2        1 OM2      0.110500
     43 H161        2.4990    4.9570   -2.8320 hc        1 OM2      0.080333
     44 H162        3.6300    4.1270   -2.0480 hc        1 OM2      0.080333
     45 H163        3.1690    3.6770   -3.5130 hc        1 OM2      0.080333
     46 H211        2.1850    2.3110   -1.7750 hc        1 OM2      0.084000
     47 H212        1.0930    3.0000   -2.7150 hc        1 OM2      0.084000
     48 H171        2.4730    2.9560    0.4460 hc        1 OM2      0.083667
     49 H172        1.7750    4.2630    1.0440 hc        1 OM2      0.083667
     50 H173        2.9530    4.4130   -0.0120 hc        1 OM2      0.083667
     51 H22         0.9470    4.7770   -1.1020 h1        1 OM2      0.135000
     52 H181       -1.4340   -1.3650    0.1880 h1        1 OM2      0.134000
     53 H182       -2.6850   -0.5860    0.8490 h1        1 OM2      0.134000
     54 H183       -2.0370   -1.8400    1.6140 h1        1 OM2      0.134000
     55 H224       -1.2500   -0.1230    2.5650 hn        1 OM2      0.317000
@<TRIPOS>BOND
     1    1    3 1   
     2    1   30 1   
     3    2    4 1   
     4    2   31 1   
     5    3   32 1   
     6    4   33 1   
     7    5    6 1   
     8    5   34 1   
     9    6   35 1   
    10    7    9 1   
    11    8   10 1   
    12    9   19 1   
    13   11   12 1   
    14   13   26 1   
    15   14   25 1   
    16   15   28 1   
    17   15   29 1   
    18   15   41 1   
    19   15   42 1   
    20   16   21 1   
    21   16   43 1   
    22   16   44 1   
    23   16   45 1   
    24   17   22 1   
    25   17   48 1   
    26   17   49 1   
    27   17   50 1   
    28   18   24 1   
    29   18   52 1   
    30   18   53 1   
    31   18   54 1   
    32   19   24 1   
    33   19   36 1   
    34   19   37 1   
    35   20   38 1   
    36   20   39 1   
    37   21   22 1   
    38   21   46 1   
    39   21   47 1   
    40   22   23 1   
    41   22   51 1   
    42   23   40 1   
    43   24   55 1   
@<TRIPOS>SUBSTRUCTURE
     1 OM2         1 TEMP              0 ****  ****    0 ROOT
