@<TRIPOS>MOLECULE
OM2
   55    56     1     0     0
SMALL
bcc


@<TRIPOS>ATOM
      1 C1          0.3420    1.0940    0.3700 cu        1 OM2     -0.150000
      2 C2          1.3780    0.7290   -0.5530 cu        1 OM2      0.007000
      3 C3         -0.5130    1.1780    1.3790 c2        1 OM2     -0.184000
      4 C4          1.2560   -0.0910    0.4850 cu        1 OM2     -0.176000
      5 C5          2.6570   -1.8200    7.3160 c3        1 OM2     -0.081000
      6 C6          3.2950   -2.8950    8.1210 c2        1 OM2     -0.087000
      7 C7         -0.2360    0.0010    2.3280 c3        1 OM2     -0.092000
      8 C8          1.2700   -3.6020    6.2670 c2        1 OM2     -0.243000
      9 C9          0.9210   -0.8710    1.6780 c3        1 OM2      0.000000
     10 C10         2.0160   -2.3660    6.0770 c2        1 OM2     -0.211000
     11 C11         2.8620   -4.1680    8.0370 c2        1 OM2     -0.114000
     12 C12         1.7370   -4.5200    7.1730 c2        1 OM2      0.171000
     13 C13         0.0680    0.5730    3.7030 c2        1 OM2      0.322000
     14 C15         2.9860   -6.0800    9.4660 c1        1 OM2     -0.013000
     15 C17        -1.8890    1.2470    6.7620 c2        1 OM2     -0.304000
     16 C18         1.6880   -3.4640    3.2440 c3        1 OM2     -0.096000
     17 C19         2.1570   -1.1700    2.5340 c3        1 OM2     -0.023000
     18 C20         2.2670   -1.7320    4.8970 c2        1 OM2      0.029000
     19 C21        -4.5470   -1.0180    4.4860 c3        1 OM2     -0.220500
     20 C22        -0.8970    1.2010    5.8590 c2        1 OM2     -0.028000
     21 N23        -0.9840    0.5740    4.6150 n         1 OM2     -0.343000
     22 N24         1.8920   -2.0910    3.6180 n3        1 OM2     -0.292000
     23 O26         1.1750    1.0480    4.0240 o         1 OM2     -0.368000
     24 O28         3.5480   -5.1840    8.7600 os        1 OM2     -0.015000
     25 O29         1.2090   -5.7500    7.4230 oh        1 OM2     -0.263000
     26 H1         -1.2920    1.9030    1.5960 ha        1 OM2      0.165000
     27 H2          1.8680    1.0100   -1.4650 ha        1 OM2      0.208000
     28 H3         -1.1470   -0.6580    2.3690 hc        1 OM2      0.116000
     29 H4          0.4540   -1.8470    1.3580 hc        1 OM2      0.125000
     30 H5          3.4280   -1.0460    7.0560 hc        1 OM2      0.102500
     31 H6          4.1220   -2.6120    8.7900 ha        1 OM2      0.153000
     32 H191        2.5730   -0.2000    2.9320 h1        1 OM2      0.111500
     33 H192        2.9330   -1.6180    1.8440 h1        1 OM2      0.111500
     34 H201        2.7880   -0.7470    4.9460 h4        1 OM2      0.155000
     35 H202        1.8810   -1.3100    7.9550 hc        1 OM2      0.102500
     36 H23        -1.8570    0.1740    4.3480 hn        1 OM2      0.237000
     37 H151        0.5010   -5.9490    6.7800 ho        1 OM2      0.271000
     38 H152        1.8860   -6.1560    9.5730 ha        1 OM2      0.059000
     39 H161       -2.6670   -1.9850    4.0010 hc        1 OM2      0.074000
     40 H162       -3.3140   -0.8760    2.7130 hc        1 OM2      0.074000
     41 H163       -4.0700   -2.4970    2.9820 hc        1 OM2      0.074000
     42 H211       -4.8320   -1.7670    5.2640 hc        1 OM2      0.074000
     43 H212       -5.4790   -0.6680    3.9790 hc        1 OM2      0.074000
     44 H171       -1.7420    1.7580    7.7210 ha        1 OM2      0.124500
     45 H172       -2.8770    0.7960    6.6140 ha        1 OM2      0.124500
     46 H173        0.0900    1.6730    6.0490 h4        1 OM2      0.163000
     47 H22        -4.0810   -0.1420    5.0000 hc        1 OM2      0.074000
     48 H181        2.1860   -3.6840    2.2610 h1        1 OM2      0.089333
     49 H182        0.5860   -3.6680    3.1380 h1        1 OM2      0.089333
     50 H183        2.1110   -4.1580    4.0190 h1        1 OM2      0.089333
     51 H224       -0.2890   -1.9410    5.3430 ho        1 OM2      0.244000
     52 C16        -3.5980   -1.6230    3.4940 c3        1 OM2     -0.220500
     53 O25        -0.7370   -2.7720    5.1210 oh        1 OM2     -0.287000
     54 O27        -0.5250   -4.9240    5.3300 o         1 OM2     -0.364000
     55 C14         0.0080   -3.8270    5.5580 c2        1 OM2      0.360000
@<TRIPOS>BOND
     1    1    2 1   
     2    1    3 1   
     3    1    4 1   
     4    2    4 1   
     5    2   27 1   
     6    3    7 1   
     7    3   26 1   
     8    4    9 1   
     9    5    6 1   
    10    5   10 1   
    11    5   30 1   
    12    5   35 1   
    13    6   11 1   
    14    6   31 1   
    15    7    9 1   
    16    7   13 1   
    17    7   28 1   
    18    8   10 1   
    19    8   12 1   
    20    8   55 1   
    21    9   17 1   
    22    9   29 1   
    23   10   18 1   
    24   11   12 1   
    25   11   24 1   
    26   12   25 1   
    27   13   21 1   
    28   13   23 1   
    29   14   24 1   
    30   14   38 1   
    31   15   20 1   
    32   15   44 1   
    33   15   45 1   
    34   16   22 1   
    35   16   48 1   
    36   16   49 1   
    37   16   50 1   
    38   17   22 1   
    39   17   32 1   
    40   17   33 1   
    41   18   22 1   
    42   18   34 1   
    43   19   42 1   
    44   19   43 1   
    45   19   47 1   
    46   19   52 1   
    47   20   21 1   
    48   20   46 1   
    49   21   36 1   
    50   25   37 1   
    51   39   52 1   
    52   40   52 1   
    53   41   52 1   
    54   51   53 1   
    55   53   55 1   
    56   54   55 1   
@<TRIPOS>SUBSTRUCTURE
     1 OM2         1 TEMP              0 ****  ****    0 ROOT
