@<TRIPOS>MOLECULE
OM3
   63    66     1     0     0
SMALL
bcc


@<TRIPOS>ATOM
      1 C1          2.4800   -4.1760   -1.7690 ca        1 OM3     -0.092000
      2 C2          1.4380   -5.0170   -1.3820 ca        1 OM3     -0.099000
      3 C3          2.5630   -2.8820   -1.2530 ca        1 OM3     -0.099000
      4 C4          0.4670   -4.5560   -0.4930 ca        1 OM3     -0.110000
      5 C5         -4.5920   -0.3490    1.2220 ca        1 OM3     -0.094000
      6 C6         -5.6540    0.4910    0.8330 ca        1 OM3     -0.102000
      7 C7          1.6020   -2.4180   -0.3490 ca        1 OM3     -0.113600
      8 C8         -2.9860    0.8540   -0.1840 ca        1 OM3     -0.098600
      9 C9          0.5370   -3.2580    0.0220 ca        1 OM3     -0.119300
     10 C10        -3.2960   -0.1810    0.7410 ca        1 OM3     -0.134300
     11 C11        -5.3460    1.4970   -0.0570 ca        1 OM3      0.097100
     12 C12        -4.0210    1.6800   -0.5610 ca        1 OM3      0.113100
     13 C13         1.7050   -1.0280    0.1990 c         1 OM3      0.678700
     14 C15         6.6670    3.1740    0.2020 c3        1 OM3     -0.079400
     15 C16         5.2920    3.7830    0.0200 c3        1 OM3     -0.077400
     16 C17         6.6860    1.7260   -0.2420 c3        1 OM3     -0.077400
     17 C18         4.2310    2.9740    0.7370 c3        1 OM3     -0.073400
     18 C19         5.6230    0.9140    0.4720 c3        1 OM3     -0.073400
     19 C20        -5.3610    3.2820   -1.4760 c3        1 OM3      0.320200
     20 C21         4.2430    1.5220    0.2760 c3        1 OM3     -0.086700
     21 C22        -2.5740   -2.8170   -0.3780 c3        1 OM3      0.088100
     22 C23        -0.5160   -2.7990    0.9800 c3        1 OM3      0.173100
     23 C24        -2.1960   -1.0290    1.2940 c3        1 OM3      0.167100
     24 N26         2.9340   -0.5880    0.5990 n         1 OM3     -0.525900
     25 N27        -1.5700   -1.9660    0.2990 n4        1 OM3     -0.689400
     26 O28        -0.8480    1.9230   -0.1420 oh        1 OM3     -0.557100
     27 O29         0.6770   -0.3110    0.3250 o         1 OM3     -0.701100
     28 O30        -1.1250    0.2920   -1.6270 o         1 OM3     -0.564000
     29 O31        -6.1760    2.4570   -0.6040 os        1 OM3     -0.310900
     30 O32        -4.0090    2.7530   -1.4330 os        1 OM3     -0.312900
     31 H1          3.2410   -4.5310   -2.4830 ha        1 OM3      0.163000
     32 H2          1.3770   -6.0430   -1.7790 ha        1 OM3      0.162000
     33 H3          3.3860   -2.2260   -1.5810 ha        1 OM3      0.156000
     34 H4         -0.3540   -5.2260   -0.1900 ha        1 OM3      0.144000
     35 H5         -4.8090   -1.1530    1.9450 ha        1 OM3      0.150000
     36 H6         -6.6710    0.3490    1.2250 ha        1 OM3      0.181000
     37 H231       -1.0260   -3.6780    1.4680 hx        1 OM3      0.103200
     38 H232       -0.0410   -2.1630    1.7840 hx        1 OM3      0.103200
     39 H241       -1.3630   -0.3510    1.6590 hx        1 OM3      0.111200
     40 H242       -2.5750   -1.6500    2.1550 hx        1 OM3      0.111200
     41 H26         3.7310   -1.1630    0.4490 hn        1 OM3      0.326500
     42 H28         0.0620    1.8540   -0.4890 ho        1 OM3      0.467000
     43 H152        6.9650    3.2390    1.2810 hc        1 OM3      0.049200
     44 H161        5.2890    4.8320    0.4160 hc        1 OM3      0.047450
     45 H162        5.0480    3.8360   -1.0740 hc        1 OM3      0.047450
     46 H171        6.5170    1.6720   -1.3490 hc        1 OM3      0.047450
     47 H172        7.6940    1.2820   -0.0330 hc        1 OM3      0.047450
     48 H181        4.4110    3.0150    1.8430 hc        1 OM3      0.039950
     49 H182        3.2220    3.4220    0.5400 hc        1 OM3      0.039950
     50 H191        5.6430   -0.1360    0.0780 hc        1 OM3      0.039950
     51 H192        5.8590    0.8690    1.5680 hc        1 OM3      0.039950
     52 H21         3.9890    1.4950   -0.8200 hc        1 OM3      0.058700
     53 H201       -5.7470    3.1850   -2.5210 h2        1 OM3      0.098200
     54 H202       -5.3480    4.3250   -1.0720 h2        1 OM3      0.098200
     55 H221       -3.2560   -2.1640   -0.9870 hx        1 OM3      0.096700
     56 H222       -2.0420   -3.5400   -1.0540 hx        1 OM3      0.096700
     57 H223       -3.1730   -3.3800    0.3840 hx        1 OM3      0.096700
     58 H227       -1.0800   -1.3860   -0.4190 hn        1 OM3      0.497800
     59 C14        -1.6220    0.9850   -0.7280 c         1 OM3      0.668700
     60 C25         3.1740    0.7550    1.0690 c3        1 OM3      0.078000
     61 H151        7.4180    3.7580   -0.3910 hc        1 OM3      0.049200
     62 H251        3.5010    0.6890    2.1480 h1        1 OM3      0.068200
     63 H252        2.2050    1.3330    1.0300 h1        1 OM3      0.068200
@<TRIPOS>BOND
     1    1    2 ar  
     2    1    3 ar  
     3    1   31 1   
     4    2    4 ar  
     5    2   32 1   
     6    3    7 ar  
     7    3   33 1   
     8    4    9 ar  
     9    4   34 1   
    10    5    6 ar  
    11    5   10 ar  
    12    5   35 1   
    13    6   11 ar  
    14    6   36 1   
    15    7    9 ar  
    16    7   13 1   
    17    8   10 ar  
    18    8   12 ar  
    19    8   59 1   
    20    9   22 1   
    21   10   23 1   
    22   11   12 ar  
    23   11   29 1   
    24   12   30 1   
    25   13   24 1   
    26   13   27 2   
    27   14   15 1   
    28   14   16 1   
    29   14   43 1   
    30   14   61 1   
    31   15   17 1   
    32   15   44 1   
    33   15   45 1   
    34   16   18 1   
    35   16   46 1   
    36   16   47 1   
    37   17   20 1   
    38   17   48 1   
    39   17   49 1   
    40   18   20 1   
    41   18   50 1   
    42   18   51 1   
    43   19   29 1   
    44   19   30 1   
    45   19   53 1   
    46   19   54 1   
    47   20   52 1   
    48   20   60 1   
    49   21   25 1   
    50   21   55 1   
    51   21   56 1   
    52   21   57 1   
    53   22   25 1   
    54   22   37 1   
    55   22   38 1   
    56   23   25 1   
    57   23   39 1   
    58   23   40 1   
    59   24   41 1   
    60   24   60 1   
    61   25   58 1   
    62   26   42 1   
    63   26   59 1   
    64   28   59 2   
    65   60   62 1   
    66   60   63 1   
@<TRIPOS>SUBSTRUCTURE
     1 OM3         1 TEMP              0 ****  ****    0 ROOT
