@<TRIPOS>MOLECULE
OM3
   63    51     1     0     0
SMALL
bcc


@<TRIPOS>ATOM
      1 C1         -1.5500   -0.2300   -3.7360 c1        1 OM3     -0.107000
      2 C2         -0.1750   -0.3940   -3.6690 c1        1 OM3     -0.107000
      3 C3         -2.2920   -0.0710   -2.5630 c1        1 OM3     -0.107000
      4 C4          0.4690   -0.4010   -2.4290 c1        1 OM3     -0.107000
      5 C5          2.9770   -3.4390    0.2730 c1        1 OM3     -0.107000
      6 C6          3.7730   -4.5800    0.2140 c1        1 OM3     -0.107000
      7 C7         -1.6510   -0.0790   -1.3270 c1        1 OM3     -0.081000
      8 C8          4.7670   -2.1380   -0.7000 c1        1 OM3     -0.012750
      9 C9         -0.2680   -0.2440   -1.2600 c1        1 OM3     -0.117000
     10 C10         3.4730   -2.2160   -0.1840 c1        1 OM3     -0.012750
     11 C11         5.0760   -4.5030   -0.3050 c1        1 OM3     -0.012750
     12 C12         5.5700   -3.2880   -0.7600 c1        1 OM3     -0.012750
     13 C13        -2.2880    0.9330   -0.5520 c1        1 OM3      0.354500
     14 C14         5.3070   -0.8820   -1.0490 c1        1 OM3      0.354500
     15 C15        -5.7040    4.4310    2.6930 c3        1 OM3     -0.158000
     16 C16        -5.1870    3.2780    3.5250 c3        1 OM3     -0.156000
     17 C17        -5.5150    4.2030    1.2060 c3        1 OM3     -0.156000
     18 C18        -3.7620    2.9030    3.1740 c3        1 OM3     -0.151500
     19 C19        -4.0890    3.8290    0.8540 c3        1 OM3     -0.151500
     20 C20         7.2110   -4.8580   -1.0480 c3        1 OM3      0.093000
     21 C21        -3.5720    2.6750    1.6870 c3        1 OM3     -0.120000
     22 C22         0.7900   -2.4630   -0.7380 c3        1 OM3     -0.196000
     23 C23         0.4330   -0.3310    0.1090 c3        1 OM3     -0.070000
     24 C24         2.6100   -1.1010   -0.2780 c1        1 OM3     -0.101000
     25 C25        -2.0740    2.4880    1.4000 c3        1 OM3     -0.032000
     26 N26        -1.8550    1.1860    0.8010 n2        1 OM3     -0.344000
     27 N27         1.2920   -1.4800    0.1350 n3        1 OM3      0.008000
     28 O28         5.4790   -0.5820   -2.2680 o         1 OM3     -0.351000
     29 O29        -3.2430    1.5360   -1.0080 o         1 OM3     -0.351000
     30 O30         6.0770   -0.4030   -0.1640 os        1 OM3     -0.408000
     31 O31         6.0840   -5.4930   -0.5100 o         1 OM3     -0.184000
     32 O32         6.9000   -3.5030   -1.2320 o         1 OM3     -0.184000
     33 H1         -2.0000   -0.2250   -4.6040 ha        1 OM3      0.159667
     34 H2          0.3440   -0.5050   -4.4910 ha        1 OM3      0.159667
     35 H3         -3.2620    0.0440   -2.6100 ha        1 OM3      0.159667
     36 H4          1.4390   -0.5170   -2.3830 ha        1 OM3      0.159667
     37 H5          2.0710   -3.4940    0.6350 ha        1 OM3      0.159667
     38 H6          3.4250   -5.4360    0.5350 ha        1 OM3      0.159667
     39 H231        0.9660    0.4800    0.2560 h1        1 OM3      0.149000
     40 H232       -0.2420   -0.4110    0.8160 h1        1 OM3      0.149000
     41 H241        2.9410   -0.3830    0.3010 ha        1 OM3      0.166500
     42 H242        2.5840   -0.7870   -1.2040 ha        1 OM3      0.166500
     43 H26        -1.5250    0.5050    1.3060 hn        1 OM3      0.249000
     44 H28         5.8240    0.2210   -2.4900 DU        1 OM3      0.262000
     45 H151       -5.2300    5.2440    2.9510 hc        1 OM3      0.087000
     46 H152       -6.6570    4.5500    2.8760 hc        1 OM3      0.087000
     47 H161       -5.2250    3.5290    4.4730 hc        1 OM3      0.087500
     48 H162       -5.7650    2.4990    3.3800 hc        1 OM3      0.087500
     49 H171       -5.7550    5.0240    0.7260 hc        1 OM3      0.087500
     50 H172       -6.1090    3.4850    0.9190 hc        1 OM3      0.087500
     51 H181       -3.1640    3.6260    3.4630 hc        1 OM3      0.079500
     52 H182       -3.5240    2.0880    3.6510 hc        1 OM3      0.079500
     53 H191       -3.5120    4.6080    0.9990 hc        1 OM3      0.079500
     54 H192       -4.0520    3.5800   -0.0880 hc        1 OM3      0.079500
     55 H21        -4.0460    1.8620    1.4290 hc        1 OM3      0.101000
     56 H201        7.9670   -4.9430   -0.4290 h2        1 OM3      0.140000
     57 H202        7.4410   -5.2650   -1.9110 h2        1 OM3      0.140000
     58 H251       -1.5690    2.5500    2.2430 h1        1 OM3      0.092000
     59 H252       -1.7710    3.1840    0.7870 h1        1 OM3      0.092000
     60 H221       -0.1110   -2.7230   -0.4540 h1        1 OM3      0.151000
     61 H222        0.7540   -2.1040   -1.6440 h1        1 OM3      0.151000
     62 H223        1.3770   -3.2450   -0.7210 h1        1 OM3      0.151000
     63 H227        1.3250   -1.8190    0.9910 hn        1 OM3      0.236000
@<TRIPOS>BOND
     1    1    3 1   
     2    1   33 1   
     3    2    4 1   
     4    2   34 1   
     5    3   35 1   
     6    4   36 1   
     7    5    6 1   
     8    5   37 1   
     9    6   38 1   
    10    7    9 1   
    11    8   10 1   
    12    9   23 1   
    13   11   12 1   
    14   13   29 1   
    15   14   28 1   
    16   15   16 1   
    17   15   17 1   
    18   15   45 1   
    19   15   46 1   
    20   16   18 1   
    21   16   47 1   
    22   16   48 1   
    23   17   19 1   
    24   17   49 1   
    25   17   50 1   
    26   18   21 1   
    27   18   51 1   
    28   18   52 1   
    29   19   21 1   
    30   19   53 1   
    31   19   54 1   
    32   20   31 1   
    33   20   32 1   
    34   20   56 1   
    35   20   57 1   
    36   21   25 1   
    37   21   55 1   
    38   22   27 1   
    39   22   60 1   
    40   22   61 1   
    41   22   62 1   
    42   23   27 1   
    43   23   39 1   
    44   23   40 1   
    45   24   41 1   
    46   24   42 1   
    47   25   26 1   
    48   25   58 1   
    49   25   59 1   
    50   26   43 1   
    51   27   63 1   
@<TRIPOS>SUBSTRUCTURE
     1 OM3         1 TEMP              0 ****  ****    0 ROOT
