@<TRIPOS>MOLECULE
OMA
   54    54     1     0     0
SMALL
bcc


@<TRIPOS>ATOM
      1 O1          0.2080    0.2370   -1.0790 o         1 OMA     -0.853800
      2 C18         1.3380   -0.2940   -0.8720 c         1 OMA      0.907600
      3 O           1.7240   -0.7090    0.2590 o         1 OMA     -0.853800
      4 C17         2.2810   -0.4610   -2.0770 c3        1 OMA     -0.193400
      5 C16         3.6860   -0.0240   -1.7390 c3        1 OMA     -0.065400
      6 C15         4.6620   -0.3510   -2.8500 c3        1 OMA     -0.078400
      7 C14         6.0640    0.1070   -2.5090 c3        1 OMA     -0.078400
      8 C13         7.0420   -0.2250   -3.6160 c3        1 OMA     -0.078400
      9 C12         8.4420    0.2370   -3.2730 c3        1 OMA     -0.079400
     10 C11         9.4190   -0.0930   -4.3820 c3        1 OMA     -0.079400
     11 C10        10.8180    0.3730   -4.0400 c3        1 OMA     -0.076400
     12 C9         11.7930    0.0370   -5.1500 c3        1 OMA     -0.053400
     13 C8         13.1740    0.5170   -4.8320 cx        1 OMA     -0.109700
     14 C7         13.7570    1.6970   -5.5590 cx        1 OMA     -0.132400
     15 C6         14.3150    0.3220   -5.8060 cx        1 OMA     -0.123700
     16 C5         14.1190   -0.3250   -7.1390 c3        1 OMA     -0.022200
     17 C4         14.4990   -1.7590   -7.1410 c2        1 OMA     -0.164200
     18 C3         14.5760   -2.5040   -8.2490 c2        1 OMA     -0.181200
     19 C2         14.3040   -1.9860   -9.6110 c3        1 OMA     -0.048200
     20 C1         14.3570   -3.0750  -10.6630 c3        1 OMA     -0.078400
     21 C          14.0740   -2.5260  -12.0370 c3        1 OMA     -0.093100
     22 H2          2.2760   -1.5420   -2.3680 hc        1 OMA      0.018700
     23 H3          1.8870    0.1300   -2.9410 hc        1 OMA      0.018700
     24 H4          4.0000   -0.5300   -0.7870 hc        1 OMA      0.043700
     25 H5          3.6970    1.0800   -1.5440 hc        1 OMA      0.043700
     26 H6          4.6640   -1.4580   -3.0330 hc        1 OMA      0.025700
     27 H7          4.3280    0.1390   -3.8010 hc        1 OMA      0.025700
     28 H8          6.0620    1.2140   -2.3280 hc        1 OMA      0.036700
     29 H9          6.3950   -0.3820   -1.5550 hc        1 OMA      0.036700
     30 H10         6.7080    0.2620   -4.5700 hc        1 OMA      0.034200
     31 H11         7.0440   -1.3320   -3.7950 hc        1 OMA      0.034200
     32 H12         8.4380    1.3440   -3.0920 hc        1 OMA      0.038200
     33 H13         8.7750   -0.2520   -2.3200 hc        1 OMA      0.038200
     34 H14         9.0820    0.3940   -5.3350 hc        1 OMA      0.037200
     35 H15         9.4240   -1.2000   -4.5610 hc        1 OMA      0.037200
     36 H16        11.1510   -0.1110   -3.0840 hc        1 OMA      0.039700
     37 H17        10.8130    1.4810   -3.8650 hc        1 OMA      0.039700
     38 H18        11.4320    0.4950   -6.1100 hc        1 OMA      0.042700
     39 H19        11.8180   -1.0750   -5.3020 hc        1 OMA      0.042700
     40 H20        13.4190    0.4080   -3.7550 hc        1 OMA      0.076700
     41 H21        14.3640    2.4280   -4.9970 hc        1 OMA      0.068200
     42 H22        13.1620    2.1790   -6.3550 hc        1 OMA      0.068200
     43 H23        15.3070    0.0860   -5.3680 hc        1 OMA      0.073700
     44 H24        13.0460   -0.2300   -7.4650 hc        1 OMA      0.051700
     45 H25        14.7380    0.2270   -7.9020 hc        1 OMA      0.051700
     46 H26        14.7110   -2.2030   -6.1550 ha        1 OMA      0.125000
     47 H27        14.8550   -3.5680   -8.1850 ha        1 OMA      0.120000
     48 H28        13.2910   -1.4950   -9.6300 hc        1 OMA      0.046700
     49 H29        15.0530   -1.1850   -9.8620 hc        1 OMA      0.046700
     50 H30        15.3700   -3.5570  -10.6500 hc        1 OMA      0.039700
     51 H31        13.6080   -3.8720  -10.4130 hc        1 OMA      0.039700
     52 H32        14.8230   -1.7460  -12.3130 hc        1 OMA      0.032033
     53 H33        13.0580   -2.0630  -12.0750 hc        1 OMA      0.032033
     54 H34        14.1180   -3.3420  -12.7980 hc        1 OMA      0.032033
@<TRIPOS>BOND
     1    1    2 1   
     2    2    3 1   
     3    2    4 1   
     4    4    5 1   
     5    4   22 1   
     6    4   23 1   
     7    5    6 1   
     8    5   24 1   
     9    5   25 1   
    10    6    7 1   
    11    6   26 1   
    12    6   27 1   
    13    7    8 1   
    14    7   28 1   
    15    7   29 1   
    16    8    9 1   
    17    8   30 1   
    18    8   31 1   
    19    9   10 1   
    20    9   32 1   
    21    9   33 1   
    22   10   11 1   
    23   10   34 1   
    24   10   35 1   
    25   11   12 1   
    26   11   36 1   
    27   11   37 1   
    28   12   13 1   
    29   12   38 1   
    30   12   39 1   
    31   13   14 1   
    32   13   15 1   
    33   13   40 1   
    34   14   15 1   
    35   14   41 1   
    36   14   42 1   
    37   15   16 1   
    38   15   43 1   
    39   16   17 1   
    40   16   44 1   
    41   16   45 1   
    42   17   18 2   
    43   17   46 1   
    44   18   19 1   
    45   18   47 1   
    46   19   20 1   
    47   19   48 1   
    48   19   49 1   
    49   20   21 1   
    50   20   50 1   
    51   20   51 1   
    52   21   52 1   
    53   21   53 1   
    54   21   54 1   
@<TRIPOS>SUBSTRUCTURE
     1 OMA         1 TEMP              0 ****  ****    0 ROOT
