@<TRIPOS>MOLECULE
OMB
    4     3     1     0     0
SMALL
bcc


@<TRIPOS>ATOM
      1 O          -1.2190   -0.1990   -0.1150 o         1 OMB     -0.515100
      2 C           0.1890   -0.1990   -0.1150 c         1 OMB      0.562700
      3 HC1         0.5150   -0.1990    0.8050 h4        1 OMB     -0.023800
      4 HC2         0.5150    0.5980   -0.5760 h4        1 OMB     -0.023800
@<TRIPOS>BOND
     1    1    2 2   
     2    2    3 1   
     3    2    4 1   
@<TRIPOS>SUBSTRUCTURE
     1 OMB         1 TEMP              0 ****  ****    0 ROOT
