@<TRIPOS>MOLECULE
OMB
    4     3     1     0     0
SMALL
bcc


@<TRIPOS>ATOM
      1 O           0.0360   -0.0460   -0.6180 o         1 OMB     -0.515100
      2 C           0.1270    0.2250    0.5750 c         1 OMB      0.562700
      3 HC1         0.9830   -0.1150    1.1960 h4        1 OMB     -0.023800
      4 HC2        -0.6410    0.8260    1.1060 h4        1 OMB     -0.023800
@<TRIPOS>BOND
     1    1    2 2   
     2    2    3 1   
     3    2    4 1   
@<TRIPOS>SUBSTRUCTURE
     1 OMB         1 TEMP              0 ****  ****    0 ROOT
