@<TRIPOS>MOLECULE
OMB
    4     3     1     0     0
SMALL
bcc


@<TRIPOS>ATOM
      1 O           0.0820    0.0700   -0.0400 o         1 OMB     -0.515100
      2 C           1.2620   -0.2240    0.1290 c         1 OMB      0.562700
      3 HC1         1.8310    0.1050    1.0240 h4        1 OMB     -0.023800
      4 HC2         1.8310   -0.8350   -0.6030 h4        1 OMB     -0.023800
@<TRIPOS>BOND
     1    1    2 2   
     2    2    3 1   
     3    2    4 1   
@<TRIPOS>SUBSTRUCTURE
     1 OMB         1 TEMP              0 ****  ****    0 ROOT
