@<TRIPOS>MOLECULE
OMC
   36    37     1     0     0
SMALL
bcc


@<TRIPOS>ATOM
      1 N1          0.1740   -0.1820   -2.4880 n         1 OMC     -0.372000
      2 C2          0.0550   -0.1750   -3.9220 c         1 OMC      0.821900
      3 N3         -1.1630    0.1490   -4.5390 nc        1 OMC     -0.765100
      4 C4         -2.2280    0.4040   -3.7550 cd        1 OMC      0.706500
      5 C5         -2.1430    0.4050   -2.3160 cd        1 OMC     -0.459600
      6 C6         -0.9290    0.1020   -1.7260 cc        1 OMC      0.085600
      7 O2          1.0680   -0.4340   -4.6180 o         1 OMC     -0.683500
      8 N4         -3.4800    0.6390   -4.3490 nh        1 OMC     -0.897800
      9 C1'         1.4580   -0.5480   -1.8760 c3        1 OMC      0.290500
     10 C2'         2.0160    0.5690   -0.9350 c3        1 OMC      0.102100
     11 O2'         3.4100    0.6380   -1.2370 os        1 OMC     -0.419600
     12 CM2         4.0400    1.7820   -0.6890 c3        1 OMC      0.124700
     13 C3'         1.6640    0.0590    0.4710 c3        1 OMC      0.088100
     14 C4'         1.4220   -1.4550    0.3150 c3        1 OMC      0.067100
     15 O4'         1.3420   -1.7390   -1.1030 os        1 OMC     -0.432600
     16 O3'         2.6660    0.3340    1.4190 oh        1 OMC     -0.650800
     17 C5'         0.1200   -1.9600    0.9870 c3        1 OMC      0.223400
     18 O5'         0.0060   -1.5730    2.2920 os        1 OMC     -0.570200
     19 P          -0.8860   -0.1300    2.6480 p5        1 OMC      1.340900
     20 OP1        -1.4260    0.2270    1.2750 o         1 OMC     -0.925167
     21 OP2        -1.8720   -0.5190    3.7000 o         1 OMC     -0.925167
     22 OP3         0.2970    0.7380    3.0050 o         1 OMC     -0.925167
     23 H5         -3.0060    0.6150   -1.6750 ha        1 OMC      0.170000
     24 H6         -0.8510    0.1010   -0.5880 h4        1 OMC      0.303000
     25 HN41       -3.4670    0.9020   -5.3080 hn        1 OMC      0.390300
     26 HN42       -4.0850    1.1910   -3.7840 hn        1 OMC      0.390300
     27 H1'         2.1840   -0.7870   -2.7090 h2        1 OMC      0.113700
     28 H2'         1.5480    1.5700   -1.1210 h1        1 OMC      0.049700
     29 HM21        5.1250    1.6400   -0.9240 h1        1 OMC      0.026367
     30 HM22        3.6580    2.7090   -1.1880 h1        1 OMC      0.026367
     31 HM23        3.8780    1.8450    0.4150 h1        1 OMC      0.026367
     32 H3'         0.6860    0.5450    0.8120 h1        1 OMC      0.147700
     33 H4'         2.3070   -2.0330    0.6890 h1        1 OMC      0.049700
     34 HO3'        2.1760    0.4690    2.2640 ho        1 OMC      0.486000
     35 H5'        -0.7620   -1.6190    0.3760 h1        1 OMC     -0.002300
     36 H5''        0.1640   -3.0890    0.9440 h1        1 OMC     -0.002300
@<TRIPOS>BOND
     1    1    2 1   
     2    1    6 1   
     3    1    9 1   
     4    2    3 1   
     5    2    7 2   
     6    3    4 2   
     7    4    5 1   
     8    4    8 1   
     9    5    6 2   
    10    5   23 1   
    11    6   24 1   
    12    8   25 1   
    13    8   26 1   
    14    9   10 1   
    15    9   15 1   
    16    9   27 1   
    17   10   11 1   
    18   10   13 1   
    19   10   28 1   
    20   11   12 1   
    21   12   29 1   
    22   12   30 1   
    23   12   31 1   
    24   13   14 1   
    25   13   16 1   
    26   13   32 1   
    27   14   15 1   
    28   14   17 1   
    29   14   33 1   
    30   16   34 1   
    31   17   18 1   
    32   17   35 1   
    33   17   36 1   
    34   18   19 1   
    35   19   20 1   
    36   19   21 1   
    37   19   22 1   
@<TRIPOS>SUBSTRUCTURE
     1 OMC         1 TEMP              0 ****  ****    0 ROOT
