@<TRIPOS>MOLECULE
OMD
   19    16     1     0     0
SMALL
bcc


@<TRIPOS>ATOM
      1 C1         -1.4120    0.9730   -2.1940 c1        1 OMD      0.339000
      2 C2         -0.5410   -0.2340   -1.9210 c2        1 OMD     -0.216000
      3 C1'        -0.0610   -0.1960   -0.4860 c2        1 OMD     -0.048000
      4 C2'        -0.8320   -0.7600    0.5170 c2        1 OMD     -0.183000
      5 C3'        -0.3790   -0.7530    1.8270 c1        1 OMD      0.019000
      6 O3'        -1.1400   -1.3670    2.8390 o         1 OMD     -0.277000
      7 C4'         0.8460   -0.1810    2.1330 c2        1 OMD     -0.153000
      8 C5'         1.6170    0.3840    1.1290 c1        1 OMD     -0.155000
      9 C6'         1.1640    0.3760   -0.1810 c1        1 OMD      0.080000
     10 O6'         1.9620    0.9170   -1.2050 oh        1 OMD     -0.306000
     11 O1         -2.6550    0.8320   -2.3390 o         1 OMD     -0.569000
     12 O2         -0.8900    2.1130   -2.3100 o         1 OMD     -0.569000
     13 H21         0.2290   -0.2230   -2.5230 ha        1 OMD      0.081000
     14 H22        -1.0590   -1.0500   -2.0700 ha        1 OMD      0.081000
     15 H2'        -1.6940   -1.1660    0.3020 ha        1 OMD      0.130000
     16 HO3        -1.5340   -0.7420    3.3340 ho        1 OMD      0.205000
     17 H4'         1.1670   -0.1780    3.0550 ha        1 OMD      0.127000
     18 H5'         2.4800    0.7870    1.3440 ha        1 OMD      0.131000
     19 HO6         2.7290    0.4690   -1.2510 ho        1 OMD      0.285000
@<TRIPOS>BOND
     1    1   11 1   
     2    1   12 1   
     3    2    3 1   
     4    2   13 1   
     5    2   14 1   
     6    3    4 1   
     7    3    9 1   
     8    4    5 1   
     9    4   15 1   
    10    5    7 1   
    11    6   16 1   
    12    7    8 1   
    13    7   17 1   
    14    8   18 1   
    15    9   10 1   
    16   10   19 1   
@<TRIPOS>SUBSTRUCTURE
     1 OMD         1 TEMP              0 ****  ****    0 ROOT
