@<TRIPOS>MOLECULE
OMD
   19    19     1     0     0
SMALL
bcc


@<TRIPOS>ATOM
      1 C1          0.0090    0.3670   -0.0120 c         1 OMD      0.919600
      2 C2          1.4550   -0.1660    0.1220 c3        1 OMD     -0.180100
      3 C1'         1.9910   -0.0650    1.4990 ca        1 OMD     -0.055300
      4 C2'         2.1550   -1.2140    2.2750 ca        1 OMD     -0.183000
      5 C3'         2.7080   -1.1290    3.5590 ca        1 OMD      0.064100
      6 O3'         2.8990   -2.2490    4.3520 oh        1 OMD     -0.523100
      7 C4'         3.1110    0.0990    4.0940 ca        1 OMD     -0.153000
      8 C5'         2.9360    1.2530    3.3370 ca        1 OMD     -0.155000
      9 C6'         2.3710    1.1800    2.0540 ca        1 OMD      0.125100
     10 O6'         2.2600    2.3640    1.3720 oh        1 OMD     -0.552100
     11 O1         -0.9160   -0.4650   -0.1980 o         1 OMD     -0.834300
     12 O2         -0.1550    1.6250    0.0310 o         1 OMD     -0.834300
     13 H21         1.4680   -1.2320   -0.2210 hc        1 OMD      0.041700
     14 H22         2.1020    0.4350   -0.5700 hc        1 OMD      0.041700
     15 H2'         1.8390   -2.1880    1.8740 ha        1 OMD      0.130000
     16 HO3         2.4530   -2.9860    3.9140 ho        1 OMD      0.406000
     17 H4'         3.5500    0.1420    5.0990 ha        1 OMD      0.127000
     18 H5'         3.2320    2.2330    3.7360 ha        1 OMD      0.131000
     19 HO6         1.5080    2.2870    0.7400 ho        1 OMD      0.486000
@<TRIPOS>BOND
     1    1    2 1   
     2    1   11 1   
     3    1   12 1   
     4    2    3 1   
     5    2   13 1   
     6    2   14 1   
     7    3    4 ar  
     8    3    9 ar  
     9    4    5 ar  
    10    4   15 1   
    11    5    6 1   
    12    5    7 ar  
    13    6   16 1   
    14    7    8 ar  
    15    7   17 1   
    16    8    9 ar  
    17    8   18 1   
    18    9   10 1   
    19   10   19 1   
@<TRIPOS>SUBSTRUCTURE
     1 OMD         1 TEMP              0 ****  ****    0 ROOT
