@<TRIPOS>MOLECULE
OMD
   19    19     1     0     0
SMALL
bcc


@<TRIPOS>ATOM
      1 C1          0.3990    0.0210    2.3650 c         1 OMD      0.919600
      2 C2          0.3140   -1.0870    1.2880 c3        1 OMD     -0.180100
      3 C1'        -0.0450   -0.5720   -0.0540 ca        1 OMD     -0.055300
      4 C2'         0.9150   -0.5240   -1.0670 ca        1 OMD     -0.183000
      5 C3'         0.5680   -0.0840   -2.3510 ca        1 OMD      0.064100
      6 O3'         1.4900   -0.0360   -3.3850 oh        1 OMD     -0.523100
      7 C4'        -0.7400    0.3100   -2.6530 ca        1 OMD     -0.153000
      8 C5'        -1.7000    0.2830   -1.6470 ca        1 OMD     -0.155000
      9 C6'        -1.3600   -0.1430   -0.3530 ca        1 OMD      0.125100
     10 O6'        -2.3760   -0.1610    0.5670 oh        1 OMD     -0.552100
     11 O1          1.5350    0.3350    2.8040 o         1 OMD     -0.834300
     12 O2         -0.6920    0.5210    2.7740 o         1 OMD     -0.834300
     13 H21         1.3010   -1.6140    1.2490 hc        1 OMD      0.041700
     14 H22        -0.4660   -1.8220    1.6210 hc        1 OMD      0.041700
     15 H2'         1.9500   -0.8250   -0.8480 ha        1 OMD      0.130000
     16 HO3         2.3590   -0.2000   -2.9960 ho        1 OMD      0.406000
     17 H4'        -0.9920    0.6430   -3.6680 ha        1 OMD      0.127000
     18 H5'        -2.7320    0.5980   -1.8510 ha        1 OMD      0.131000
     19 HO6        -1.9840   -0.0410    1.4620 ho        1 OMD      0.486000
@<TRIPOS>BOND
     1    1    2 1   
     2    1   11 1   
     3    1   12 1   
     4    2    3 1   
     5    2   13 1   
     6    2   14 1   
     7    3    4 ar  
     8    3    9 ar  
     9    4    5 ar  
    10    4   15 1   
    11    5    6 1   
    12    5    7 ar  
    13    6   16 1   
    14    7    8 ar  
    15    7   17 1   
    16    8    9 ar  
    17    8   18 1   
    18    9   10 1   
    19   10   19 1   
@<TRIPOS>SUBSTRUCTURE
     1 OMD         1 TEMP              0 ****  ****    0 ROOT
