@<TRIPOS>MOLECULE
OMD
   19    19     1     0     0
SMALL
bcc


@<TRIPOS>ATOM
      1 C1         -0.0000    0.1970   -0.0260 c         1 OMD      0.919600
      2 C2          1.4650   -0.2740    0.1340 c3        1 OMD     -0.180100
      3 C1'         1.9940   -0.0850    1.5040 ca        1 OMD     -0.055300
      4 C2'         2.2010   -1.1880    2.3340 ca        1 OMD     -0.183000
      5 C3'         2.7480   -1.0190    3.6130 ca        1 OMD      0.064100
      6 O3'         2.9810   -2.0910    4.4600 oh        1 OMD     -0.523100
      7 C4'         3.1050    0.2480    4.0870 ca        1 OMD     -0.153000
      8 C5'         2.8870    1.3560    3.2740 ca        1 OMD     -0.155000
      9 C6'         2.3260    1.1990    1.9970 ca        1 OMD      0.125100
     10 O6'         2.1710    2.3430    1.2570 oh        1 OMD     -0.552100
     11 O1         -0.8930   -0.6770   -0.1700 o         1 OMD     -0.834300
     12 O2         -0.2110    1.4480   -0.0450 o         1 OMD     -0.834300
     13 H21         1.5180   -1.3540   -0.1570 hc        1 OMD      0.041700
     14 H22         2.0900    0.3160   -0.5880 hc        1 OMD      0.041700
     15 H2'         1.9220   -2.1920    1.9820 ha        1 OMD      0.130000
     16 HO3         2.5630   -2.8650    4.0590 ho        1 OMD      0.406000
     17 H4'         3.5400    0.3570    5.0880 ha        1 OMD      0.127000
     18 H5'         3.1450    2.3650    3.6240 ha        1 OMD      0.131000
     19 HO6         1.4250    2.2070    0.6300 ho        1 OMD      0.486000
@<TRIPOS>BOND
     1    1    2 1   
     2    1   11 1   
     3    1   12 1   
     4    2    3 1   
     5    2   13 1   
     6    2   14 1   
     7    3    4 ar  
     8    3    9 ar  
     9    4    5 ar  
    10    4   15 1   
    11    5    6 1   
    12    5    7 ar  
    13    6   16 1   
    14    7    8 ar  
    15    7   17 1   
    16    8    9 ar  
    17    8   18 1   
    18    9   10 1   
    19   10   19 1   
@<TRIPOS>SUBSTRUCTURE
     1 OMD         1 TEMP              0 ****  ****    0 ROOT
