@<TRIPOS>MOLECULE
OMG
   39    41     1     0     0
SMALL
bcc


@<TRIPOS>ATOM
      1 P          -0.1450    0.8030    4.6790 p5        1 OMG      1.332900
      2 OP1        -1.2970    1.6580    4.2380 o         1 OMG     -0.929500
      3 OP2        -0.0860    0.3550    6.1050 o         1 OMG     -0.929500
      4 OP3         1.1720    1.1650    4.0160 o         1 OMG     -0.929500
      5 O5'        -0.4550   -0.6710    3.7930 os        1 OMG     -0.553200
      6 C5'        -0.6230   -0.4830    2.4510 c3        1 OMG      0.226400
      7 C4'         0.6630   -0.8770    1.6810 c3        1 OMG      0.056100
      8 O4'         0.3110   -1.4700    0.4030 os        1 OMG     -0.427600
      9 C3'         1.6080    0.3090    1.4170 c3        1 OMG      0.132100
     10 O3'         2.8300    0.1410    2.0940 oh        1 OMG     -0.663800
     11 C2'         1.8250    0.3440   -0.1110 c3        1 OMG      0.098100
     12 O2'         3.1070   -0.0770   -0.5700 os        1 OMG     -0.419600
     13 CM2         4.1240    0.8850   -0.3430 c3        1 OMG      0.124700
     14 C1'         0.8350   -0.7270   -0.6770 c3        1 OMG      0.246800
     15 N9         -0.2660   -0.1410   -1.4430 na        1 OMG     -0.183900
     16 C8         -1.4660    0.4080   -0.9450 cc        1 OMG      0.449400
     17 N7         -2.3170    0.8050   -1.9190 nd        1 OMG     -0.629000
     18 C5         -1.6630    0.4980   -3.1110 cd        1 OMG      0.193800
     19 C6         -2.0670    0.6940   -4.4860 c         1 OMG      0.645000
     20 O6         -3.1170    1.1930   -4.9300 o         1 OMG     -0.643500
     21 N1         -1.1210    0.2370   -5.4400 n         1 OMG     -0.498400
     22 C2          0.1170   -0.3270   -5.0690 cd        1 OMG      0.595800
     23 N2          1.0030   -0.6620   -6.1560 nh        1 OMG     -0.866800
     24 N3          0.5140   -0.5360   -3.8050 nc        1 OMG     -0.616100
     25 C4         -0.3770   -0.1030   -2.8330 cc        1 OMG      0.058800
     26 H5'        -0.8920    0.5880    2.2210 h1        1 OMG     -0.003300
     27 H5''       -1.4480   -1.1560    2.0700 h1        1 OMG     -0.003300
     28 H4'         1.1980   -1.6910    2.2400 h1        1 OMG      0.084700
     29 H3'         1.1280    1.2740    1.7540 h1        1 OMG      0.118700
     30 HO3'        2.6370    0.4010    3.0270 ho        1 OMG      0.501000
     31 H2'         1.6170    1.3730   -0.5070 h1        1 OMG      0.044700
     32 HM21        5.0670    0.3640   -0.6420 h1        1 OMG      0.030033
     33 HM22        3.9540    1.7810   -0.9920 h1        1 OMG      0.030033
     34 HM23        4.1620    1.1870    0.7330 h1        1 OMG      0.030033
     35 H1'         1.3690   -1.4540   -1.3580 h2        1 OMG      0.093700
     36 H8         -1.6420    0.4740    0.1450 h5        1 OMG      0.118100
     37 HN1        -1.3150    0.4080   -6.4010 hn        1 OMG      0.322500
     38 HN21        1.9270   -0.8600   -5.8190 hn        1 OMG      0.382800
     39 HN22        0.6460   -1.4460   -6.6660 hn        1 OMG      0.382800
@<TRIPOS>BOND
     1    1    2 1   
     2    1    3 1   
     3    1    4 1   
     4    1    5 1   
     5    5    6 1   
     6    6    7 1   
     7    6   26 1   
     8    6   27 1   
     9    7    8 1   
    10    7    9 1   
    11    7   28 1   
    12    8   14 1   
    13    9   10 1   
    14    9   11 1   
    15    9   29 1   
    16   10   30 1   
    17   11   12 1   
    18   11   14 1   
    19   11   31 1   
    20   12   13 1   
    21   13   32 1   
    22   13   33 1   
    23   13   34 1   
    24   14   15 1   
    25   14   35 1   
    26   15   16 1   
    27   15   25 1   
    28   16   17 2   
    29   16   36 1   
    30   17   18 1   
    31   18   19 1   
    32   18   25 2   
    33   19   20 2   
    34   19   21 1   
    35   21   22 1   
    36   21   37 1   
    37   22   23 1   
    38   22   24 2   
    39   23   38 1   
    40   23   39 1   
    41   24   25 1   
@<TRIPOS>SUBSTRUCTURE
     1 OMG         1 TEMP              0 ****  ****    0 ROOT
