@<TRIPOS>MOLECULE
OMH
   20    19     1     0     0
SMALL
bcc


@<TRIPOS>ATOM
      1 O           3.4540    1.1180    0.0320 o         1 OMH     -0.862300
      2 C           2.8110    0.5290   -0.8870 c         1 OMH      0.913600
      3 CA          1.9250   -0.7010   -0.5190 c3        1 OMH      0.040500
      4 N           2.5530   -1.5580    0.4720 n3        1 OMH     -0.901800
      5 CB          0.5280   -0.1820   -0.1240 c3        1 OMH      0.146400
      6 OG         -0.3110   -1.2680    0.1940 os        1 OMH     -0.579200
      7 P          -1.7920   -0.8540    0.7250 p5        1 OMH      1.418800
      8 O3         -1.7210    0.2430    1.7160 o         1 OMH     -0.849000
      9 O2         -2.5750   -2.0870    0.9630 o         1 OMH     -0.849000
     10 O1         -2.3900   -0.1740   -0.6740 os        1 OMH     -0.566200
     11 C31        -3.6260    0.4170   -0.4560 c3        1 OMH      0.172700
     12 OXT         2.8570    0.8790   -2.1010 o         1 OMH     -0.862300
     13 HA          1.7980   -1.3280   -1.4480 h1        1 OMH      0.046700
     14 H           3.0660   -0.9810    1.1160 hn        1 OMH      0.331800
     15 H2          1.8360   -2.0350    0.9890 hn        1 OMH      0.331800
     16 HB          0.5830    0.4980    0.7690 h1        1 OMH      0.035700
     17 HBA         0.0760    0.3750   -0.9880 h1        1 OMH      0.035700
     18 H31        -4.3620   -0.3620   -0.1210 h1        1 OMH     -0.000967
     19 H31A       -3.5360    1.2040    0.3390 h1        1 OMH     -0.000967
     20 H31B       -3.9740    0.8790   -1.4150 h1        1 OMH     -0.000967
@<TRIPOS>BOND
     1    1    2 1   
     2    2    3 1   
     3    2   12 1   
     4    3    4 1   
     5    3    5 1   
     6    3   13 1   
     7    4   14 1   
     8    4   15 1   
     9    5    6 1   
    10    5   16 1   
    11    5   17 1   
    12    6    7 1   
    13    7    8 1   
    14    7    9 1   
    15    7   10 1   
    16   10   11 1   
    17   11   18 1   
    18   11   19 1   
    19   11   20 1   
@<TRIPOS>SUBSTRUCTURE
     1 OMH         1 TEMP              0 ****  ****    0 ROOT
