@<TRIPOS>MOLECULE
OMK
   61    55     1     0     0
SMALL
bcc


@<TRIPOS>ATOM
      1 N1          0.3520   -0.2790    1.5200 n2        1 OMK     -0.146500
      2 C2          1.2950   -1.2490    1.6610 c2        1 OMK      0.055000
      3 N3          1.8180   -1.1490    2.9120 n2        1 OMK     -0.146500
      4 C4          0.2930    0.4200    2.6810 c1        1 OMK     -0.040500
      5 C5          1.2020   -0.1190    3.5430 c1        1 OMK     -0.040500
      6 C6          0.1010    0.9450   -0.5190 c1        1 OMK      0.302000
      7 C7         -0.3220   -0.2710    0.2770 c1        1 OMK      0.021000
      8 C8         -0.4950    1.5170    3.0830 c1        1 OMK     -0.116000
      9 N9          0.4080    0.8170   -1.9090 n3        1 OMK     -0.316000
     10 C10         1.3530    0.4210    4.8360 c1        1 OMK     -0.116000
     11 C11        -0.3450    2.0480    4.3530 c1        1 OMK      0.058000
     12 C12         2.1280   -2.3470    1.4720 c1        1 OMK     -0.035000
     13 C13         0.5790    1.4990    5.2310 c1        1 OMK      0.058000
     14 C14         0.8860    1.9500   -2.6450 c2        1 OMK      0.068000
     15 O15         0.2440    2.0150    0.0390 o         1 OMK     -0.343000
     16 C16         1.0320    1.7000   -4.0030 c2        1 OMK     -0.118000
     17 C17        -1.8300   -0.2250    0.5160 c3        1 OMK     -0.113000
     18 C18         3.3960   -2.3200    0.9130 c1        1 OMK     -0.124750
     19 C19         1.5490   -3.5570    1.8180 c1        1 OMK     -0.080000
     20 F20        -1.0970    3.0740    4.7730 f         1 OMK     -0.090500
     21 F21         0.4170    2.2150    6.3520 f         1 OMK     -0.090500
     22 C22         3.5060   -4.7140    1.0470 c1        1 OMK     -0.047000
     23 C23         2.2380   -4.7410    1.6050 c1        1 OMK     -0.126000
     24 C24         4.0850   -3.5030    0.7000 c1        1 OMK     -0.124750
     25 CL25        4.4210   -6.1910    0.8930 cl        1 OMK     -0.000000
     26 C26         1.0860    3.2290   -2.1500 c1        1 OMK     -0.147000
     27 C27         0.9330    0.5980   -5.0360 c3        1 OMK     -0.179000
     28 C28         1.3790    2.7320   -4.8650 c1        1 OMK     -0.105000
     29 C29        -2.4360    0.8380   -0.3810 c3        1 OMK     -0.156000
     30 C30        -2.4110   -1.6050    0.2550 c3        1 OMK     -0.156000
     31 C31         1.4320    4.2620   -3.0120 c1        1 OMK     -0.124750
     32 C32         1.5790    4.0120   -4.3690 c1        1 OMK     -0.124750
     33 C33        -3.9250   -1.6110    0.2900 c3        1 OMK     -0.153500
     34 C34        -3.9510    0.8300   -0.3460 c3        1 OMK     -0.153500
     35 C35        -4.5300   -0.5480   -0.6060 c3        1 OMK     -0.158000
     36 H7         -0.0970   -1.0800   -0.2210 ha        1 OMK      0.121000
     37 H8         -1.1440    1.9030    2.4660 ha        1 OMK      0.178500
     38 HN9         0.3070    0.0110   -2.3270 hn        1 OMK      0.233000
     39 H10         2.0030    0.0360    5.4530 ha        1 OMK      0.178500
     40 H17        -1.9950    0.0170    1.4490 hc        1 OMK      0.124000
     41 H18         3.8040   -1.4670    0.6690 ha        1 OMK      0.142750
     42 H19         0.6560   -3.5760    2.2120 ha        1 OMK      0.157000
     43 H23         1.8300   -5.5940    1.8490 ha        1 OMK      0.156000
     44 H24         4.9790   -3.4840    0.3060 ha        1 OMK      0.142750
     45 H26         0.9830    3.4050   -1.1960 ha        1 OMK      0.171000
     46 H27         0.3530    0.8900   -5.7700 hc        1 OMK      0.081667
     47 H27A        1.8270    0.3970   -5.3860 hc        1 OMK      0.081667
     48 H27B        0.5570   -0.2050   -4.6220 hc        1 OMK      0.081667
     49 H28         1.4820    2.5570   -5.8210 ha        1 OMK      0.133000
     50 H29        -2.1170    1.7160   -0.0910 hc        1 OMK      0.084750
     51 H29A       -2.1410    0.6820   -1.2990 hc        1 OMK      0.084750
     52 H30        -2.1150   -1.9120   -0.6240 hc        1 OMK      0.084750
     53 H30A       -2.0760   -2.2230    0.9360 hc        1 OMK      0.084750
     54 H31         1.5730    5.1620   -2.6630 ha        1 OMK      0.142750
     55 H32         1.8230    4.7390   -4.9760 ha        1 OMK      0.142750
     56 H33        -4.2200   -1.4550    1.2100 hc        1 OMK      0.085500
     57 H33A       -4.2440   -2.4890   -0.0000 hc        1 OMK      0.085500
     58 H34        -4.2480    1.1370    0.5350 hc        1 OMK      0.085500
     59 H34A       -4.2860    1.4480   -1.0250 hc        1 OMK      0.085500
     60 H35        -4.3640   -0.7900   -1.5390 hc        1 OMK      0.081000
     61 H35A       -5.4970   -0.5190   -0.4540 hc        1 OMK      0.081000
@<TRIPOS>BOND
     1    1    2 1   
     2    1    4 1   
     3    2    3 1   
     4    2   12 1   
     5    3    5 1   
     6    4    5 1   
     7    6    9 1   
     8    6   15 1   
     9    7   17 1   
    10    7   36 1   
    11    8   11 1   
    12    8   37 1   
    13    9   14 1   
    14    9   38 1   
    15   10   13 1   
    16   10   39 1   
    17   11   20 1   
    18   12   19 1   
    19   13   21 1   
    20   14   16 1   
    21   14   26 1   
    22   16   27 1   
    23   16   28 1   
    24   17   29 1   
    25   17   30 1   
    26   17   40 1   
    27   18   24 1   
    28   18   41 1   
    29   19   42 1   
    30   22   23 1   
    31   22   25 1   
    32   23   43 1   
    33   24   44 1   
    34   26   45 1   
    35   27   46 1   
    36   27   47 1   
    37   27   48 1   
    38   28   49 1   
    39   29   34 1   
    40   29   50 1   
    41   29   51 1   
    42   30   33 1   
    43   30   52 1   
    44   30   53 1   
    45   31   32 1   
    46   31   54 1   
    47   32   55 1   
    48   33   35 1   
    49   33   56 1   
    50   33   57 1   
    51   34   35 1   
    52   34   58 1   
    53   34   59 1   
    54   35   60 1   
    55   35   61 1   
@<TRIPOS>SUBSTRUCTURE
     1 OMK         1 TEMP              0 ****  ****    0 ROOT
