@<TRIPOS>MOLECULE
OMK
   62    62     1     0     0
SMALL
bcc


@<TRIPOS>ATOM
      1 N1         -0.2530    0.1230    0.1800 na        1 OMK     -0.071000
      2 C2          1.2120    0.2510    0.1860 c2        1 OMK      0.042000
      3 N3          1.7460    0.0630    1.3970 n2        1 OMK     -0.033000
      4 C4         -0.5750   -0.2290    1.5300 ca        1 OMK     -0.083000
      5 C5          0.6780   -0.2540    2.2510 ca        1 OMK     -0.041000
      6 C6         -0.4980    2.3880   -1.9570 c2        1 OMK      0.275000
      7 C7         -1.0260    0.3430   -0.8720 c1        1 OMK     -0.145000
      8 C8         -1.8590   -0.2850    2.1860 ca        1 OMK     -0.154000
      9 C10         0.5180   -0.3980    3.6630 ca        1 OMK     -0.167000
     10 C11        -1.8740   -0.6580    3.5180 ca        1 OMK      0.094000
     11 C12         1.9950    0.4090   -1.0410 ca        1 OMK     -0.059000
     12 C13        -0.5610   -1.2930    3.8620 ca        1 OMK      0.136000
     13 C14        -0.0940    2.5810   -4.3880 c2        1 OMK     -0.178000
     14 C16        -1.1070    3.0920   -5.1510 c2        1 OMK     -0.011000
     15 C17        -2.4640    0.0100   -0.8840 c3        1 OMK     -0.249000
     16 C18         3.0440    1.3390   -1.0760 ca        1 OMK     -0.109000
     17 C19         1.7860   -0.4550   -2.1240 ca        1 OMK     -0.109000
     18 F20        -2.8940   -0.5240    4.3600 f         1 OMK     -0.042000
     19 F21        -0.4480   -2.5650    3.4490 f         1 OMK     -0.059000
     20 C22         3.6430    0.5670   -3.2880 ca        1 OMK     -0.057000
     21 C23         2.6030   -0.3720   -3.2490 ca        1 OMK     -0.141000
     22 C24         3.8650    1.4190   -2.1990 ca        1 OMK     -0.141000
     23 CL25        4.6400    0.6570   -4.6490 cl        1 OMK      0.049000
     24 C26         1.3370    2.9330   -4.6510 c3        1 OMK     -0.203000
     25 C27        -2.5380    2.7940   -4.9090 c3        1 OMK     -0.230000
     26 C28        -0.7780    3.9710   -6.2610 c2        1 OMK     -0.043000
     27 C29        -3.0570    0.0140   -2.2790 c3        1 OMK     -0.135000
     28 C30        -3.4200   -3.0550   -0.1010 c1        1 OMK     -0.061500
     29 C31         1.6050    3.8200   -5.7720 c1        1 OMK     -0.011000
     30 C32         0.5080    4.2920   -6.5550 c2        1 OMK     -0.182000
     31 C33        -4.3380   -3.3350    0.8380 c1        1 OMK     -0.221000
     32 C34        -4.4460   -0.5750   -2.2590 c3        1 OMK     -0.216000
     33 C35        -5.1620   -3.4460    1.7300 c1        1 OMK     -0.061500
     34 H7          0.4600    2.4080   -1.3920 hx        1 OMK      0.208000
     35 H8         -2.7730    0.0530    1.6790 ha        1 OMK      0.177000
     36 HN9         0.4130    0.9860   -3.1980 hn        1 OMK      0.260000
     37 H10         0.9310    0.2930    4.4000 ha        1 OMK      0.203000
     38 H17        -3.0260    0.7610   -0.2540 hc        1 OMK      0.161000
     39 H18         3.2420    1.9840   -0.2030 ha        1 OMK      0.164500
     40 H19         1.0020   -1.2290   -2.0710 ha        1 OMK      0.164500
     41 H23         2.4590   -1.0740   -4.0870 ha        1 OMK      0.172000
     42 H24         4.7020    2.1380   -2.2170 ha        1 OMK      0.172000
     43 H26         1.9580    2.0010   -4.8290 hc        1 OMK      0.174500
     44 H27        -2.7480    1.7040   -5.0640 hc        1 OMK      0.117000
     45 H27A       -2.8270    3.0700   -3.8610 hc        1 OMK      0.117000
     46 H27B       -3.1970    3.3690   -5.6070 hc        1 OMK      0.117000
     47 H28        -1.6260    4.3590   -6.8530 ha        1 OMK      0.166000
     48 H29        -2.4100   -0.5870   -2.9710 hc        1 OMK      0.063500
     49 H29A       -3.1100    1.0670   -2.6690 hc        1 OMK      0.063500
     50 H30        -2.6600   -1.0150   -0.4180 hc        1 OMK      0.161000
     51 H30A       -3.0170   -3.8060   -0.7850 ha        1 OMK      0.179000
     52 H31         1.7860    3.4450   -3.7450 hc        1 OMK      0.174500
     53 H32         0.7500    4.9470   -7.4120 ha        1 OMK      0.183000
     54 H33        -4.8690    1.0630    1.2580 ha        1 OMK      0.001500
     55 H33A       -5.0190    0.6940    0.7110 ha        1 OMK      0.001500
     56 H34        -5.8800   -3.5450    2.5080 ha        1 OMK      0.179000
     57 H34A       -4.4180   -1.6220   -1.8630 hc        1 OMK      0.088000
     58 H35        -4.8770   -0.5930   -3.2880 hc        1 OMK      0.088000
     59 H35A       -5.1180    0.0280   -1.6000 hc        1 OMK      0.088000
     60 N9         -0.3600    1.6640   -3.2810 n4        1 OMK     -0.067000
     61 H92        -1.2290    1.1380   -3.4600 hn        1 OMK      0.260000
     62 O15        -1.5550    2.9450   -1.7090 o         1 OMK     -0.222000
@<TRIPOS>BOND
     1    1    2 1   
     2    1    4 1   
     3    1    7 1   
     4    2    3 1   
     5    2   11 1   
     6    3    5 1   
     7    4    5 1   
     8    4    8 1   
     9    5    9 1   
    10    6   34 1   
    11    6   60 1   
    12    6   62 1   
    13    7   15 1   
    14    8   10 1   
    15    8   35 1   
    16    9   12 1   
    17    9   37 1   
    18   10   12 1   
    19   10   18 1   
    20   11   16 1   
    21   11   17 1   
    22   12   19 1   
    23   13   14 1   
    24   13   24 1   
    25   13   60 1   
    26   14   25 1   
    27   14   26 1   
    28   15   27 1   
    29   15   38 1   
    30   15   50 1   
    31   16   22 1   
    32   16   39 1   
    33   17   21 1   
    34   17   40 1   
    35   20   21 1   
    36   20   22 1   
    37   20   23 1   
    38   21   41 1   
    39   22   42 1   
    40   24   29 1   
    41   24   43 1   
    42   24   52 1   
    43   25   44 1   
    44   25   45 1   
    45   25   46 1   
    46   26   30 1   
    47   26   47 1   
    48   27   32 1   
    49   27   48 1   
    50   27   49 1   
    51   28   31 1   
    52   28   51 1   
    53   29   30 1   
    54   30   53 1   
    55   31   33 1   
    56   32   57 1   
    57   32   58 1   
    58   32   59 1   
    59   33   56 1   
    60   36   60 1   
    61   54   55 1   
    62   60   61 1   
@<TRIPOS>SUBSTRUCTURE
     1 OMK         1 TEMP              0 ****  ****    0 ROOT
