@<TRIPOS>MOLECULE
OMK
   61    61     1     0     0
SMALL
bcc


@<TRIPOS>ATOM
      1 N1          0.0050   -0.3610   -0.4800 n3        1 OMK     -0.192000
      2 C2          1.4740   -0.4090   -0.4890 c2        1 OMK      0.056000
      3 N3          2.0500   -0.0460    0.6410 n2        1 OMK     -0.095000
      4 C4         -0.3250    0.0810    0.8190 c2        1 OMK      0.045000
      5 C5          0.9900    0.4340    1.5380 c3        1 OMK     -0.105000
      6 C6         -0.6730    1.6350   -1.8440 c2        1 OMK      0.278000
      7 C7         -0.6990    0.0880   -1.6620 c3        1 OMK      0.001000
      8 C8         -1.5010    0.0480    1.5020 c2        1 OMK     -0.258000
      9 C10         1.0390    0.1810    2.9800 c1        1 OMK     -0.019000
     10 C11        -1.4440    0.1360    2.9390 c2        1 OMK      0.176000
     11 C12         2.2020   -0.9110   -1.6590 c2        1 OMK     -0.109000
     12 C13        -0.2220    0.1350    3.6340 c2        1 OMK     -0.086000
     13 C14        -1.1210    3.4190   -3.5250 c2        1 OMK      0.050000
     14 O15        -0.3210    2.3960   -0.9250 o         1 OMK     -0.350000
     15 C16        -1.2860    3.7020   -4.8680 c2        1 OMK     -0.167000
     16 C17        -2.1600   -0.3940   -1.7300 c3        1 OMK     -0.181000
     17 C18         5.2450    0.7270   -1.0240 c1        1 OMK     -0.224500
     18 C19         1.8000   -1.9830   -2.3620 c2        1 OMK     -0.012000
     19 F20        -2.6180    0.1290    3.6020 f         1 OMK     -0.090000
     20 F21        -0.2460    0.0630    4.9900 f         1 OMK     -0.085000
     21 C22         3.0940   -2.9310   -4.4070 c1        1 OMK     -0.162000
     22 C23         2.5040   -2.4830   -3.4650 c1        1 OMK     -0.128000
     23 C24         5.7830    0.9530   -2.0680 c1        1 OMK     -0.224500
     24 CL25        3.8750   -3.5270   -5.6600 cl        1 OMK      0.186000
     25 C26        -0.9730    4.5180   -2.4670 c3        1 OMK     -0.103000
     26 C27        -1.5060    2.6900   -5.9170 c3        1 OMK     -0.168000
     27 C28        -1.0850    5.1020   -5.2590 c2        1 OMK     -0.061000
     28 C29        -2.4030   -1.2140   -2.9800 c3        1 OMK     -0.156000
     29 C30        -4.2610   -1.5770    0.7340 c1        1 OMK     -0.047500
     30 C31        -1.5960    5.7870   -2.9730 c2        1 OMK     -0.120000
     31 C32        -1.4180    5.9330   -4.2760 c1        1 OMK     -0.178000
     32 C33        -5.2180   -1.2670    1.7740 c3        1 OMK     -0.344000
     33 C34        -3.8380   -1.6720   -3.0500 c3        1 OMK     -0.211000
     34 C35        -6.1260   -0.1720    1.4480 c1        1 OMK     -0.047500
     35 H7         -0.1260   -0.3590   -2.5360 h1        1 OMK      0.130000
     36 H8         -2.4850   -0.1220    1.0280 ha        1 OMK      0.193000
     37 HN9        -1.2920    1.3960   -3.7770 hn        1 OMK      0.237000
     38 H10         1.0680    1.5880    1.5390 h1        1 OMK      0.215000
     39 H17        -2.8550    0.4870   -1.7110 hc        1 OMK      0.121500
     40 H18         4.7710    0.5290   -0.0930 ha        1 OMK      0.225500
     41 H19         3.1390   -0.3660   -1.8880 ha        1 OMK      0.177000
     42 H23         0.8820   -2.5450   -2.0960 ha        1 OMK      0.152000
     43 H24         6.2650    1.1550   -2.9910 ha        1 OMK      0.225500
     44 H26         0.1120    4.6120   -2.2000 hc        1 OMK      0.132500
     45 H27        -0.6360    1.9880   -5.9900 hc        1 OMK      0.080333
     46 H27A       -2.4260    2.0870   -5.7050 hc        1 OMK      0.080333
     47 H27B       -1.6390    3.1790   -6.9130 hc        1 OMK      0.080333
     48 H28        -0.6220    5.3460   -6.2180 ha        1 OMK      0.157000
     49 H29        -2.1580   -0.6130   -3.8950 hc        1 OMK      0.075500
     50 H29A       -1.7230   -2.1070   -2.9790 hc        1 OMK      0.075500
     51 H30        -2.4290   -1.0200   -0.8330 hc        1 OMK      0.121500
     52 H30A       -4.2100   -2.6160    0.3800 ha        1 OMK      0.049500
     53 H31        -1.5240    4.2270   -1.5310 hc        1 OMK      0.132500
     54 H32        -2.1990    6.4060   -2.3060 ha        1 OMK      0.155000
     55 H33        -4.6210   -0.8600    2.6650 hc        1 OMK      0.173500
     56 H33A       -5.8260   -2.1280    2.1780 hc        1 OMK      0.173500
     57 H34        -4.1140   -2.2370   -2.1260 hc        1 OMK      0.078333
     58 H34A       -3.9900   -2.3370   -3.9340 hc        1 OMK      0.078333
     59 H35        -4.5270   -0.7970   -3.1420 hc        1 OMK      0.078333
     60 H35A       -5.8560    0.4310    0.5640 ha        1 OMK      0.049500
     61 N9         -1.0580    2.0860   -3.0960 n         1 OMK     -0.313000
@<TRIPOS>BOND
     1    1    2 1   
     2    1    4 1   
     3    1    7 1   
     4    2    3 1   
     5    2   11 1   
     6    3    5 1   
     7    4    5 1   
     8    4    8 1   
     9    5    9 1   
    10    5   38 1   
    11    6    7 1   
    12    6   14 1   
    13    6   61 1   
    14    7   16 1   
    15    7   35 1   
    16    8   10 1   
    17    8   36 1   
    18    9   12 1   
    19   10   12 1   
    20   10   19 1   
    21   11   18 1   
    22   11   41 1   
    23   12   20 1   
    24   13   15 1   
    25   13   25 1   
    26   13   61 1   
    27   15   26 1   
    28   15   27 1   
    29   16   28 1   
    30   16   39 1   
    31   16   51 1   
    32   17   23 1   
    33   17   40 1   
    34   18   22 1   
    35   18   42 1   
    36   21   22 1   
    37   21   24 1   
    38   23   43 1   
    39   25   30 1   
    40   25   44 1   
    41   25   53 1   
    42   26   45 1   
    43   26   46 1   
    44   26   47 1   
    45   27   31 1   
    46   27   48 1   
    47   28   33 1   
    48   28   49 1   
    49   28   50 1   
    50   29   32 1   
    51   29   52 1   
    52   30   31 1   
    53   30   54 1   
    54   32   34 1   
    55   32   55 1   
    56   32   56 1   
    57   33   57 1   
    58   33   58 1   
    59   33   59 1   
    60   34   60 1   
    61   37   61 1   
@<TRIPOS>SUBSTRUCTURE
     1 OMK         1 TEMP              0 ****  ****    0 ROOT
