@<TRIPOS>MOLECULE
OMK
   61    62     1     0     0
SMALL
bcc


@<TRIPOS>ATOM
      1 N1         -0.2400    0.3500   -0.4050 na        1 OMK     -0.198000
      2 C2          0.9710   -0.3990   -0.5140 c2        1 OMK      0.065000
      3 N3          1.7860   -0.2170    0.5460 n2        1 OMK     -0.125000
      4 C4         -0.1740    1.0170    0.8300 ca        1 OMK     -0.015000
      5 C5          1.1040    0.6570    1.4130 ca        1 OMK     -0.062000
      6 C6         -1.6850    1.7720   -1.7980 c2        1 OMK      0.293000
      7 C7         -1.3590    0.3300   -1.3070 c3        1 OMK      0.024000
      8 C8         -1.0550    1.8910    1.4720 ca        1 OMK     -0.150000
      9 C10         1.4790    1.1750    2.6570 ca        1 OMK     -0.088000
     10 C11        -0.6640    2.3980    2.7140 ca        1 OMK      0.077000
     11 C12         1.3070   -1.2230   -1.6750 c2        1 OMK     -0.126000
     12 C13         0.5930    2.0400    3.3040 ca        1 OMK      0.042000
     13 C14        -0.8520    3.5790   -3.2930 c2        1 OMK      0.046000
     14 O15        -2.6980    2.3690   -1.3960 o         1 OMK     -0.343000
     15 C16        -0.0170    3.8880   -4.3500 c2        1 OMK     -0.162000
     16 C17        -2.6250   -0.3020   -0.7040 c3        1 OMK     -0.176000
     17 C18         4.7140   -0.2830   -1.8380 c1        1 OMK     -0.224500
     18 C19         0.5610   -2.2610   -2.0870 c2        1 OMK     -0.021000
     19 F20        -1.4800    3.2450    3.3820 f         1 OMK     -0.089000
     20 F21         0.9180    2.5610    4.5110 f         1 OMK     -0.092000
     21 C22         1.2000   -3.7460   -4.1250 c1        1 OMK     -0.176000
     22 C23         0.9160   -3.0510   -3.1900 c1        1 OMK     -0.116000
     23 C24         5.2030   -0.2050   -2.9260 c1        1 OMK     -0.224500
     24 Cl25        1.5750   -4.6710   -5.3660 cl        1 OMK      0.179000
     25 C26        -1.8880    4.5670   -2.7500 c3        1 OMK     -0.103000
     26 C27         1.0530    3.0100   -4.8580 c3        1 OMK     -0.170000
     27 C28        -0.3320    5.1230   -5.0770 c2        1 OMK     -0.062000
     28 C29        -3.6880   -0.5290   -1.7600 c3        1 OMK     -0.166000
     29 C30        -2.5290   -3.3480   -1.5710 c1        1 OMK     -0.066000
     30 C31        -1.4760    5.9680   -3.0950 c2        1 OMK     -0.119000
     31 C32        -0.8890    6.0280   -4.2790 c1        1 OMK     -0.180000
     32 C33        -3.7730   -3.4450   -0.8370 c3        1 OMK     -0.250000
     33 C34        -4.9120   -1.2190   -1.1850 c3        1 OMK     -0.158000
     34 C35        -4.9540   -2.7120   -1.4440 c3        1 OMK     -0.170000
     35 H7         -1.0560   -0.2960   -2.2040 h1        1 OMK      0.128000
     36 H8         -2.0160    2.1850    1.0210 ha        1 OMK      0.176000
     37 HN9        -0.0020    1.7490   -2.9580 hn        1 OMK      0.240000
     38 H10         2.4420    0.9120    3.1170 ha        1 OMK      0.171000
     39 H17        -3.0310    0.3690    0.0990 hc        1 OMK      0.115000
     40 H18         4.2850   -0.3510   -0.8670 ha        1 OMK      0.225000
     41 H19         2.2680   -0.9550   -2.1550 ha        1 OMK      0.167000
     42 H23        -0.3800   -2.5700   -1.5720 ha        1 OMK      0.192000
     43 H24         5.6410   -0.1360   -3.8900 ha        1 OMK      0.225000
     44 H26        -1.9290    4.5000   -1.6280 hc        1 OMK      0.131500
     45 H27         0.6370    2.0400   -5.2320 hc        1 OMK      0.082000
     46 H27A        1.8000    2.7860   -4.0540 hc        1 OMK      0.082000
     47 H27B        1.5960    3.5000   -5.7040 hc        1 OMK      0.082000
     48 H28        -0.1880    5.1780   -6.1590 ha        1 OMK      0.156000
     49 H29        -3.9920    0.4660   -2.1860 hc        1 OMK      0.089500
     50 H29A       -3.2650   -1.1360   -2.6040 hc        1 OMK      0.089500
     51 H30        -2.3490   -1.2860   -0.2330 hc        1 OMK      0.115000
     52 H30A       -2.6230   -3.3040   -2.6700 ha        1 OMK      0.037000
     53 H31        -2.8990    4.2760   -3.1390 hc        1 OMK      0.131500
     54 H32        -1.5790    6.7680   -2.3580 ha        1 OMK      0.155000
     55 H33        -3.6280   -3.1140    0.2300 hc        1 OMK      0.136000
     56 H33A       -3.9880   -4.5580   -0.7920 hc        1 OMK      0.136000
     57 H34        -4.9700   -1.0320   -0.0800 hc        1 OMK      0.090500
     58 H34A       -5.8300   -0.7620   -1.6420 hc        1 OMK      0.090500
     59 H35        -5.9040   -3.1190   -1.0060 hc        1 OMK      0.085500
     60 H35A       -4.9890   -2.9020   -2.5490 hc        1 OMK      0.085500
     61 N9         -0.7850    2.3100   -2.6990 ns        1 OMK     -0.308000
@<TRIPOS>BOND
     1    1    2 1   
     2    1    4 1   
     3    1    7 1   
     4    2    3 1   
     5    2   11 1   
     6    3    5 1   
     7    4    5 1   
     8    4    8 1   
     9    5    9 1   
    10    6    7 1   
    11    6   14 1   
    12    6   61 1   
    13    7   16 1   
    14    7   35 1   
    15    8   10 1   
    16    8   36 1   
    17    9   12 1   
    18    9   38 1   
    19   10   12 1   
    20   10   19 1   
    21   11   18 1   
    22   11   41 1   
    23   12   20 1   
    24   13   15 1   
    25   13   25 1   
    26   13   61 1   
    27   15   26 1   
    28   15   27 1   
    29   16   28 1   
    30   16   39 1   
    31   16   51 1   
    32   17   23 1   
    33   17   40 1   
    34   18   22 1   
    35   18   42 1   
    36   21   22 1   
    37   21   24 1   
    38   23   43 1   
    39   25   30 1   
    40   25   44 1   
    41   25   53 1   
    42   26   45 1   
    43   26   46 1   
    44   26   47 1   
    45   27   31 1   
    46   27   48 1   
    47   28   33 1   
    48   28   49 1   
    49   28   50 1   
    50   29   32 1   
    51   29   52 1   
    52   30   31 1   
    53   30   54 1   
    54   32   34 1   
    55   32   55 1   
    56   32   56 1   
    57   33   34 1   
    58   33   57 1   
    59   33   58 1   
    60   34   59 1   
    61   34   60 1   
    62   37   61 1   
@<TRIPOS>SUBSTRUCTURE
     1 OMK         1 TEMP              0 ****  ****    0 ROOT
