@<TRIPOS>MOLECULE
OMK
   61    65     1     0     0
SMALL
bcc


@<TRIPOS>ATOM
      1 N1         -0.9420    0.4070    0.1540 na        1 OMK     -0.161300
      2 C2         -0.4600    1.6660    0.6210 cc        1 OMK      0.466400
      3 N3         -1.1540    2.7080    0.1210 nd        1 OMK     -0.538100
      4 C4         -2.0130    0.7000   -0.7070 ca        1 OMK     -0.054200
      5 C5         -2.1410    2.1460   -0.7100 ca        1 OMK      0.069400
      6 C6          0.1560   -1.5990   -0.7350 c         1 OMK      0.652100
      7 C7         -0.4500   -0.8920    0.5200 c3        1 OMK     -0.006000
      8 C8         -2.8450   -0.1090   -1.4870 ca        1 OMK     -0.143000
      9 C10        -3.1350    2.7630   -1.4770 ca        1 OMK     -0.088000
     10 C11        -3.8310    0.5250   -2.2460 ca        1 OMK      0.111900
     11 C12         0.6950    1.8000    1.5190 ca        1 OMK     -0.125900
     12 C13        -3.9800    1.9520   -2.2360 ca        1 OMK      0.074900
     13 C14         2.2850   -1.8890   -2.0030 ca        1 OMK      0.058600
     14 O15        -0.5600   -2.3170   -1.4540 o         1 OMK     -0.582100
     15 C16         3.7010   -1.8410   -1.8850 ca        1 OMK     -0.121300
     16 C17        -1.4920   -1.8490    1.1450 c3        1 OMK     -0.071700
     17 C18         1.8160    2.5140    1.0790 ca        1 OMK     -0.094000
     18 C19         0.6630    1.2730    2.8150 ca        1 OMK     -0.094000
     19 F20        -4.6670   -0.2120   -3.0130 f         1 OMK     -0.123900
     20 F21        -4.9580    2.5090   -2.9890 f         1 OMK     -0.127900
     21 C22         2.8830    2.1350    3.2110 ca        1 OMK      0.030400
     22 C23         1.7570    1.4360    3.6620 ca        1 OMK     -0.130500
     23 C24         2.9130    2.6790    1.9230 ca        1 OMK     -0.130500
     24 CL25        4.2190    2.3300    4.2390 cl        1 OMK     -0.079400
     25 C26         1.7140   -2.4550   -3.1620 ca        1 OMK     -0.144000
     26 C27         4.3640   -1.2580   -0.6940 c3        1 OMK     -0.054800
     27 C28         4.4890   -2.3530   -2.9190 ca        1 OMK     -0.107000
     28 C29        -0.7810   -3.1140    1.6150 c3        1 OMK     -0.076400
     29 C30        -2.2310   -1.2080    2.3090 c3        1 OMK     -0.076400
     30 C31         2.5260   -2.9620   -4.1710 ca        1 OMK     -0.109000
     31 C32         3.9130   -2.9130   -4.0570 ca        1 OMK     -0.146000
     32 C33        -3.2180   -2.1820    2.9230 c3        1 OMK     -0.075400
     33 C34        -1.7640   -4.0900    2.2290 c3        1 OMK     -0.075400
     34 C35        -2.5340   -3.4570    3.3690 c3        1 OMK     -0.080400
     35 H7          0.3600   -0.7300    1.2980 h1        1 OMK      0.081700
     36 H8         -2.7170   -1.2030   -1.5300 ha        1 OMK      0.183000
     37 HN9         1.9700   -0.7600   -0.3240 hn        1 OMK      0.321500
     38 H10        -3.2500    3.8570   -1.4860 ha        1 OMK      0.170000
     39 H17        -2.2380   -2.1330    0.3490 hc        1 OMK      0.085700
     40 H18         1.8260    2.9570    0.0700 ha        1 OMK      0.154000
     41 H19        -0.2340    0.7450    3.1750 ha        1 OMK      0.154000
     42 H23         1.7300    1.0240    4.6820 ha        1 OMK      0.155500
     43 H24         3.7930    3.2430    1.5770 ha        1 OMK      0.155500
     44 H26         0.6180   -2.5060   -3.2790 ha        1 OMK      0.169000
     45 H27         4.0320   -1.7760    0.2410 hc        1 OMK      0.043033
     46 H27A        5.4760   -1.3610   -0.7640 hc        1 OMK      0.043033
     47 H27B        4.1290   -0.1680   -0.6020 hc        1 OMK      0.043033
     48 H28         5.5850   -2.3140   -2.8280 ha        1 OMK      0.133000
     49 H29        -0.2690   -3.6020    0.7450 hc        1 OMK      0.044700
     50 H29A        0.0020   -2.8470    2.3720 hc        1 OMK      0.044700
     51 H30        -1.4930   -0.8870    3.0900 hc        1 OMK      0.044700
     52 H30A       -2.7860   -0.2970    1.9640 hc        1 OMK      0.044700
     53 H31         2.0610   -3.4010   -5.0670 ha        1 OMK      0.137000
     54 H32         4.5510   -3.3130   -4.8570 ha        1 OMK      0.135000
     55 H33        -3.7200   -1.6960    3.8000 hc        1 OMK      0.046700
     56 H33A       -4.0150   -2.4270    2.1720 hc        1 OMK      0.046700
     57 H34        -2.4820   -4.4400    1.4410 hc        1 OMK      0.046700
     58 H34A       -1.2080   -4.9890    2.6020 hc        1 OMK      0.046700
     59 H35        -1.8320   -3.2290    4.2140 hc        1 OMK      0.041700
     60 H35A       -3.3000   -4.1790    3.7530 hc        1 OMK      0.041700
     61 N9          1.4930   -1.3530   -0.9680 n         1 OMK     -0.460100
@<TRIPOS>BOND
     1    1    2 1   
     2    1    4 1   
     3    1    7 1   
     4    2    3 2   
     5    2   11 1   
     6    3    5 1   
     7    4    5 ar  
     8    4    8 ar  
     9    5    9 ar  
    10    6    7 1   
    11    6   14 2   
    12    6   61 1   
    13    7   16 1   
    14    7   35 1   
    15    8   10 ar  
    16    8   36 1   
    17    9   12 ar  
    18    9   38 1   
    19   10   12 ar  
    20   10   19 1   
    21   11   17 ar  
    22   11   18 ar  
    23   12   20 1   
    24   13   15 ar  
    25   13   25 ar  
    26   13   61 1   
    27   15   26 1   
    28   15   27 ar  
    29   16   28 1   
    30   16   29 1   
    31   16   39 1   
    32   17   23 ar  
    33   17   40 1   
    34   18   22 ar  
    35   18   41 1   
    36   21   22 ar  
    37   21   23 ar  
    38   21   24 1   
    39   22   42 1   
    40   23   43 1   
    41   25   30 ar  
    42   25   44 1   
    43   26   45 1   
    44   26   46 1   
    45   26   47 1   
    46   27   31 ar  
    47   27   48 1   
    48   28   33 1   
    49   28   49 1   
    50   28   50 1   
    51   29   32 1   
    52   29   51 1   
    53   29   52 1   
    54   30   31 ar  
    55   30   53 1   
    56   31   54 1   
    57   32   34 1   
    58   32   55 1   
    59   32   56 1   
    60   33   34 1   
    61   33   57 1   
    62   33   58 1   
    63   34   59 1   
    64   34   60 1   
    65   37   61 1   
@<TRIPOS>SUBSTRUCTURE
     1 OMK         1 TEMP              0 ****  ****    0 ROOT
