@<TRIPOS>MOLECULE
OMM
   60    64     1     0     0
SMALL
bcc


@<TRIPOS>ATOM
      1 N1         -1.6720    0.5670   -0.0800 na        1 OMM     -0.144300
      2 C2         -1.8430    1.9230    0.3330 cc        1 OMM      0.467400
      3 N3         -2.8820    2.5330   -0.2760 nd        1 OMM     -0.551100
      4 C4         -2.7120    0.3150   -0.9920 ca        1 OMM     -0.051200
      5 C5         -3.4540    1.5570   -1.1140 ca        1 OMM      0.066400
      6 C6          0.1280   -1.0880   -0.4140 c         1 OMM      0.652100
      7 C7         -0.8550   -0.4090    0.5960 c3        1 OMM     -0.020000
      8 C8         -3.0560   -0.8170   -1.7370 ca        1 OMM     -0.132000
      9 C10        -4.5490    1.6420   -1.9800 ca        1 OMM     -0.095000
     10 C11        -4.1590   -0.7150   -2.5890 ca        1 OMM      0.103900
     11 C12         2.5230   -1.1170   -1.1000 ca        1 OMM     -0.026400
     12 C14        -0.9430    2.5830    1.2880 ca        1 OMM     -0.118900
     13 C15        -4.9020    0.5050   -2.7070 ca        1 OMM      0.068900
     14 C16         4.8340   -2.1030   -2.4020 ca        1 OMM     -0.113600
     15 C17         3.8310   -0.7580   -0.6510 ca        1 OMM      0.041900
     16 C18         4.9670   -1.2510   -1.3060 ca        1 OMM     -0.114000
     17 O20         7.2010   -2.2820   -2.6600 o         1 OMM     -0.820300
     18 C21         2.4140   -1.9740   -2.2100 ca        1 OMM     -0.142000
     19 C22         3.5570   -2.4560   -2.8430 ca        1 OMM     -0.101000
     20 C23        -1.6310   -1.5350    1.3190 c3        1 OMM     -0.073700
     21 C24         0.4320    2.6570    1.0320 ca        1 OMM     -0.094500
     22 C25        -1.4770    3.1760    2.4370 ca        1 OMM     -0.094500
     23 F26        -4.5430   -1.7840   -3.3250 f         1 OMM     -0.127900
     24 F27        -5.9640    0.5430   -3.5490 f         1 OMM     -0.135900
     25 F28         3.9800    0.0760    0.4160 f         1 OMM     -0.177900
     26 O29         5.9030   -3.4130   -4.0890 o         1 OMM     -0.820300
     27 C30         0.7370    3.8830    3.0880 ca        1 OMM      0.028400
     28 C31        -0.6380    3.8250    3.3410 ca        1 OMM     -0.128500
     29 C32         1.2750    3.3040    1.9340 ca        1 OMM     -0.128500
     30 CL33        1.7610    4.6700    4.1920 cl        1 OMM     -0.090400
     31 C34        -0.6350   -2.4300    2.0500 c3        1 OMM     -0.078900
     32 C35        -2.6460   -0.9710    2.3020 c3        1 OMM     -0.078900
     33 C36        -3.3550   -2.0820    3.0510 c3        1 OMM     -0.074400
     34 C37        -1.3470   -3.5410    2.7930 c3        1 OMM     -0.074400
     35 C38        -2.3720   -2.9880    3.7610 c3        1 OMM     -0.079400
     36 H7         -0.2720    0.1550    1.3880 h1        1 OMM      0.079700
     37 H8         -2.4670   -1.7490   -1.6810 ha        1 OMM      0.196000
     38 HN9         1.6240    0.1260    0.2430 hn        1 OMM      0.313500
     39 H10        -5.1160    2.5770   -2.0900 ha        1 OMM      0.163000
     40 H18         5.9780   -0.9740   -0.9650 ha        1 OMM      0.172000
     41 H21         1.4200   -2.2730   -2.5790 ha        1 OMM      0.152000
     42 H22         3.4750   -3.1310   -3.7120 ha        1 OMM      0.164000
     43 H23        -2.1670   -2.1510    0.5430 hc        1 OMM      0.082700
     44 H24         0.8480    2.2260    0.1080 ha        1 OMM      0.155000
     45 H25        -2.5620    3.1380    2.6230 ha        1 OMM      0.155000
     46 H31        -1.0580    4.2900    4.2450 ha        1 OMM      0.155000
     47 H32         2.3560    3.3590    1.7320 ha        1 OMM      0.155000
     48 H34         0.0790   -2.8790    1.3090 hc        1 OMM      0.048200
     49 H34A       -0.0390   -1.8160    2.7750 hc        1 OMM      0.048200
     50 H35        -2.1250   -0.2990    3.0330 hc        1 OMM      0.048200
     51 H35A       -3.4100   -0.3570    1.7580 hc        1 OMM      0.048200
     52 H36        -4.0610   -1.6330    3.7960 hc        1 OMM      0.042950
     53 H36A       -3.9660   -2.6860    2.3290 hc        1 OMM      0.042950
     54 H37        -1.8530   -4.2180    2.0560 hc        1 OMM      0.042950
     55 H37A       -0.5920   -4.1540    3.3520 hc        1 OMM      0.042950
     56 H38        -1.8510   -2.4140    4.5720 hc        1 OMM      0.037700
     57 H38A       -2.9240   -3.8330    4.2490 hc        1 OMM      0.037700
     58 N9          1.4010   -0.5770   -0.4290 n         1 OMM     -0.438100
     59 C13         6.0770   -2.6420   -3.1060 c         1 OMM      0.910200
     60 O19        -0.2840   -2.0070   -1.1450 o         1 OMM     -0.597100
@<TRIPOS>BOND
     1    1    2 1   
     2    1    4 1   
     3    1    7 1   
     4    2    3 2   
     5    2   12 1   
     6    3    5 1   
     7    4    5 ar  
     8    4    8 ar  
     9    5    9 ar  
    10    6    7 1   
    11    6   58 1   
    12    6   60 2   
    13    7   20 1   
    14    7   36 1   
    15    8   10 ar  
    16    8   37 1   
    17    9   13 ar  
    18    9   39 1   
    19   10   13 ar  
    20   10   23 1   
    21   11   15 ar  
    22   11   18 ar  
    23   11   58 1   
    24   12   21 ar  
    25   12   22 ar  
    26   13   24 1   
    27   14   16 ar  
    28   14   19 ar  
    29   14   59 1   
    30   15   16 ar  
    31   15   25 1   
    32   16   40 1   
    33   17   59 1   
    34   18   19 ar  
    35   18   41 1   
    36   19   42 1   
    37   20   31 1   
    38   20   32 1   
    39   20   43 1   
    40   21   29 ar  
    41   21   44 1   
    42   22   28 ar  
    43   22   45 1   
    44   26   59 1   
    45   27   28 ar  
    46   27   29 ar  
    47   27   30 1   
    48   28   46 1   
    49   29   47 1   
    50   31   34 1   
    51   31   48 1   
    52   31   49 1   
    53   32   33 1   
    54   32   50 1   
    55   32   51 1   
    56   33   35 1   
    57   33   52 1   
    58   33   53 1   
    59   34   35 1   
    60   34   54 1   
    61   34   55 1   
    62   35   56 1   
    63   35   57 1   
    64   38   58 1   
@<TRIPOS>SUBSTRUCTURE
     1 OMM         1 TEMP              0 ****  ****    0 ROOT
