@<TRIPOS>MOLECULE
OMM
   60    61     1     0     0
SMALL
bcc


@<TRIPOS>ATOM
      1 N1          0.3260    0.1200   -0.1370 n3        1 OMM     -0.245000
      2 C2          1.6720   -0.3560   -0.3910 c2        1 OMM      0.084000
      3 N3          2.3250   -0.7510    0.6870 n2        1 OMM     -0.104000
      4 C4          0.1500    0.0590    1.2390 c2        1 OMM      0.062000
      5 C5          1.3920   -0.6530    1.8170 c3        1 OMM     -0.087000
      6 C6         -1.1210    1.9060   -1.1240 c2        1 OMM      0.333000
      7 C7         -0.6570    0.4030   -1.1590 c3        1 OMM     -0.033000
      8 C8         -0.7870    0.6090    2.0720 c2        1 OMM     -0.288000
      9 C10         1.8240   -0.2150    3.1510 c1        1 OMM     -0.057000
     10 C11        -0.4500    0.7370    3.4570 c2        1 OMM      0.213000
     11 C12        -1.0780    4.0640   -2.3260 c3        1 OMM      0.031000
     12 C14         2.2330   -0.3140   -1.7570 cx        1 OMM     -0.153000
     13 C15         0.8380    0.4060    3.9430 c2        1 OMM     -0.116000
     14 C16        -0.7420    5.9210   -5.1860 cu        1 OMM      0.145000
     15 C17        -2.2080    4.2290   -3.5080 c3        1 OMM      0.149000
     16 C18        -1.4980    5.0940   -4.4560 cu        1 OMM     -0.307000
     17 O20         0.1610    6.1850   -7.3420 o         1 OMM     -0.514000
     18 C21         0.0990    4.9670   -2.7330 c2        1 OMM     -0.285000
     19 C22        -0.1840    5.5020   -3.9180 cu        1 OMM     -0.108000
     20 C23        -1.8900   -0.3780   -1.2480 c1        1 OMM     -0.067000
     21 C24         3.0440    0.9510   -2.0570 c3        1 OMM     -0.216000
     22 C25         1.7440   -1.4130   -2.7140 cx        1 OMM     -0.088000
     23 F26        -1.3790    1.2500    4.2820 f         1 OMM     -0.075000
     24 F27         1.1320    0.7170    5.2340 f         1 OMM     -0.096000
     25 F28        -2.6530    3.0270   -4.0160 f         1 OMM     -0.163000
     26 O29        -1.0000    7.8910   -6.4480 o         1 OMM     -0.514000
     27 C30         4.4040   -0.9700   -2.5520 c2        1 OMM     -0.134000
     28 C31         3.1390   -1.3890   -2.3200 cu        1 OMM     -0.071000
     29 C32         4.4440    0.4940   -2.3490 c1        1 OMM      0.077000
     30 CL33        5.6830   -1.8400   -3.1680 cl        1 OMM      0.060000
     31 C34        -4.4800   -0.8700   -3.3300 c1        1 OMM     -0.229250
     32 C35        -2.3790   -1.3420   -0.3070 c3        1 OMM     -0.281000
     33 C36        -5.9990   -0.5450    1.1200 c1        1 OMM     -0.229250
     34 C37        -5.4620   -1.2030   -3.9280 c1        1 OMM     -0.229250
     35 C38        -5.7690   -0.4870   -0.0520 c1        1 OMM     -0.229250
     36 H7         -0.1370    0.1960   -2.1560 h1        1 OMM      0.160000
     37 H8         -1.7220    1.0640    1.7030 ha        1 OMM      0.195000
     38 HN9        -0.1530    2.2930   -2.8850 hn        1 OMM      0.231000
     39 H10         1.0850   -1.7340    2.0710 h1        1 OMM      0.189000
     40 H18        -3.0850    4.7690   -3.0520 h1        1 OMM      0.110000
     41 H21        -1.5500    4.4370   -1.3750 h1        1 OMM      0.124000
     42 H22         0.9630    5.0820   -2.0880 ha        1 OMM      0.151000
     43 H23        -3.6010   -0.5580   -2.8050 ha        1 OMM      0.228250
     44 H24         2.6610    1.4990   -2.9590 hc        1 OMM      0.162500
     45 H25         1.5190   -1.1910   -3.7780 hc        1 OMM      0.143000
     46 H31         1.0370   -2.1510   -2.2860 hc        1 OMM      0.143000
     47 H32         3.0390    1.6670   -1.1940 hc        1 OMM      0.162500
     48 H34        -1.0080   -1.8630   -3.0960 ha        1 OMM      0.002000
     49 H34A       -1.6830   -1.9010   -3.1660 ha        1 OMM      0.002000
     50 H35        -1.7000   -1.6420    0.5310 hc        1 OMM      0.125333
     51 H35A       -2.7100   -2.2620   -0.8630 hc        1 OMM      0.125333
     52 H36        -3.2460   -3.7480   -2.5720 ha        1 OMM      0.002000
     53 H36A       -3.3160   -0.8840    0.1390 hc        1 OMM      0.125333
     54 H37        -3.5670   -3.1940   -2.7970 ha        1 OMM      0.002000
     55 H37A       -5.5670   -0.4270   -1.0970 ha        1 OMM      0.228250
     56 H38        -6.2040   -0.5890    2.1590 ha        1 OMM      0.228250
     57 H38A       -6.3310   -1.4920   -4.4620 ha        1 OMM      0.228250
     58 N9         -0.6470    2.7030   -2.1260 n         1 OMM     -0.324000
     59 C13        -0.5050    6.7380   -6.4320 c2        1 OMM      0.395000
     60 O19        -1.8450    2.2970   -0.1900 o         1 OMM     -0.371000
@<TRIPOS>BOND
     1    1    2 1   
     2    1    4 1   
     3    1    7 1   
     4    2    3 1   
     5    2   12 1   
     6    3    5 1   
     7    4    5 1   
     8    4    8 1   
     9    5    9 1   
    10    5   39 1   
    11    6    7 1   
    12    6   58 1   
    13    6   60 1   
    14    7   20 1   
    15    7   36 1   
    16    8   10 1   
    17    8   37 1   
    18    9   13 1   
    19   10   13 1   
    20   10   23 1   
    21   11   15 1   
    22   11   18 1   
    23   11   41 1   
    24   11   58 1   
    25   12   21 1   
    26   12   22 1   
    27   12   28 1   
    28   13   24 1   
    29   14   16 1   
    30   14   19 1   
    31   14   59 1   
    32   15   16 1   
    33   15   25 1   
    34   15   40 1   
    35   16   19 1   
    36   17   59 1   
    37   18   19 1   
    38   18   42 1   
    39   20   32 1   
    40   21   29 1   
    41   21   44 1   
    42   21   47 1   
    43   22   28 1   
    44   22   45 1   
    45   22   46 1   
    46   26   59 1   
    47   27   28 1   
    48   27   29 1   
    49   27   30 1   
    50   31   34 1   
    51   31   43 1   
    52   32   50 1   
    53   32   51 1   
    54   32   53 1   
    55   33   35 1   
    56   33   56 1   
    57   34   57 1   
    58   35   55 1   
    59   38   58 1   
    60   48   49 1   
    61   52   54 1   
@<TRIPOS>SUBSTRUCTURE
     1 OMM         1 TEMP              0 ****  ****    0 ROOT
