@<TRIPOS>MOLECULE
OMM
   60    54     1     0     0
SMALL
bcc


@<TRIPOS>ATOM
      1 N1          0.2680   -0.8440    0.8860 n2        1 OMM     -0.149500
      2 C2          1.2600   -1.7760    1.0290 c2        1 OMM      0.067000
      3 N3          1.7600   -1.6690    2.2930 n2        1 OMM     -0.149500
      4 C4          0.1560   -0.1640    2.0610 c1        1 OMM     -0.039500
      5 C5          1.0810   -0.6750    2.9340 c1        1 OMM     -0.039500
      6 C6          0.1680    0.2120   -1.2750 c1        1 OMM      0.287000
      7 C7         -0.3190   -0.9390   -0.4100 c1        1 OMM      0.000000
      8 C8         -0.7030    0.8790    2.4730 c1        1 OMM     -0.121500
      9 N9          0.0550    1.5740   -0.7980 n3        1 OMM     -0.293000
     10 C10         1.1740   -0.1590    4.2450 c1        1 OMM     -0.121500
     11 C11        -0.6110    1.3860    3.7640 c1        1 OMM      0.058500
     12 C12         0.5500    2.6770   -1.6150 c2        1 OMM     -0.018000
     13 C13         1.5640    6.3140   -3.7010 c1        1 OMM      0.359000
     14 C14         2.2700   -2.7680    1.0830 c1        1 OMM     -0.032000
     15 C15         0.3270    0.8670    4.6500 c1        1 OMM      0.058500
     16 C16         1.2030    5.0280   -2.9650 c1        1 OMM     -0.092000
     17 C17         0.0110    3.8930   -1.1980 c2        1 OMM      0.012000
     18 C18         0.3380    5.0680   -1.8740 c2        1 OMM     -0.116000
     19 O19         0.6750   -0.0130   -2.3580 o         1 OMM     -0.357000
     20 O20         0.8840    6.6820   -4.6990 o         1 OMM     -0.556500
     21 C21         1.4150    2.6370   -2.7070 c1        1 OMM     -0.142000
     22 C22         1.7420    3.8110   -3.3810 c1        1 OMM     -0.104000
     23 C23        -1.8390   -0.8770   -0.2880 c3        1 OMM     -0.108000
     24 C24         1.9490   -4.1200    1.0650 c1        1 OMM     -0.116000
     25 C25         3.5770   -2.3660    1.3540 c1        1 OMM     -0.068000
     26 F26        -1.3740    2.4020    4.2000 f         1 OMM     -0.092500
     27 F27         0.3030    1.6660    5.7320 f         1 OMM     -0.092500
     28 F28        -0.8260    3.9310   -0.1490 f         1 OMM     -0.139000
     29 O29         2.5560    7.0000   -3.3250 o         1 OMM     -0.556500
     30 C30         4.2380   -4.6710    1.5890 c1        1 OMM     -0.045000
     31 C31         4.5590   -3.3170    1.6070 c1        1 OMM     -0.125000
     32 C32         2.9330   -5.0730    1.3190 c1        1 OMM     -0.116000
     33 CL33        5.4530   -5.8620    1.9840 cl        1 OMM     -0.017000
     34 C34        -2.3790    0.0930   -1.3320 c3        1 OMM     -0.157000
     35 C35        -2.4050   -2.2840   -0.4530 c3        1 OMM     -0.157000
     36 C36        -3.9230   -2.2950   -0.5260 c3        1 OMM     -0.155000
     37 C37        -3.8990    0.0820   -1.4050 c3        1 OMM     -0.155000
     38 C38        -4.4630   -1.3240   -1.5700 c3        1 OMM     -0.157000
     39 H7         -0.0600   -1.7910   -0.8240 ha        1 OMM      0.144000
     40 H8         -1.3620    1.2430    1.8520 ha        1 OMM      0.165000
     41 HN9        -0.3100    1.7420    0.0270 hn        1 OMM      0.234000
     42 H10         1.8360   -0.5250    4.8700 ha        1 OMM      0.165000
     43 H18        -0.0430    5.9260   -1.5800 ha        1 OMM      0.172000
     44 H21         1.7940    1.7820   -3.0000 ha        1 OMM      0.148000
     45 H22         2.3530    3.7820   -4.1520 ha        1 OMM      0.163000
     46 H23        -2.0730   -0.5430    0.6060 hc        1 OMM      0.101000
     47 H24         1.0300   -4.4040    0.8740 ha        1 OMM      0.145500
     48 H25         3.8050   -1.4090    1.3660 ha        1 OMM      0.160000
     49 H31         5.4790   -3.0340    1.7980 ha        1 OMM      0.154000
     50 H32         2.7040   -6.0280    1.3190 ha        1 OMM      0.145500
     51 H34        -2.0810    0.9980   -1.1070 hc        1 OMM      0.090750
     52 H34A       -2.0170   -0.1520   -2.2110 hc        1 OMM      0.090750
     53 H35        -2.1200   -2.8310    0.3100 hc        1 OMM      0.090750
     54 H35A       -2.0440   -2.6760   -1.2790 hc        1 OMM      0.090750
     55 H36        -4.2230   -3.2000   -0.7510 hc        1 OMM      0.082750
     56 H36A       -4.2850   -2.0490    0.3530 hc        1 OMM      0.082750
     57 H37        -4.1850    0.6310   -2.1700 hc        1 OMM      0.082750
     58 H37A       -4.2600    0.4740   -0.5800 hc        1 OMM      0.082750
     59 H38        -5.4410   -1.2840   -1.4920 hc        1 OMM      0.077000
     60 H38A       -4.2290   -1.6570   -2.4660 hc        1 OMM      0.077000
@<TRIPOS>BOND
     1    1    2 1   
     2    1    4 1   
     3    2    3 1   
     4    2   14 1   
     5    3    5 1   
     6    4    5 1   
     7    6    9 1   
     8    6   19 1   
     9    7   23 1   
    10    7   39 1   
    11    8   11 1   
    12    8   40 1   
    13    9   12 1   
    14    9   41 1   
    15   10   15 1   
    16   10   42 1   
    17   11   26 1   
    18   12   17 1   
    19   12   21 1   
    20   13   20 1   
    21   13   29 1   
    22   14   25 1   
    23   15   27 1   
    24   16   18 1   
    25   16   22 1   
    26   17   18 1   
    27   17   28 1   
    28   18   43 1   
    29   21   44 1   
    30   22   45 1   
    31   23   34 1   
    32   23   35 1   
    33   23   46 1   
    34   24   32 1   
    35   24   47 1   
    36   25   48 1   
    37   30   31 1   
    38   30   33 1   
    39   31   49 1   
    40   32   50 1   
    41   34   37 1   
    42   34   51 1   
    43   34   52 1   
    44   35   36 1   
    45   35   53 1   
    46   35   54 1   
    47   36   38 1   
    48   36   55 1   
    49   36   56 1   
    50   37   38 1   
    51   37   57 1   
    52   37   58 1   
    53   38   59 1   
    54   38   60 1   
@<TRIPOS>SUBSTRUCTURE
     1 OMM         1 TEMP              0 ****  ****    0 ROOT
