@<TRIPOS>MOLECULE
OMM
   60    59     1     0     0
SMALL
bcc


@<TRIPOS>ATOM
      1 N1          0.7220    0.1410    0.7640 n3        1 OMM      0.020000
      2 C2          2.1450   -0.0550    0.4710 c2        1 OMM      0.014000
      3 N3          2.7970   -0.7230    1.4090 n2        1 OMM     -0.105000
      4 C4          0.4990   -0.4730    1.9550 c2        1 OMM      0.004000
      5 C5          1.8090   -1.1610    2.4020 c3        1 OMM     -0.041000
      6 C6         -2.5070    1.1330   -0.5440 c1        1 OMM      0.062000
      7 C7         -0.1710    0.7220   -0.1150 c2        1 OMM     -0.424000
      8 C8         -0.5880   -0.3910    2.8480 c2        1 OMM     -0.306000
      9 C10         2.0860   -1.0730    3.8450 c1        1 OMM     -0.207000
     10 C11        -0.3190   -0.5900    4.2000 c2        1 OMM      0.190000
     11 C12        -0.8900    2.4220   -4.0380 c2        1 OMM     -0.082000
     12 C14         2.7660    0.4920   -0.7420 c2        1 OMM     -0.003000
     13 C15         1.0250   -0.8470    4.6830 c2        1 OMM     -0.137000
     14 C16        -0.9430    4.8940   -5.0850 c1        1 OMM     -0.248000
     15 C17        -0.4990    2.6840   -5.5420 c3        1 OMM      0.032000
     16 C18        -0.4790    4.1280   -6.1320 c1        1 OMM      0.095000
     17 O20        -0.9780    4.1340   -8.8310 o         1 OMM     -0.250500
     18 C21        -1.2540    3.5860   -3.0670 c3        1 OMM     -0.095000
     19 C22        -1.2240    4.7600   -3.8910 c1        1 OMM     -0.015000
     20 C23        -1.4590    0.2490   -0.4080 c2        1 OMM     -0.101000
     21 C24         4.1300    1.0620   -0.5920 c3        1 OMM     -0.198000
     22 C25         2.1560    0.4590   -1.9550 c2        1 OMM     -0.157000
     23 F26        -1.3330   -0.5110    5.0880 f         1 OMM     -0.106000
     24 F27         1.1890   -0.8440    6.0370 f         1 OMM     -0.125000
     25 F28         0.7200    2.0890   -5.8140 f         1 OMM     -0.130000
     26 O29         1.0270    5.2570   -8.2200 o         1 OMM     -0.250500
     27 C30         4.0700    1.5240   -3.0130 c2        1 OMM     -0.163000
     28 C31         2.8120    0.9910   -3.1170 c2        1 OMM     -0.021000
     29 C32         4.7730    1.5940   -1.7800 c1        1 OMM     -0.082000
     30 Cl33        4.8460    2.1460   -4.3960 cl        1 OMM     -0.018000
     31 C34        -5.5110    0.3530   -3.0400 c3        1 OMM     -0.129000
     32 C35        -1.8070   -1.1940   -0.2580 c3        1 OMM     -0.110000
     33 C36        -3.2040   -1.5180   -0.7290 c3        1 OMM     -0.217000
     34 C37        -6.9000    0.0320   -3.0010 c1        1 OMM     -0.144000
     35 C38        -8.0660   -0.2370   -2.9670 c1        1 OMM     -0.254000
     36 H7          0.1720    1.6810   -0.5280 h4        1 OMM      0.128000
     37 H8         -1.5850   -0.0890    2.5040 ha        1 OMM      0.161000
     38 HN9        -1.1830    1.0140   -2.7120 hn        1 OMM      0.193000
     39 H10         1.6920   -2.2880    2.2420 h1        1 OMM      0.174000
     40 H18        -1.3010    2.1760   -6.1670 h1        1 OMM      0.144000
     41 H21        -2.2720    3.4000   -2.6150 hc        1 OMM      0.170000
     42 H22        -0.5140    3.6370   -2.2230 hc        1 OMM      0.170000
     43 H23        -4.9150   -0.5200   -3.4140 hc        1 OMM      0.103667
     44 H24         4.1180    1.8850    0.1860 hc        1 OMM      0.185500
     45 H25         1.1440    0.0350   -2.0820 ha        1 OMM      0.175000
     46 H31         2.2610    0.9580   -4.0750 ha        1 OMM      0.161000
     47 H32         4.8290    0.2740   -0.1660 hc        1 OMM      0.185500
     48 H34        -5.3270    1.2250   -3.7200 hc        1 OMM      0.103667
     49 H34A       -5.1310    0.6250   -2.0160 hc        1 OMM      0.103667
     50 H35        -1.6980   -1.5090    0.8170 hc        1 OMM      0.087000
     51 H35A       -1.0620   -1.7860   -0.8550 hc        1 OMM      0.087000
     52 H36        -3.9620   -0.9440   -0.1390 hc        1 OMM      0.072333
     53 H36A       -3.4080   -2.6090   -0.6070 hc        1 OMM      0.072333
     54 H37        -4.9280    1.1310    0.2500 ha        1 OMM      0.001000
     55 H37A       -5.5460    0.9000    0.4080 ha        1 OMM      0.001000
     56 H38        -3.3320   -1.2510   -1.8060 hc        1 OMM      0.072333
     57 H38A       -9.0970   -0.4740   -2.9330 ha        1 OMM      0.213000
     58 N9         -0.9290    1.1980   -3.6650 n2        1 OMM     -0.205000
     59 C13         0.0090    4.6710   -8.4240 c1        1 OMM      0.464000
     60 O19        -3.1250    1.8540   -1.3000 o         1 OMM     -0.320000
@<TRIPOS>BOND
     1    1    2 1   
     2    1    4 1   
     3    1    7 1   
     4    2    3 1   
     5    2   12 1   
     6    3    5 1   
     7    4    5 1   
     8    4    8 1   
     9    5    9 1   
    10    5   39 1   
    11    6   20 1   
    12    6   60 1   
    13    7   20 1   
    14    7   36 1   
    15    8   10 1   
    16    8   37 1   
    17    9   13 1   
    18   10   13 1   
    19   10   23 1   
    20   11   15 1   
    21   11   18 1   
    22   11   58 1   
    23   12   21 1   
    24   12   22 1   
    25   13   24 1   
    26   14   16 1   
    27   14   19 1   
    28   15   16 1   
    29   15   25 1   
    30   15   40 1   
    31   17   59 1   
    32   18   19 1   
    33   18   41 1   
    34   18   42 1   
    35   20   32 1   
    36   21   29 1   
    37   21   44 1   
    38   21   47 1   
    39   22   28 1   
    40   22   45 1   
    41   26   59 1   
    42   27   28 1   
    43   27   29 1   
    44   27   30 1   
    45   28   46 1   
    46   31   34 1   
    47   31   43 1   
    48   31   48 1   
    49   31   49 1   
    50   32   33 1   
    51   32   50 1   
    52   32   51 1   
    53   33   52 1   
    54   33   53 1   
    55   33   56 1   
    56   34   35 1   
    57   35   57 1   
    58   38   58 1   
    59   54   55 1   
@<TRIPOS>SUBSTRUCTURE
     1 OMM         1 TEMP              0 ****  ****    0 ROOT
