@<TRIPOS>MOLECULE
OMN
   27    23     1     0     0
SMALL
bcc


@<TRIPOS>ATOM
      1 C1         -3.8440   -0.2540   -0.7450 c3        1 OMN     -0.068000
      2 N1         -2.4200   -0.2260   -0.7670 n3        1 OMN     -0.093000
      3 N2         -1.5960   -0.2480    0.3300 n2        1 OMN     -0.030000
      4 C2         -0.3190   -0.2300   -0.1050 c2        1 OMN     -0.019000
      5 C3         -0.3400   -0.1980   -1.4690 c1        1 OMN     -0.205000
      6 BR1         1.1890   -0.1090   -2.6140 br        1 OMN      0.150000
      7 C4         -1.6440   -0.1950   -1.8710 c1        1 OMN     -0.167000
      8 C5         -2.1340   -0.1420   -3.3010 c2        1 OMN      0.504000
      9 F1         -2.9660    0.8970   -3.4490 f         1 OMN     -0.163333
     10 F2         -2.7810   -1.2770   -3.5940 f         1 OMN     -0.163333
     11 F3         -1.0890    0.0030   -4.1260 f         1 OMN     -0.163333
     12 C6          0.8140   -0.2450    0.6930 c1        1 OMN     -0.086000
     13 C7          1.3480    0.9450    1.1610 c1        1 OMN     -0.060000
     14 C8          2.4710    0.9290    1.9730 c1        1 OMN     -0.084000
     15 C9          3.0320    2.2260    2.5140 c1        1 OMN      0.368000
     16 O1          3.7920    2.9310    1.7980 o         1 OMN     -0.541000
     17 O2          2.7530    2.5920    3.6860 o         1 OMN     -0.541000
     18 C10         3.0600   -0.2780    2.3170 c2        1 OMN     -0.010000
     19 CL1         4.4990   -0.2950    3.3030 cl        1 OMN     -0.018000
     20 C11         2.5260   -1.4680    1.8490 c1        1 OMN     -0.189000
     21 C12         1.4030   -1.4520    1.0370 c1        1 OMN      0.088000
     22 F4          0.9040   -2.6000    0.5620 f         1 OMN     -0.121000
     23 H11A       -4.1540   -0.4330    0.1690 h1        1 OMN      0.105333
     24 H12        -4.1920    0.6140   -1.0440 h1        1 OMN      0.105333
     25 H13        -4.1660   -0.9600   -1.3450 h1        1 OMN      0.105333
     26 H7          0.9240    1.7940    0.9310 ha        1 OMN      0.153000
     27 H11         2.9290   -2.3190    2.1080 ha        1 OMN      0.141000
@<TRIPOS>BOND
     1    1    2 1   
     2    1   23 1   
     3    1   24 1   
     4    1   25 1   
     5    2    3 1   
     6    2    7 1   
     7    3    4 1   
     8    4    5 1   
     9    4   12 1   
    10    5    7 1   
    11    8    9 1   
    12    8   10 1   
    13    8   11 1   
    14   12   21 1   
    15   13   14 1   
    16   13   26 1   
    17   14   18 1   
    18   15   16 1   
    19   15   17 1   
    20   18   19 1   
    21   18   20 1   
    22   20   27 1   
    23   21   22 1   
@<TRIPOS>SUBSTRUCTURE
     1 OMN         1 TEMP              0 ****  ****    0 ROOT
