@<TRIPOS>MOLECULE
OMN
   27    28     1     0     0
SMALL
bcc


@<TRIPOS>ATOM
      1 C1         -3.2850    2.2430   -1.9160 c3        1 OMN      0.031600
      2 N1         -2.2930    1.5910   -1.0930 na        1 OMN      0.121400
      3 N2         -1.0260    1.3990   -1.4660 nc        1 OMN     -0.462800
      4 C2         -0.3990    0.7240   -0.4570 cd        1 OMN      0.416800
      5 C3         -1.3440    0.4680    0.6240 cd        1 OMN     -0.130200
      6 BR1        -0.9660   -0.4040    2.1840 br        1 OMN      0.009900
      7 C4         -2.5520    1.0350    0.1740 cc        1 OMN     -0.198600
      8 C5         -3.9190    1.1350    0.8120 c3        1 OMN      0.725200
      9 F1         -4.9520    0.7600   -0.0200 f         1 OMN     -0.234633
     10 F2         -4.1190    0.3830    1.9370 f         1 OMN     -0.234633
     11 F3         -4.2620    2.4120    1.1910 f         1 OMN     -0.234633
     12 C6          1.0010    0.3290   -0.4890 ca        1 OMN     -0.193500
     13 C7          1.8820    0.7640    0.5050 ca        1 OMN     -0.060000
     14 C8          3.2310    0.3980    0.5010 ca        1 OMN     -0.104600
     15 C9          4.1320    0.9150    1.6300 c         1 OMN      0.919200
     16 O1          4.2650    0.1760    2.6400 o         1 OMN     -0.806300
     17 O2          4.6450    2.0530    1.4750 o         1 OMN     -0.806300
     18 C10         3.6980   -0.4190   -0.5340 ca        1 OMN      0.068400
     19 CL1         5.3300   -0.9000   -0.6030 cl        1 OMN     -0.096400
     20 C11         2.8450   -0.8680   -1.5470 ca        1 OMN     -0.188000
     21 C12         1.4930   -0.4910   -1.5290 ca        1 OMN      0.122900
     22 F4          0.6720   -0.9340   -2.5150 f         1 OMN     -0.155900
     23 H11A       -3.9440    1.4660   -2.3890 h1        1 OMN      0.065700
     24 H12        -3.9100    2.9090   -1.2620 h1        1 OMN      0.065700
     25 H13        -2.7890    2.8530   -2.7160 h1        1 OMN      0.065700
     26 H7          1.5190    1.4160    1.3160 ha        1 OMN      0.153000
     27 H11         3.2150   -1.5090   -2.3590 ha        1 OMN      0.141000
@<TRIPOS>BOND
     1    1    2 1   
     2    1   23 1   
     3    1   24 1   
     4    1   25 1   
     5    2    3 1   
     6    2    7 1   
     7    3    4 2   
     8    4    5 1   
     9    4   12 1   
    10    5    6 1   
    11    5    7 2   
    12    7    8 1   
    13    8    9 1   
    14    8   10 1   
    15    8   11 1   
    16   12   13 ar  
    17   12   21 ar  
    18   13   14 ar  
    19   13   26 1   
    20   14   15 1   
    21   14   18 ar  
    22   15   16 1   
    23   15   17 1   
    24   18   19 1   
    25   18   20 ar  
    26   20   21 ar  
    27   20   27 1   
    28   21   22 1   
@<TRIPOS>SUBSTRUCTURE
     1 OMN         1 TEMP              0 ****  ****    0 ROOT
