@<TRIPOS>MOLECULE
OMN
   27    28     1     0     0
SMALL
bcc


@<TRIPOS>ATOM
      1 C1          0.3700    1.2640   -0.3380 c3        1 OMN      0.030600
      2 N1          1.6620    0.6460   -0.1500 na        1 OMN      0.120400
      3 N2          2.4820    0.9290    0.8650 nc        1 OMN     -0.462800
      4 C2          3.5730    0.1160    0.7500 cd        1 OMN      0.416800
      5 C3          3.4250   -0.7440   -0.4180 cd        1 OMN     -0.130200
      6 BR1         4.6450   -1.9730   -0.9970 br        1 OMN      0.009900
      7 C4          2.1780   -0.3800   -0.9630 cc        1 OMN     -0.198600
      8 C5          1.4300   -0.8680   -2.1830 c3        1 OMN      0.725200
      9 F1          1.3750    0.0560   -3.2030 f         1 OMN     -0.234633
     10 F2          1.9150   -1.9990   -2.7790 f         1 OMN     -0.234633
     11 F3          0.1050   -1.1620   -1.9470 f         1 OMN     -0.234633
     12 C6          4.7020    0.1350    1.6670 ca        1 OMN     -0.193500
     13 C7          5.0760   -1.0250    2.3530 ca        1 OMN     -0.060000
     14 C8          6.1570   -1.0370    3.2390 ca        1 OMN     -0.104600
     15 C9          6.5050   -2.3510    3.9490 c         1 OMN      0.919200
     16 O1          7.3660   -3.0880    3.4030 o         1 OMN     -0.806300
     17 O2          5.8780   -2.6100    5.0100 o         1 OMN     -0.806300
     18 C10         6.8700    0.1500    3.4390 ca        1 OMN      0.068400
     19 CL1         8.1950    0.2080    4.5070 cl        1 OMN     -0.096400
     20 C11         6.5210    1.3290    2.7740 ca        1 OMN     -0.189000
     21 C12         5.4320    1.3250    1.8870 ca        1 OMN      0.122900
     22 F4          5.1020    2.4740    1.2440 f         1 OMN     -0.155900
     23 H11A        0.2250    1.4600   -1.4340 h1        1 OMN      0.066033
     24 H12         0.3130    2.2280    0.2320 h1        1 OMN      0.066033
     25 H13        -0.4330    0.5660    0.0220 h1        1 OMN      0.066033
     26 H7          4.5100   -1.9580    2.2050 ha        1 OMN      0.153000
     27 H11         7.0820    2.2600    2.9340 ha        1 OMN      0.141000
@<TRIPOS>BOND
     1    1    2 1   
     2    1   23 1   
     3    1   24 1   
     4    1   25 1   
     5    2    3 1   
     6    2    7 1   
     7    3    4 2   
     8    4    5 1   
     9    4   12 1   
    10    5    6 1   
    11    5    7 2   
    12    7    8 1   
    13    8    9 1   
    14    8   10 1   
    15    8   11 1   
    16   12   13 ar  
    17   12   21 ar  
    18   13   14 ar  
    19   13   26 1   
    20   14   15 1   
    21   14   18 ar  
    22   15   16 1   
    23   15   17 1   
    24   18   19 1   
    25   18   20 ar  
    26   20   21 ar  
    27   20   27 1   
    28   21   22 1   
@<TRIPOS>SUBSTRUCTURE
     1 OMN         1 TEMP              0 ****  ****    0 ROOT
