@<TRIPOS>MOLECULE
OMP
   34    35     1     0     0
SMALL
bcc


@<TRIPOS>ATOM
      1 P           1.0740   -0.8500   -0.3810 p5        1 OMP      1.336900
      2 O1P         1.7000   -1.4440   -1.6260 o         1 OMP     -0.935500
      3 O2P         1.7440   -1.1950    0.9180 o         1 OMP     -0.935500
      4 O3P         0.5890    0.5650   -0.5360 o         1 OMP     -0.935500
      5 O5'        -0.3980   -1.7580   -0.3230 os        1 OMP     -0.571200
      6 C5'        -1.2460   -1.5590   -1.3840 c3        1 OMP      0.231400
      7 C4'        -1.2760   -2.8090   -2.2930 c3        1 OMP      0.068100
      8 O4'        -2.6460   -3.1650   -2.5950 os        1 OMP     -0.434600
      9 C3'        -0.5480   -2.6320   -3.6370 c3        1 OMP      0.124100
     10 O3'         0.7430   -3.1920   -3.6140 oh        1 OMP     -0.689800
     11 C2'        -1.4020   -3.4100   -4.6640 c3        1 OMP      0.110100
     12 O2'        -0.8180   -4.6230   -5.0900 oh        1 OMP     -0.608800
     13 C1'        -2.7430   -3.7140   -3.9140 c3        1 OMP      0.269500
     14 N1         -3.9570   -3.2050   -4.5720 n         1 OMP     -0.323000
     15 C2         -4.0060   -1.8480   -4.9860 c         1 OMP      0.793500
     16 O2         -3.0030   -1.1030   -5.0570 o         1 OMP     -0.655500
     17 N3         -5.2360   -1.3010   -5.4180 n         1 OMP     -0.599500
     18 C4         -6.4230   -2.0440   -5.4610 c         1 OMP      0.721700
     19 O4         -7.4680   -1.4670   -5.8550 o         1 OMP     -0.734500
     20 C5         -6.3090   -3.4270   -5.0560 cc        1 OMP     -0.399200
     21 C6         -5.1200   -3.9620   -4.6140 cd        1 OMP      0.089400
     22 C7         -5.1580   -5.4790   -4.2690 c         1 OMP      0.922800
     23 O71        -4.3950   -6.2390   -4.9180 o         1 OMP     -0.800300
     24 O72        -6.0140   -5.8390   -3.4230 o         1 OMP     -0.800300
     25 H1'        -2.8840   -4.8350   -3.8180 h2        1 OMP      0.114700
     26 H2'        -1.5610   -2.8160   -5.6010 h1        1 OMP      0.076700
     27 H3'        -0.5010   -1.5470   -3.9240 h1        1 OMP      0.070700
     28 H4'        -0.8350   -3.6790   -1.7340 h1        1 OMP      0.060700
     29 HO2'       -0.2550   -4.9390   -4.3710 ho        1 OMP      0.418000
     30 HO3'        1.2460   -2.6960   -2.9170 ho        1 OMP      0.517000
     31 H5'1       -0.9350   -0.6580   -1.9840 h1        1 OMP      0.008700
     32 H5'2       -2.2980   -1.4000   -1.0030 h1        1 OMP      0.008700
     33 HN3        -5.2380   -0.3350   -5.6490 hn        1 OMP      0.318500
     34 H5         -7.2150   -4.0430   -5.0770 ha        1 OMP      0.163000
@<TRIPOS>BOND
     1    1    2 1   
     2    1    3 1   
     3    1    4 1   
     4    1    5 1   
     5    5    6 1   
     6    6    7 1   
     7    6   31 1   
     8    6   32 1   
     9    7    8 1   
    10    7    9 1   
    11    7   28 1   
    12    8   13 1   
    13    9   10 1   
    14    9   11 1   
    15    9   27 1   
    16   10   30 1   
    17   11   12 1   
    18   11   13 1   
    19   11   26 1   
    20   12   29 1   
    21   13   14 1   
    22   13   25 1   
    23   14   15 1   
    24   14   21 1   
    25   15   16 2   
    26   15   17 1   
    27   17   18 1   
    28   17   33 1   
    29   18   19 2   
    30   18   20 1   
    31   20   21 2   
    32   20   34 1   
    33   21   22 1   
    34   22   23 1   
    35   22   24 1   
@<TRIPOS>SUBSTRUCTURE
     1 OMP         1 TEMP              0 ****  ****    0 ROOT
