@<TRIPOS>MOLECULE
OMP
   34    35     1     0     0
SMALL
bcc


@<TRIPOS>ATOM
      1 P          -4.6910    0.7450    0.0210 p5        1 OMP      1.336900
      2 O1P        -4.1060    1.7740   -0.9240 o         1 OMP     -0.935500
      3 O2P        -5.7360    1.2490    0.9750 o         1 OMP     -0.935500
      4 O3P        -4.9330   -0.6060   -0.5920 o         1 OMP     -0.935500
      5 O5'        -3.3220    0.4650    1.0430 os        1 OMP     -0.571200
      6 C5'        -2.2300   -0.0800    0.4150 c3        1 OMP      0.231400
      7 C4'        -1.1000    0.9680    0.2900 c3        1 OMP      0.068100
      8 O4'         0.1540    0.3930    0.7250 os        1 OMP     -0.434600
      9 C3'        -0.8830    1.5000   -1.1360 c3        1 OMP      0.124100
     10 O3'        -1.4980    2.7510   -1.3320 oh        1 OMP     -0.689800
     11 C2'         0.6460    1.6780   -1.2720 c3        1 OMP      0.110100
     12 O2'         1.0670    3.0260   -1.2560 oh        1 OMP     -0.608800
     13 C1'         1.2430    0.9310   -0.0330 c3        1 OMP      0.269500
     14 N1          2.2020   -0.1410   -0.3500 n         1 OMP     -0.323000
     15 C2          1.8470   -1.1290   -1.3050 c         1 OMP      0.793500
     16 O2          0.8740   -1.0280   -2.0860 o         1 OMP     -0.655500
     17 N3          2.6650   -2.2720   -1.4540 n         1 OMP     -0.599500
     18 C4          3.8270   -2.4770   -0.6970 c         1 OMP      0.721700
     19 O4          4.4860   -3.5270   -0.8980 o         1 OMP     -0.734500
     20 C5          4.1550   -1.4250    0.2390 cc        1 OMP     -0.399200
     21 C6          3.3520   -0.3200    0.4050 cd        1 OMP      0.089400
     22 C7          3.8790    0.7430    1.4130 c         1 OMP      0.922800
     23 O71         4.1010    1.8990    0.9720 o         1 OMP     -0.800300
     24 O72         4.1230    0.3370    2.5770 o         1 OMP     -0.800300
     25 H1'         1.8010    1.6660    0.6260 h2        1 OMP      0.114700
     26 H2'         1.0230    1.2660   -2.2440 h1        1 OMP      0.076700
     27 H3'        -1.2500    0.7600   -1.8970 h1        1 OMP      0.070700
     28 H4'        -1.3170    1.8250    0.9860 h1        1 OMP      0.060700
     29 HO2'        0.4180    3.5240   -0.7400 ho        1 OMP      0.418000
     30 HO3'       -2.4710    2.6040   -1.1950 ho        1 OMP      0.517000
     31 H5'1       -1.8250   -0.9340    1.0330 h1        1 OMP      0.008700
     32 H5'2       -2.5050   -0.4660   -0.6070 h1        1 OMP      0.008700
     33 HN3         2.3540   -2.9630   -2.0950 hn        1 OMP      0.318500
     34 H5          5.0570   -1.5460    0.8490 ha        1 OMP      0.163000
@<TRIPOS>BOND
     1    1    2 1   
     2    1    3 1   
     3    1    4 1   
     4    1    5 1   
     5    5    6 1   
     6    6    7 1   
     7    6   31 1   
     8    6   32 1   
     9    7    8 1   
    10    7    9 1   
    11    7   28 1   
    12    8   13 1   
    13    9   10 1   
    14    9   11 1   
    15    9   27 1   
    16   10   30 1   
    17   11   12 1   
    18   11   13 1   
    19   11   26 1   
    20   12   29 1   
    21   13   14 1   
    22   13   25 1   
    23   14   15 1   
    24   14   21 1   
    25   15   16 2   
    26   15   17 1   
    27   17   18 1   
    28   17   33 1   
    29   18   19 2   
    30   18   20 1   
    31   20   21 2   
    32   20   34 1   
    33   21   22 1   
    34   22   23 1   
    35   22   24 1   
@<TRIPOS>SUBSTRUCTURE
     1 OMP         1 TEMP              0 ****  ****    0 ROOT
