@<TRIPOS>MOLECULE
OMP
   34    35     1     0     0
SMALL
bcc


@<TRIPOS>ATOM
      1 P           1.1650   -0.7090   -0.5510 p5        1 OMP      1.336900
      2 O1P         1.7300   -1.5710   -1.6630 o         1 OMP     -0.936833
      3 O2P         1.7660   -0.9150    0.8090 o         1 OMP     -0.936833
      4 O3P         0.8610    0.7090   -0.9470 o         1 OMP     -0.936833
      5 O5'        -0.4090   -1.4140   -0.4020 os        1 OMP     -0.571200
      6 C5'        -1.2060   -1.2980   -1.5130 c3        1 OMP      0.231400
      7 C4'        -1.3520   -2.6650   -2.2210 c3        1 OMP      0.071100
      8 O4'        -2.7360   -2.8790   -2.5850 os        1 OMP     -0.435600
      9 C3'        -0.5150   -2.8020   -3.5060 c3        1 OMP      0.127100
     10 O3'         0.6420   -3.5760   -3.2950 oh        1 OMP     -0.690800
     11 C2'        -1.4280   -3.5390   -4.5130 c3        1 OMP      0.106100
     12 O2'        -0.9700   -4.8230   -4.8780 oh        1 OMP     -0.610800
     13 C1'        -2.8090   -3.6600   -3.7850 c3        1 OMP      0.268500
     14 N1         -3.9630   -3.2220   -4.5830 n         1 OMP     -0.327000
     15 C2         -4.0190   -1.8650   -5.0070 c         1 OMP      0.797500
     16 O2         -3.0090   -1.1400   -5.1380 o         1 OMP     -0.647500
     17 N3         -5.2640   -1.3100   -5.3810 ns        1 OMP     -0.600500
     18 C4         -6.4420   -2.0670   -5.4370 c         1 OMP      0.722700
     19 O4         -7.5060   -1.4850   -5.7630 o         1 OMP     -0.734500
     20 C5         -6.2970   -3.4740   -5.1310 cc        1 OMP     -0.398200
     21 C6         -5.1030   -4.0060   -4.7020 cd        1 OMP      0.089400
     22 C7         -5.0930   -5.5410   -4.4530 c         1 OMP      0.923800
     23 O71        -5.3190   -6.2530   -5.4660 o         1 OMP     -0.801300
     24 O72        -4.9280   -5.9570   -3.2810 o         1 OMP     -0.801300
     25 H1'        -3.0090   -4.7350   -3.4890 h2        1 OMP      0.114700
     26 H2'        -1.5080   -2.9690   -5.4750 h1        1 OMP      0.077700
     27 H3'        -0.2350   -1.7900   -3.9050 h1        1 OMP      0.073700
     28 H4'        -1.0760   -3.4830   -1.5000 h1        1 OMP      0.061700
     29 HO2'       -0.4890   -5.1850   -4.1210 ho        1 OMP      0.419000
     30 HO3'        1.2080   -3.0510   -2.6720 ho        1 OMP      0.515000
     31 H5'1       -0.7870   -0.5380   -2.2320 h1        1 OMP      0.007700
     32 H5'2       -2.2430   -0.9730   -1.2030 h1        1 OMP      0.007700
     33 HN3        -5.2800   -0.3380   -5.5820 hn        1 OMP      0.318500
     34 H5         -7.1700   -4.1190   -5.2750 ha        1 OMP      0.159000
@<TRIPOS>BOND
     1    1    2 1   
     2    1    3 1   
     3    1    4 1   
     4    1    5 1   
     5    5    6 1   
     6    6    7 1   
     7    6   31 1   
     8    6   32 1   
     9    7    8 1   
    10    7    9 1   
    11    7   28 1   
    12    8   13 1   
    13    9   10 1   
    14    9   11 1   
    15    9   27 1   
    16   10   30 1   
    17   11   12 1   
    18   11   13 1   
    19   11   26 1   
    20   12   29 1   
    21   13   14 1   
    22   13   25 1   
    23   14   15 1   
    24   14   21 1   
    25   15   16 2   
    26   15   17 1   
    27   17   18 1   
    28   17   33 1   
    29   18   19 2   
    30   18   20 1   
    31   20   21 2   
    32   20   34 1   
    33   21   22 1   
    34   22   23 1   
    35   22   24 1   
@<TRIPOS>SUBSTRUCTURE
     1 OMP         1 TEMP              0 ****  ****    0 ROOT
