@<TRIPOS>MOLECULE
OMP
   34    35     1     0     0
SMALL
bcc


@<TRIPOS>ATOM
      1 P           1.3390   -0.6970   -0.6070 p5        1 OMP      1.331900
      2 O1P         1.8180   -1.6210   -1.7060 o         1 OMP     -0.938167
      3 O2P         1.9420   -0.9120    0.7530 o         1 OMP     -0.938167
      4 O3P         1.1310    0.7320   -1.0270 o         1 OMP     -0.938167
      5 O5'        -0.2820   -1.2850   -0.4210 os        1 OMP     -0.570200
      6 C5'        -1.0530   -1.1990   -1.5520 c3        1 OMP      0.233400
      7 C4'        -1.2790   -2.6000   -2.1680 c3        1 OMP      0.071100
      8 O4'        -2.6880   -2.7590   -2.4780 os        1 OMP     -0.436600
      9 C3'        -0.4810   -2.8620   -3.4630 c3        1 OMP      0.160100
     10 O3'         0.6090   -3.7180   -3.2340 oh        1 OMP     -0.646800
     11 C2'        -1.4900   -3.5020   -4.4450 c3        1 OMP      0.113100
     12 O2'        -1.0780   -4.7830   -4.8710 oh        1 OMP     -0.597800
     13 C1'        -2.8310   -3.5700   -3.6450 c3        1 OMP      0.273500
     14 N1         -4.0170   -3.1520   -4.4090 n         1 OMP     -0.337000
     15 C2         -4.1500   -1.7950   -4.8000 c         1 OMP      0.796500
     16 O2         -3.2020   -0.9830   -4.8310 o         1 OMP     -0.631500
     17 N3         -5.4130   -1.3360   -5.2480 n         1 OMP     -0.602500
     18 C4         -6.5160   -2.1840   -5.4050 c         1 OMP      0.720700
     19 O4         -7.5980   -1.6840   -5.8010 o         1 OMP     -0.731500
     20 C5         -6.2800   -3.5830   -5.1090 cc        1 OMP     -0.391200
     21 C6         -5.0730   -4.0250   -4.6250 cd        1 OMP      0.075400
     22 C7         -4.9120   -5.5610   -4.4580 c         1 OMP      0.922800
     23 O71        -3.9070   -6.0930   -5.0000 o         1 OMP     -0.805300
     24 O72        -5.8330   -6.1680   -3.8580 o         1 OMP     -0.805300
     25 H1'        -3.0240   -4.6340   -3.3060 h2        1 OMP      0.094700
     26 H2'        -1.5970   -2.8440   -5.3510 h1        1 OMP      0.036700
     27 H3'        -0.1160   -1.8890   -3.8940 h1        1 OMP      0.062700
     28 H4'        -1.0300   -3.3870   -1.4050 h1        1 OMP      0.066700
     29 HO2'       -1.8830   -5.2910   -5.0680 ho        1 OMP      0.421000
     30 HO3'        1.2270   -3.2030   -2.6630 ho        1 OMP      0.493000
     31 H5'1       -0.5760   -0.5220   -2.3150 h1        1 OMP      0.005700
     32 H5'2       -2.0710   -0.7870   -1.2850 h1        1 OMP      0.005700
     33 HN3        -5.4930   -0.3650   -5.4400 hn        1 OMP      0.319500
     34 H5         -7.1060   -4.2860   -5.2630 ha        1 OMP      0.165000
@<TRIPOS>BOND
     1    1    2 1   
     2    1    3 1   
     3    1    4 1   
     4    1    5 1   
     5    5    6 1   
     6    6    7 1   
     7    6   31 1   
     8    6   32 1   
     9    7    8 1   
    10    7    9 1   
    11    7   28 1   
    12    8   13 1   
    13    9   10 1   
    14    9   11 1   
    15    9   27 1   
    16   10   30 1   
    17   11   12 1   
    18   11   13 1   
    19   11   26 1   
    20   12   29 1   
    21   13   14 1   
    22   13   25 1   
    23   14   15 1   
    24   14   21 1   
    25   15   16 2   
    26   15   17 1   
    27   17   18 1   
    28   17   33 1   
    29   18   19 2   
    30   18   20 1   
    31   20   21 2   
    32   20   34 1   
    33   21   22 1   
    34   22   23 1   
    35   22   24 1   
@<TRIPOS>SUBSTRUCTURE
     1 OMP         1 TEMP              0 ****  ****    0 ROOT
