@<TRIPOS>MOLECULE
OMT
   21    20     1     0     0
SMALL
bcc


@<TRIPOS>ATOM
      1 N           2.0100   -0.1080   -1.6070 n3        1 OMT     -0.898800
      2 CA          0.5830   -0.4050   -1.6280 c3        1 OMT      0.017500
      3 CB         -0.1500    0.0880   -0.3800 c3        1 OMT     -0.038400
      4 CG          0.2340   -0.7140    0.8530 c3        1 OMT     -0.339600
      5 SD         -0.3290   -0.0490    2.2940 s6        1 OMT      1.328000
      6 CE          0.7850   -0.7830    3.3620 c3        1 OMT     -0.347300
      7 C          -0.1710    0.1310   -2.8950 c         1 OMT      0.891600
      8 O           0.5240    0.6410   -3.8180 o         1 OMT     -0.835800
      9 OXT        -1.4240   -0.0070   -2.9250 o         1 OMT     -0.835800
     10 OD1        -1.6090   -0.5320    2.6230 o         1 OMT     -0.666300
     11 OD2        -0.1450    1.3410    2.3780 o         1 OMT     -0.666300
     12 H           2.1260    0.8840   -1.4930 hn        1 OMT      0.335300
     13 H2          2.3690   -0.3280   -2.5230 hn        1 OMT      0.335300
     14 HA          0.4890   -1.5300   -1.6670 h1        1 OMT      0.039700
     15 HB2        -1.2520   -0.0200   -0.5820 hc        1 OMT      0.069700
     16 HB3         0.0680    1.1740   -0.2030 hc        1 OMT      0.069700
     17 HG2         1.3540   -0.8190    0.8400 h1        1 OMT      0.120700
     18 HG3        -0.1580   -1.7570    0.7040 h1        1 OMT      0.120700
     19 HE1         0.4660   -0.6480    4.4240 h1        1 OMT      0.100367
     20 HE2         0.8870   -1.8810    3.1970 h1        1 OMT      0.100367
     21 HE3         1.8070   -0.3430    3.2760 h1        1 OMT      0.100367
@<TRIPOS>BOND
     1    1    2 1   
     2    1   12 1   
     3    1   13 1   
     4    2    3 1   
     5    2    7 1   
     6    2   14 1   
     7    3    4 1   
     8    3   15 1   
     9    3   16 1   
    10    4    5 1   
    11    4   17 1   
    12    4   18 1   
    13    5    6 1   
    14    5   10 2   
    15    5   11 2   
    16    6   19 1   
    17    6   20 1   
    18    6   21 1   
    19    7    8 1   
    20    7    9 1   
@<TRIPOS>SUBSTRUCTURE
     1 OMT         1 TEMP              0 ****  ****    0 ROOT
