@<TRIPOS>MOLECULE
OMU
   35    36     1     0     0
SMALL
bcc


@<TRIPOS>ATOM
      1 N1         -0.0310    0.0270   -2.3230 n         1 OMU     -0.372000
      2 C2         -0.2750   -0.0170   -3.7140 c         1 OMU      0.797500
      3 N3         -1.5760    0.2390   -4.1820 n         1 OMU     -0.599500
      4 C4         -2.6600    0.5000   -3.3190 c         1 OMU      0.716700
      5 C5         -2.3520    0.4980   -1.9000 cc        1 OMU     -0.372200
      6 C6         -1.0860    0.2520   -1.4470 cd        1 OMU      0.072600
      7 O2          0.6260   -0.2410   -4.5630 o         1 OMU     -0.702500
      8 O4         -3.7750    0.7100   -3.8450 o         1 OMU     -0.693500
      9 C1'         1.3220   -0.3170   -1.8540 c3        1 OMU      0.300500
     10 C2'         1.8990    0.7470   -0.8660 c3        1 OMU      0.105100
     11 O2'         3.2430    0.9530   -1.3020 os        1 OMU     -0.422600
     12 CM2         3.8570    2.0780   -0.6970 c3        1 OMU      0.123700
     13 C3'         1.7320    0.0880    0.5120 c3        1 OMU      0.085100
     14 C4'         1.5130   -1.4130    0.2380 c3        1 OMU      0.067100
     15 O3'         2.8320    0.3070    1.3610 oh        1 OMU     -0.649800
     16 O4'         1.3360   -1.5740   -1.1910 os        1 OMU     -0.431600
     17 C5'         0.2720   -2.0080    0.9500 c3        1 OMU      0.223400
     18 O5'         0.2600   -1.7720    2.2950 os        1 OMU     -0.568200
     19 P          -0.5920   -0.3780    2.8780 p5        1 OMU      1.341900
     20 OP1        -1.2400    0.1170    1.5970 o         1 OMU     -0.923833
     21 OP2        -1.4810   -0.8800    3.9650 o         1 OMU     -0.923833
     22 OP3         0.6240    0.4550    3.2140 o         1 OMU     -0.923833
     23 HN3        -1.7180    0.2000   -5.1650 hn        1 OMU      0.320500
     24 H5         -3.1700    0.6850   -1.1930 ha        1 OMU      0.188000
     25 H6         -0.8740    0.2300   -0.3250 h4        1 OMU      0.308000
     26 H1'         1.9840   -0.4360   -2.7630 h2        1 OMU      0.108700
     27 H2'         1.3470    1.7220   -0.9040 h1        1 OMU      0.053700
     28 HM21        4.9170    2.0390   -1.0520 h1        1 OMU      0.028033
     29 HM22        3.3660    3.0200   -1.0510 h1        1 OMU      0.028033
     30 HM23        3.8090    2.0140    0.4180 h1        1 OMU      0.028033
     31 H3'         0.7880    0.5040    1.0090 h1        1 OMU      0.155700
     32 H4'         2.4340   -1.9980    0.4930 h1        1 OMU      0.052700
     33 HO3'        2.4400    0.3510    2.2640 ho        1 OMU      0.485000
     34 H5'        -0.6570   -1.6100    0.4520 h1        1 OMU     -0.002300
     35 H5''        0.3160   -3.1240    0.7750 h1        1 OMU     -0.002300
@<TRIPOS>BOND
     1    1    2 1   
     2    1    6 1   
     3    1    9 1   
     4    2    3 1   
     5    2    7 2   
     6    3    4 1   
     7    3   23 1   
     8    4    5 1   
     9    4    8 2   
    10    5    6 2   
    11    5   24 1   
    12    6   25 1   
    13    9   10 1   
    14    9   16 1   
    15    9   26 1   
    16   10   11 1   
    17   10   13 1   
    18   10   27 1   
    19   11   12 1   
    20   12   28 1   
    21   12   29 1   
    22   12   30 1   
    23   13   14 1   
    24   13   15 1   
    25   13   31 1   
    26   14   16 1   
    27   14   17 1   
    28   14   32 1   
    29   15   33 1   
    30   17   18 1   
    31   17   34 1   
    32   17   35 1   
    33   18   19 1   
    34   19   20 1   
    35   19   21 1   
    36   19   22 1   
@<TRIPOS>SUBSTRUCTURE
     1 OMU         1 TEMP              0 ****  ****    0 ROOT
