@<TRIPOS>MOLECULE
OMU
   35    36     1     0     0
SMALL
bcc


@<TRIPOS>ATOM
      1 N1          1.0840    1.1140    0.8350 n         1 OMU     -0.372000
      2 C2          2.2040    2.0650    0.9860 c         1 OMU      0.797500
      3 N3          2.8940    2.1860    2.2690 n         1 OMU     -0.599500
      4 C4          2.5470    1.3210    3.3490 c         1 OMU      0.716700
      5 C5          1.4330    0.3710    3.2000 cc        1 OMU     -0.372200
      6 C6          0.7380    0.2510    1.9040 cd        1 OMU      0.072600
      7 O2          2.4880    2.8340    0.0600 o         1 OMU     -0.702500
      8 O4          3.1190    1.4220    4.4140 o         1 OMU     -0.693500
      9 C1'         0.4570    1.0530   -0.2480 c3        1 OMU      0.300500
     10 C2'         0.9460   -0.1420   -1.0810 c3        1 OMU      0.105100
     11 O2'         1.1730    0.2680   -2.4700 os        1 OMU     -0.422600
     12 CM2         2.4610   -0.0440   -2.9550 c3        1 OMU      0.123700
     13 C3'        -0.0470   -1.0370   -1.0160 c3        1 OMU      0.085100
     14 C4'        -1.4120   -0.1800   -0.7700 c3        1 OMU      0.067100
     15 O3'        -0.1360   -1.7430   -2.2180 oh        1 OMU     -0.649800
     16 O4'        -1.0960    0.7900    0.0230 os        1 OMU     -0.431600
     17 C5'        -2.4370   -1.0270   -0.1450 c3        1 OMU      0.223400
     18 O5'        -3.6610   -0.2800   -0.0080 os        1 OMU     -0.568200
     19 P          -5.0570   -1.0960    0.0610 p5        1 OMU      1.341900
     20 OP1        -5.2640   -1.8440   -1.2210 o         1 OMU     -0.923833
     21 OP2        -5.0120   -2.0540    1.1900 o         1 OMU     -0.923833
     22 OP3        -6.1790   -0.1440    0.2630 o         1 OMU     -0.923833
     23 HN3         3.5850    2.7740    2.3610 hn        1 OMU      0.320500
     24 H5          1.1950   -0.2210    3.9360 ha        1 OMU      0.188000
     25 H6         -0.0100   -0.3870    1.8020 h4        1 OMU      0.308000
     26 H1'         0.5700    1.8630   -0.7390 h2        1 OMU      0.108700
     27 H2'         1.7420   -0.5030   -0.7070 h1        1 OMU      0.053700
     28 HM21        2.4380   -0.0940   -3.9150 h1        1 OMU      0.028033
     29 HM22        2.7500   -0.9170   -2.5850 h1        1 OMU      0.028033
     30 HM23        3.0990    0.6610   -2.6770 h1        1 OMU      0.028033
     31 H3'         0.1100   -1.6820   -0.2400 h1        1 OMU      0.155700
     32 H4'        -1.7520    0.1880   -1.6480 h1        1 OMU      0.052700
     33 HO3'       -0.2440   -2.6300   -2.0410 ho        1 OMU      0.485000
     34 H5'        -2.5990   -1.8210   -0.7120 h1        1 OMU     -0.002300
     35 H5''       -2.1260   -1.3170    0.7460 h1        1 OMU     -0.002300
@<TRIPOS>BOND
     1    1    2 1   
     2    1    6 1   
     3    1    9 1   
     4    2    3 1   
     5    2    7 2   
     6    3    4 1   
     7    3   23 1   
     8    4    5 1   
     9    4    8 2   
    10    5    6 2   
    11    5   24 1   
    12    6   25 1   
    13    9   10 1   
    14    9   16 1   
    15    9   26 1   
    16   10   11 1   
    17   10   13 1   
    18   10   27 1   
    19   11   12 1   
    20   12   28 1   
    21   12   29 1   
    22   12   30 1   
    23   13   14 1   
    24   13   15 1   
    25   13   31 1   
    26   14   16 1   
    27   14   17 1   
    28   14   32 1   
    29   15   33 1   
    30   17   18 1   
    31   17   34 1   
    32   17   35 1   
    33   18   19 1   
    34   19   20 1   
    35   19   21 1   
    36   19   22 1   
@<TRIPOS>SUBSTRUCTURE
     1 OMU         1 TEMP              0 ****  ****    0 ROOT
