@<TRIPOS>MOLECULE
OMX
   24    24     1     0     0
SMALL
bcc


@<TRIPOS>ATOM
      1 N          -1.4710    1.0140   -1.4920 n3        1 OMX     -0.884800
      2 CA         -1.6070   -0.1450   -0.6250 c3        1 OMX     -0.007500
      3 C          -3.0780   -0.3990   -0.1580 c         1 OMX      0.880600
      4 O          -3.6600    0.5590    0.4330 o         1 OMX     -0.834800
      5 CB         -0.7410   -0.0430    0.6530 c3        1 OMX      0.204400
      6 OC         -1.0240    1.1360    1.3970 oh        1 OMX     -0.648800
      7 CG          0.7270   -0.0730    0.3420 ca        1 OMX     -0.070300
      8 CD1         1.3120   -1.2810   -0.0600 ca        1 OMX     -0.083500
      9 CD2         1.5210    1.0730    0.4450 ca        1 OMX     -0.083500
     10 CE1         2.6710   -1.3530   -0.3540 ca        1 OMX     -0.192500
     11 CE2         2.8830    1.0210    0.1580 ca        1 OMX     -0.192500
     12 CZ          3.4530   -0.1950   -0.2400 ca        1 OMX      0.092100
     13 OH          4.7980   -0.3220   -0.5340 oh        1 OMX     -0.516100
     14 OXT        -3.5900   -1.5220   -0.3940 o         1 OMX     -0.834800
     15 HN1        -2.2340    1.0020   -2.1460 hn        1 OMX      0.333800
     16 HN2        -1.5760    1.8430   -0.9340 hn        1 OMX      0.333800
     17 HA         -1.2590   -1.0440   -1.2080 h1        1 OMX      0.058700
     18 HB         -0.9940   -0.9360    1.2990 h1        1 OMX      0.043700
     19 HC         -1.9930    1.2430    1.3860 ho        1 OMX      0.454000
     20 HD1         0.6850   -2.1810   -0.1530 ha        1 OMX      0.146000
     21 HD2         1.0530    2.0210    0.7560 ha        1 OMX      0.146000
     22 HE1         3.1350   -2.2950   -0.6730 ha        1 OMX      0.124500
     23 HE2         3.5030    1.9230    0.2380 ha        1 OMX      0.124500
     24 HH          5.1920    0.5580   -0.4590 ho        1 OMX      0.405000
@<TRIPOS>BOND
     1    1    2 1   
     2    1   15 1   
     3    1   16 1   
     4    2    3 1   
     5    2    5 1   
     6    2   17 1   
     7    3    4 1   
     8    3   14 1   
     9    5    6 1   
    10    5    7 1   
    11    5   18 1   
    12    6   19 1   
    13    7    8 ar  
    14    7    9 ar  
    15    8   10 ar  
    16    8   20 1   
    17    9   11 ar  
    18    9   21 1   
    19   10   12 ar  
    20   10   22 1   
    21   11   12 ar  
    22   11   23 1   
    23   12   13 1   
    24   13   24 1   
@<TRIPOS>SUBSTRUCTURE
     1 OMX         1 TEMP              0 ****  ****    0 ROOT
