@<TRIPOS>MOLECULE
OMY
   24    24     1     0     0
SMALL
bcc


@<TRIPOS>ATOM
      1 N           2.1480    0.8390    1.6270 n3        1 OMY     -0.886800
      2 CA          2.0630   -0.2210    0.6420 c3        1 OMY     -0.003500
      3 OCZ        -4.1630    1.2110    0.1280 oh        1 OMY     -0.507100
      4 CE2        -1.9660    1.9870   -0.2480 ca        1 OMY     -0.161000
      5 CE1        -2.3270   -0.4100   -0.0790 ca        1 OMY     -0.065600
      6 CZ         -2.8340    0.9000   -0.0600 ca        1 OMY      0.109100
      7 CG         -0.0980    0.4540   -0.4710 ca        1 OMY     -0.076300
      8 CD2        -0.6100    1.7570   -0.4500 ca        1 OMY     -0.080000
      9 CD1        -0.9630   -0.6290   -0.2820 ca        1 OMY     -0.085000
     10 CB          1.3640    0.1880   -0.6830 c3        1 OMY      0.168400
     11 C           3.4720   -0.7700    0.2270 c         1 OMY      0.911600
     12 ODE         1.9560    1.3550   -1.2420 oh        1 OMY     -0.651800
     13 OXT         3.6600   -2.0100    0.2810 o         1 OMY     -0.830300
     14 HN1         3.0640    1.2510    1.5860 hn        1 OMY      0.335300
     15 HN2         1.4820    1.5580    1.4070 hn        1 OMY      0.335300
     16 HA          1.4680   -1.0610    1.0990 h1        1 OMY      0.059700
     17 HCZ        -4.6430    0.3830    0.2840 ho        1 OMY      0.419000
     18 HE2        -2.3740    3.0070   -0.2300 ha        1 OMY      0.140000
     19 HD2         0.0810    2.6030   -0.6040 ha        1 OMY      0.158000
     20 HD1        -0.5600   -1.6550   -0.2870 ha        1 OMY      0.159000
     21 HB          1.4820   -0.6610   -1.4170 h1        1 OMY      0.053700
     22 HDE         2.9200    1.2440   -1.1450 ho        1 OMY      0.457000
     23 CL         -3.3650   -1.7490    0.1470 cl        1 OMY     -0.127400
     24 O           4.3120    0.0880   -0.1760 o         1 OMY     -0.830300
@<TRIPOS>BOND
     1    1    2 1   
     2    1   14 1   
     3    1   15 1   
     4    2   10 1   
     5    2   11 1   
     6    2   16 1   
     7    3    6 1   
     8    3   17 1   
     9    4    6 ar  
    10    4    8 ar  
    11    4   18 1   
    12    5    6 ar  
    13    5    9 ar  
    14    5   23 1   
    15    7    8 ar  
    16    7    9 ar  
    17    7   10 1   
    18    8   19 1   
    19    9   20 1   
    20   10   12 1   
    21   10   21 1   
    22   11   13 1   
    23   11   24 1   
    24   12   22 1   
@<TRIPOS>SUBSTRUCTURE
     1 OMY         1 TEMP              0 ****  ****    0 ROOT
