@<TRIPOS>MOLECULE
OMZ
   24    24     1     0     0
SMALL
bcc


@<TRIPOS>ATOM
      1 N          -1.5580    1.1730    1.3560 n3        1 OMZ     -0.881800
      2 CA         -2.2400    0.1270    0.6110 c3        1 OMZ     -0.012500
      3 C          -3.6400    0.5490    0.0530 c         1 OMZ      0.885600
      4 O          -4.1110    1.6650    0.4020 o         1 OMZ     -0.835800
      5 OXT        -4.2320   -0.2690   -0.7120 o         1 OMZ     -0.835800
      6 CB         -1.4010   -0.4320   -0.5650 c3        1 OMZ      0.214400
      7 OC         -1.8880   -1.7110   -0.9500 oh        1 OMZ     -0.650800
      8 CG          0.0530   -0.5950   -0.2200 ca        1 OMZ     -0.057300
      9 CD1         0.9330    0.4730   -0.4140 ca        1 OMZ     -0.079000
     10 CD2         0.5390   -1.8040    0.2950 ca        1 OMZ     -0.069000
     11 CE1         2.2870    0.3340   -0.0970 ca        1 OMZ     -0.065600
     12 CL          3.3430    1.6560   -0.3440 cl        1 OMZ     -0.133400
     13 CE2         1.8830   -1.9540    0.6140 ca        1 OMZ     -0.163000
     14 CZ          2.7670   -0.8800    0.4210 ca        1 OMZ      0.108100
     15 OH          4.0840   -1.1100    0.7550 oh        1 OMZ     -0.508100
     16 H          -1.2400    1.8740    0.7090 hn        1 OMZ      0.334800
     17 H2         -2.2470    1.6180    1.9420 hn        1 OMZ      0.334800
     18 HA         -2.4220   -0.7230    1.3300 h1        1 OMZ      0.058700
     19 HB         -1.4980    0.2690   -1.4440 h1        1 OMZ      0.036700
     20 HC         -2.8530   -1.6210   -1.0570 ho        1 OMZ      0.461000
     21 HD1         0.5570    1.4290   -0.8120 ha        1 OMZ      0.147000
     22 HD2        -0.1650   -2.6400    0.4370 ha        1 OMZ      0.157000
     23 HE2         2.2710   -2.8980    1.0190 ha        1 OMZ      0.139000
     24 HH          4.5710   -0.2820    0.6280 ho        1 OMZ      0.417000
@<TRIPOS>BOND
     1    1    2 1   
     2    1   16 1   
     3    1   17 1   
     4    2    3 1   
     5    2    6 1   
     6    2   18 1   
     7    3    4 1   
     8    3    5 1   
     9    6    7 1   
    10    6    8 1   
    11    6   19 1   
    12    7   20 1   
    13    8    9 ar  
    14    8   10 ar  
    15    9   11 ar  
    16    9   21 1   
    17   10   13 ar  
    18   10   22 1   
    19   11   12 1   
    20   11   14 ar  
    21   13   14 ar  
    22   13   23 1   
    23   14   15 1   
    24   15   24 1   
@<TRIPOS>SUBSTRUCTURE
     1 OMZ         1 TEMP              0 ****  ****    0 ROOT
