@<TRIPOS>MOLECULE
OMZ
   24    22     1     0     0
SMALL
bcc


@<TRIPOS>ATOM
      1 N          -0.8280    0.5580    2.8540 n3        1 OMZ     -0.315000
      2 CA          0.1510    0.8590    1.8800 c3        1 OMZ     -0.159000
      3 C           1.3750    1.4650    2.5620 c2        1 OMZ      0.305000
      4 O           1.9410    0.8380    3.5460 o         1 OMZ     -0.571000
      5 OXT         1.7420    2.6160    2.2680 o         1 OMZ     -0.571000
      6 CB          0.5470   -0.4090    1.1630 c3        1 OMZ      0.095000
      7 OC          1.9290   -0.5160    1.1510 oh        1 OMZ     -0.379000
      8 CG          0.0230   -0.3730   -0.2810 c2        1 OMZ     -0.049000
      9 CD1        -0.9380   -1.2730   -0.6900 c2        1 OMZ     -0.088000
     10 CD2         0.5460    0.5250   -1.1770 c1        1 OMZ     -0.064000
     11 CE1        -1.3710   -1.2690   -1.9970 c1        1 OMZ     -0.090000
     12 CL         -2.5190   -2.3730   -2.4960 cl        1 OMZ     -0.031000
     13 CE2         0.1120    0.5280   -2.4790 c1        1 OMZ     -0.215000
     14 CZ         -0.8490   -0.3720   -2.8890 c2        1 OMZ      0.060000
     15 OH         -1.2840   -0.3980   -4.3170 oh        1 OMZ     -0.254000
     16 H          -1.6220    0.9150    2.6040 hn        1 OMZ      0.130500
     17 H2         -0.9170   -0.3840    2.9320 hn        1 OMZ      0.130500
     18 HA         -0.2190    1.5050    1.2290 h1        1 OMZ      0.097000
     19 HB          0.1610   -1.1840    1.6330 h1        1 OMZ      0.077000
     20 HC          2.1670   -1.3140    1.4600 ho        1 OMZ      0.260000
     21 HD1        -1.3680   -1.8040   -0.0650 ha        1 OMZ      0.147000
     22 HD2         1.2240    1.1620   -0.8890 ha        1 OMZ      0.155000
     23 HE2         0.5380    1.1240   -3.1360 ha        1 OMZ      0.121000
     24 HH         -0.5410   -0.4250   -4.8650 ho        1 OMZ      0.208000
@<TRIPOS>BOND
     1    1    2 1   
     2    1   16 1   
     3    1   17 1   
     4    2    3 1   
     5    2    6 1   
     6    2   18 1   
     7    3    4 1   
     8    3    5 1   
     9    6    7 1   
    10    6    8 1   
    11    6   19 1   
    12    7   20 1   
    13    8    9 1   
    14    8   10 1   
    15    9   11 1   
    16    9   21 1   
    17   10   22 1   
    18   11   14 1   
    19   13   14 1   
    20   13   23 1   
    21   14   15 1   
    22   15   24 1   
@<TRIPOS>SUBSTRUCTURE
     1 OMZ         1 TEMP              0 ****  ****    0 ROOT
