@<TRIPOS>MOLECULE
ON1
   27    22     1     0     0
SMALL
bcc


@<TRIPOS>ATOM
      1 C1          1.6360   -1.1820   -1.6130 c1        1 ON1     -0.098000
      2 N1         -1.1650    0.7460   -0.7520 n1        1 ON1     -0.134000
      3 O1         -2.9470    3.0940    1.3630 oh        1 ON1     -0.248000
      4 CL1         5.4700   -1.4850   -0.6560 cl        1 ON1     -0.022000
      5 C2          3.0210   -1.1880   -1.6400 c1        1 ON1     -0.060000
      6 N2         -1.6540   -0.2960    1.3090 n1        1 ON1     -0.245000
      7 O2         -2.7790    0.8920    3.0400 oh        1 ON1     -0.248000
      8 CL2         4.1000   -0.6380   -2.8940 cl        1 ON1     -0.003000
      9 C3          3.7340   -1.5890   -0.5200 c2        1 ON1     -0.070000
     10 O3         -0.9800    3.9940   -1.1810 o         1 ON1     -0.533000
     11 C4          3.0620   -1.9830    0.6250 c1        1 ON1     -0.128000
     12 O4         -2.8020    3.1650   -2.0470 o         1 ON1     -0.533000
     13 C5          1.6760   -1.9770    0.6530 c2        1 ON1     -0.119000
     14 C6          0.9620   -1.5760   -0.4660 c2        1 ON1     -0.044000
     15 C7         -0.5500   -1.6520   -0.4660 c3        1 ON1     -0.056000
     16 C8         -1.1200   -0.3500    0.0570 c1        1 ON1     -0.026000
     17 C9         -1.7350    1.8800   -0.3160 c1        1 ON1     -0.081000
     18 C10        -2.2700    1.9360    0.9390 c1        1 ON1      0.049500
     19 C11        -2.2240    0.8370    1.7480 c1        1 ON1      0.049500
     20 C12        -1.8410    3.0780   -1.2380 c2        1 ON1      0.383000
     21 H1          1.1340   -0.8990   -2.4000 DU        1 ON1      0.162000
     22 H4          3.5640   -2.2880    1.4050 DU        1 ON1      0.162000
     23 H5          1.2030   -2.2550    1.4600 ha        1 ON1      0.139000
     24 H7         -0.8690   -1.8050   -1.3780 hc        1 ON1      0.105500
     25 H7A        -0.8390   -2.3890    0.1090 hc        1 ON1      0.105500
     26 H71        -2.3700    3.6510    1.7460 ho        1 ON1      0.246000
     27 H8         -3.4190    0.2780    3.1140 ho        1 ON1      0.246000
@<TRIPOS>BOND
     1    1    5 1   
     2    1   14 1   
     3    2   17 1   
     4    3   18 1   
     5    3   26 1   
     6    4    9 1   
     7    5    9 1   
     8    6   16 1   
     9    7   19 1   
    10    7   27 1   
    11    9   11 1   
    12   10   20 1   
    13   11   13 1   
    14   12   20 1   
    15   13   14 1   
    16   13   23 1   
    17   14   15 1   
    18   15   16 1   
    19   15   24 1   
    20   15   25 1   
    21   17   20 1   
    22   18   19 1   
@<TRIPOS>SUBSTRUCTURE
     1 ON1         1 TEMP              0 ****  ****    0 ROOT
