@<TRIPOS>MOLECULE
ON1
   27    28     1     0     0
SMALL
bcc


@<TRIPOS>ATOM
      1 C1         -1.9540    0.5100    0.9570 ca        1 ON1     -0.106000
      2 N1          2.0000    0.5690    1.0300 nb        1 ON1     -0.656000
      3 O1          4.6190   -0.7570   -1.2020 oh        1 ON1     -0.552100
      4 CL1        -5.0390   -0.9150   -1.1550 cl        1 ON1     -0.100400
      5 C2         -3.1480    0.4390    0.2320 ca        1 ON1      0.015400
      6 N2          1.5730   -1.7820    0.4990 nb        1 ON1     -0.718000
      7 O2          2.9990   -2.9670   -0.8940 oh        1 ON1     -0.618300
      8 CL2        -4.0470    1.8600   -0.0190 cl        1 ON1     -0.091400
      9 C3         -3.5880   -0.7920   -0.2750 ca        1 ON1      0.010400
     10 O3          3.4180    2.9570    0.0910 o         1 ON1     -0.798300
     11 C4         -2.8250   -1.9440   -0.0590 ca        1 ON1     -0.127000
     12 O4          5.2180    1.6300   -0.0230 o         1 ON1     -0.798300
     13 C5         -1.6410   -1.8700    0.6690 ca        1 ON1     -0.102000
     14 C6         -1.2010   -0.6450    1.1870 ca        1 ON1     -0.051300
     15 C7          0.0460   -0.5750    1.9990 c3        1 ON1     -0.064400
     16 C8          1.2860   -0.5920    1.1180 ca        1 ON1      0.594300
     17 C9          3.1100    0.5640    0.2620 ca        1 ON1      0.352800
     18 C10         3.5110   -0.6190   -0.4120 ca        1 ON1     -0.127500
     19 C11         2.6930   -1.7760   -0.2630 ca        1 ON1      0.586600
     20 C12         3.9740    1.8390    0.1110 c         1 ON1      0.824100
     21 H1         -1.5980    1.4820    1.3370 ha        1 ON1      0.163000
     22 H4         -3.1590   -2.9080   -0.4690 ha        1 ON1      0.142000
     23 H5         -1.0320   -2.7750    0.8230 ha        1 ON1      0.160000
     24 H7          0.0450    0.3580    2.6250 hc        1 ON1      0.067700
     25 H7A         0.0880   -1.4540    2.6990 hc        1 ON1      0.067700
     26 H71         5.1880    0.0350   -1.0750 ho        1 ON1      0.492000
     27 H8          3.8370   -2.8180   -1.3610 ho        1 ON1      0.436000
@<TRIPOS>BOND
     1    1    5 ar  
     2    1   14 ar  
     3    1   21 1   
     4    2   16 ar  
     5    2   17 ar  
     6    3   18 1   
     7    3   26 1   
     8    4    9 1   
     9    5    8 1   
    10    5    9 ar  
    11    6   16 ar  
    12    6   19 ar  
    13    7   19 1   
    14    7   27 1   
    15    9   11 ar  
    16   10   20 1   
    17   11   13 ar  
    18   11   22 1   
    19   12   20 1   
    20   13   14 ar  
    21   13   23 1   
    22   14   15 1   
    23   15   16 1   
    24   15   24 1   
    25   15   25 1   
    26   17   18 ar  
    27   17   20 1   
    28   18   19 ar  
@<TRIPOS>SUBSTRUCTURE
     1 ON1         1 TEMP              0 ****  ****    0 ROOT
