@<TRIPOS>MOLECULE
ON1
   27    28     1     0     0
SMALL
bcc


@<TRIPOS>ATOM
      1 C1          0.0390    0.3380    0.1260 ca        1 ON1     -0.098000
      2 N1         -2.8800    2.0060    0.0190 nb        1 ON1     -0.660000
      3 O1         -4.1130    5.2720    1.2020 oh        1 ON1     -0.507100
      4 Cl1         3.8380   -0.1430    1.2880 cl        1 ON1     -0.100400
      5 C2          1.4370    0.2890    0.1120 ca        1 ON1      0.018400
      6 N2         -2.9500    2.0510    2.4550 nb        1 ON1     -0.771000
      7 O2         -3.7080    4.0080    3.5510 oh        1 ON1     -0.606300
      8 Cl2         2.2610    0.6680   -1.3240 cl        1 ON1     -0.081400
      9 C3          2.1380   -0.0690    1.2720 ca        1 ON1      0.008400
     10 O3         -4.1180    3.2440   -2.3320 o         1 ON1     -0.798300
     11 C4          1.4360   -0.3710    2.4430 ca        1 ON1     -0.128000
     12 O4         -3.3900    5.1730   -1.4570 o         1 ON1     -0.798300
     13 C5          0.0450   -0.3260    2.4510 ca        1 ON1     -0.119000
     14 C6         -0.6620    0.0210    1.2950 ca        1 ON1     -0.051300
     15 C7         -2.1520    0.0310    1.2980 c3        1 ON1     -0.064400
     16 C8         -2.6920    1.4520    1.2540 ca        1 ON1      0.594300
     17 C9         -3.3670    3.2620   -0.0370 ca        1 ON1      0.336800
     18 C10        -3.6440    3.9950    1.1530 ca        1 ON1     -0.061500
     19 C11        -3.4220    3.3220    2.3890 ca        1 ON1      0.573600
     20 C12        -3.6400    3.9330   -1.4050 c         1 ON1      0.824100
     21 H1         -0.5180    0.6390   -0.7790 ha        1 ON1      0.185000
     22 H4          1.9840   -0.6410    3.3570 ha        1 ON1      0.139000
     23 H5         -0.5020   -0.5550    3.3780 ha        1 ON1      0.139000
     24 H7         -2.5400   -0.4910    2.2130 hc        1 ON1      0.066200
     25 H7A        -2.5290   -0.5320    0.4010 hc        1 ON1      0.066200
     26 H71        -4.0480    5.6560    0.3000 ho        1 ON1      0.479000
     27 H8         -3.5020    3.4360    4.3060 ho        1 ON1      0.415000
@<TRIPOS>BOND
     1    1    5 ar  
     2    1   14 ar  
     3    1   21 1   
     4    2   16 ar  
     5    2   17 ar  
     6    3   18 1   
     7    3   26 1   
     8    4    9 1   
     9    5    8 1   
    10    5    9 ar  
    11    6   16 ar  
    12    6   19 ar  
    13    7   19 1   
    14    7   27 1   
    15    9   11 ar  
    16   10   20 1   
    17   11   13 ar  
    18   11   22 1   
    19   12   20 1   
    20   13   14 ar  
    21   13   23 1   
    22   14   15 1   
    23   15   16 1   
    24   15   24 1   
    25   15   25 1   
    26   17   18 ar  
    27   17   20 1   
    28   18   19 ar  
@<TRIPOS>SUBSTRUCTURE
     1 ON1         1 TEMP              0 ****  ****    0 ROOT
