@<TRIPOS>MOLECULE
ON1
   27    28     1     0     0
SMALL
bcc


@<TRIPOS>ATOM
      1 C1          0.0320    0.3390    0.1120 ca        1 ON1     -0.098000
      2 N1         -2.8800    2.0230    0.0230 nb        1 ON1     -0.660000
      3 O1         -4.0930    5.2850    1.2380 oh        1 ON1     -0.507100
      4 CL1         3.8280   -0.1730    1.2680 cl        1 ON1     -0.100400
      5 C2          1.4290    0.2840    0.0970 ca        1 ON1      0.018400
      6 N2         -2.9460    2.0460    2.4590 nb        1 ON1     -0.771000
      7 O2         -3.6910    3.9970    3.5740 oh        1 ON1     -0.606300
      8 CL2         2.2550    0.6730   -1.3350 cl        1 ON1     -0.081400
      9 C3          2.1290   -0.0900    1.2530 ca        1 ON1      0.008400
     10 O3         -4.1150    3.2890   -2.3140 o         1 ON1     -0.798300
     11 C4          1.4260   -0.4010    2.4210 ca        1 ON1     -0.128000
     12 O4         -3.3750    5.2070   -1.4230 o         1 ON1     -0.798300
     13 C5          0.0350   -0.3480    2.4310 ca        1 ON1     -0.119000
     14 C6         -0.6710    0.0150    1.2780 ca        1 ON1     -0.051300
     15 C7         -2.1610    0.0330    1.2820 c3        1 ON1     -0.064400
     16 C8         -2.6930    1.4560    1.2520 ca        1 ON1      0.594300
     17 C9         -3.3600    3.2820   -0.0210 ca        1 ON1      0.336800
     18 C10        -3.6320    4.0060    1.1770 ca        1 ON1     -0.061500
     19 C11        -3.4110    3.3200    2.4050 ca        1 ON1      0.573600
     20 C12        -3.6320    3.9680   -1.3820 c         1 ON1      0.824100
     21 H1         -0.5240    0.6530   -0.7890 ha        1 ON1      0.185000
     22 H4          1.9720   -0.6830    3.3330 ha        1 ON1      0.139000
     23 H5         -0.5130   -0.5850    3.3550 ha        1 ON1      0.139000
     24 H7         -2.5510   -0.4970    2.1920 hc        1 ON1      0.066200
     25 H7A        -2.5410   -0.5200    0.3790 hc        1 ON1      0.066200
     26 H71        -4.0270    5.6770    0.3400 ho        1 ON1      0.479000
     27 H8         -3.4870    3.4170    4.3240 ho        1 ON1      0.415000
@<TRIPOS>BOND
     1    1    5 ar  
     2    1   14 ar  
     3    1   21 1   
     4    2   16 ar  
     5    2   17 ar  
     6    3   18 1   
     7    3   26 1   
     8    4    9 1   
     9    5    8 1   
    10    5    9 ar  
    11    6   16 ar  
    12    6   19 ar  
    13    7   19 1   
    14    7   27 1   
    15    9   11 ar  
    16   10   20 1   
    17   11   13 ar  
    18   11   22 1   
    19   12   20 1   
    20   13   14 ar  
    21   13   23 1   
    22   14   15 1   
    23   15   16 1   
    24   15   24 1   
    25   15   25 1   
    26   17   18 ar  
    27   17   20 1   
    28   18   19 ar  
@<TRIPOS>SUBSTRUCTURE
     1 ON1         1 TEMP              0 ****  ****    0 ROOT
