@<TRIPOS>MOLECULE
ON5
   57    57     1     0     0
SMALL
bcc


@<TRIPOS>ATOM
      1 C20        -0.5390   -1.3110   -0.0460 c3        1 ON5     -0.092100
      2 C19         0.9250   -0.9790   -0.1710 c3        1 ON5     -0.080400
      3 C18         1.5980   -0.9120    1.1840 c3        1 ON5     -0.078400
      4 C17         3.0690   -0.5820    1.0520 c3        1 ON5     -0.079400
      5 C16         3.7350   -0.5040    2.4080 c3        1 ON5     -0.069400
      6 C15         5.2330   -0.2270    2.2730 c3        1 ON5      0.174300
      7 O15         5.8220   -1.4140    1.7510 oh        1 ON5     -0.603800
      8 C14         5.8110    0.1930    3.5870 c2        1 ON5     -0.211200
      9 C13         6.6520   -0.5440    4.3160 c2        1 ON5     -0.146200
     10 C12         7.2250   -0.0880    5.6100 c3        1 ON5     -0.036500
     11 C11         6.8190   -1.0390    6.7560 c3        1 ON5      0.144100
     12 O11         5.8530   -0.3610    7.5460 oh        1 ON5     -0.594800
     13 C10         8.0910   -1.3480    7.5510 c3        1 ON5     -0.127400
     14 C9          9.2590   -1.0690    6.6190 c3        1 ON5      0.069700
     15 CL9         9.8370   -2.5690    5.8660 cl        1 ON5     -0.224400
     16 C8          8.7660   -0.0740    5.5610 c3        1 ON5     -0.062700
     17 C7          9.3040    1.3220    5.8430 c3        1 ON5     -0.037200
     18 C6         10.7780    1.3990    5.7170 c2        1 ON5     -0.237200
     19 C5         11.5190    2.3830    6.2400 c2        1 ON5     -0.122200
     20 C4         10.9800    3.5140    7.0300 c3        1 ON5     -0.062200
     21 C3         12.0650    4.4480    7.5270 c3        1 ON5     -0.064400
     22 C2         11.4970    5.5770    8.3500 c3        1 ON5     -0.196400
     23 C1         12.5810    6.6140    8.6970 c         1 ON5      0.908600
     24 O1A        13.3820    6.9770    7.7880 o         1 ON5     -0.850800
     25 O1B        12.6020    7.0660    9.8780 o         1 ON5     -0.850800
     26 H1         -0.6780   -2.3010    0.4530 hc        1 ON5      0.030700
     27 H2         -1.0150   -1.3550   -1.0550 hc        1 ON5      0.030700
     28 H3         -1.0690   -0.5370    0.5600 hc        1 ON5      0.030700
     29 H4          1.4350   -1.7540   -0.8020 hc        1 ON5      0.038200
     30 H5          1.0450    0.0050   -0.6960 hc        1 ON5      0.038200
     31 H6          1.0920   -0.1350    1.8160 hc        1 ON5      0.039200
     32 H7          1.4790   -1.8950    1.7110 hc        1 ON5      0.039200
     33 H8          3.1880    0.3950    0.5140 hc        1 ON5      0.045700
     34 H9          3.5830   -1.3670    0.4360 hc        1 ON5      0.045700
     35 H10         3.5930   -1.4700    2.9580 hc        1 ON5      0.052700
     36 H11         3.2740    0.3150    3.0180 hc        1 ON5      0.052700
     37 H12         5.3980    0.6090    1.5300 h1        1 ON5      0.037700
     38 H13         6.7760   -1.2660    1.7340 ho        1 ON5      0.402000
     39 H14         5.4780    1.1890    3.9220 ha        1 ON5      0.133000
     40 H15         6.9690   -1.5490    3.9880 ha        1 ON5      0.130000
     41 H16         6.8430    0.9420    5.8610 hc        1 ON5      0.085700
     42 H17         6.3670   -1.9860    6.3530 h1        1 ON5      0.043700
     43 H18         5.6750   -0.9250    8.3080 ho        1 ON5      0.398000
     44 H19         8.0890   -2.4000    7.9250 hc        1 ON5      0.065200
     45 H20         8.1570   -0.6640    8.4380 hc        1 ON5      0.065200
     46 H21        10.1500   -0.6730    7.1680 h1        1 ON5      0.096700
     47 H22         9.1180   -0.3890    4.5410 hc        1 ON5      0.071700
     48 H23         8.8360    2.0420    5.1160 hc        1 ON5      0.053200
     49 H24         8.9870    1.6450    6.8730 hc        1 ON5      0.053200
     50 H25        11.2520    0.5910    5.1370 ha        1 ON5      0.113000
     51 H26        12.6130    2.3870    6.0910 ha        1 ON5      0.126000
     52 H27        10.2500    4.0900    6.3980 hc        1 ON5      0.040700
     53 H28        10.3990    3.1150    7.9080 hc        1 ON5      0.040700
     54 H29        12.8020    3.8700    8.1440 hc        1 ON5      0.047200
     55 H30        12.6300    4.8830    6.6600 hc        1 ON5      0.047200
     56 H31        11.0440    5.1840    9.2940 hc        1 ON5      0.019700
     57 H32        10.6930    6.1030    7.7750 hc        1 ON5      0.019700
@<TRIPOS>BOND
     1    1    2 1   
     2    1   26 1   
     3    1   27 1   
     4    1   28 1   
     5    2    3 1   
     6    2   29 1   
     7    2   30 1   
     8    3    4 1   
     9    3   31 1   
    10    3   32 1   
    11    4    5 1   
    12    4   33 1   
    13    4   34 1   
    14    5    6 1   
    15    5   35 1   
    16    5   36 1   
    17    6    7 1   
    18    6    8 1   
    19    6   37 1   
    20    7   38 1   
    21    8    9 2   
    22    8   39 1   
    23    9   10 1   
    24    9   40 1   
    25   10   11 1   
    26   10   16 1   
    27   10   41 1   
    28   11   12 1   
    29   11   13 1   
    30   11   42 1   
    31   12   43 1   
    32   13   14 1   
    33   13   44 1   
    34   13   45 1   
    35   14   15 1   
    36   14   16 1   
    37   14   46 1   
    38   16   17 1   
    39   16   47 1   
    40   17   18 1   
    41   17   48 1   
    42   17   49 1   
    43   18   19 2   
    44   18   50 1   
    45   19   20 1   
    46   19   51 1   
    47   20   21 1   
    48   20   52 1   
    49   20   53 1   
    50   21   22 1   
    51   21   54 1   
    52   21   55 1   
    53   22   23 1   
    54   22   56 1   
    55   22   57 1   
    56   23   24 1   
    57   23   25 1   
@<TRIPOS>SUBSTRUCTURE
     1 ON5         1 TEMP              0 ****  ****    0 ROOT
