@<TRIPOS>MOLECULE
ON5
   57    57     1     0     0
SMALL
bcc


@<TRIPOS>ATOM
      1 C20         0.0510   -1.1930    0.3090 c3        1 ON5     -0.092100
      2 C19         1.4480   -0.6330    0.3760 c3        1 ON5     -0.080400
      3 C18         2.2430   -1.2540    1.5050 c3        1 ON5     -0.078400
      4 C17         3.6450   -0.6870    1.5680 c3        1 ON5     -0.078400
      5 C16         4.4350   -1.3160    2.6940 c3        1 ON5     -0.078400
      6 C15         5.8540   -0.7440    2.7710 c3        1 ON5      0.181300
      7 O15         6.6420   -1.7480    3.3950 oh        1 ON5     -0.612800
      8 C14         5.8550    0.5970    3.4220 c2        1 ON5     -0.217200
      9 C13         6.2350    1.0320    4.6240 c2        1 ON5     -0.130200
     10 C12         6.8170    0.3490    5.8060 c3        1 ON5     -0.041500
     11 C11         6.2030   -1.0190    6.1430 c3        1 ON5      0.137100
     12 O11         5.4310   -0.8440    7.3260 oh        1 ON5     -0.600800
     13 C10         7.3570   -2.0020    6.3660 c3        1 ON5     -0.126400
     14 C9          8.6620   -1.2320    6.2120 c3        1 ON5      0.063700
     15 Cl9         9.7840   -2.1080    5.1570 cl        1 ON5     -0.211400
     16 C8          8.3380    0.1600    5.6600 c3        1 ON5     -0.062700
     17 C7          9.0840    1.2630    6.3970 c3        1 ON5     -0.035200
     18 C6         10.5370    1.2720    6.1120 c2        1 ON5     -0.235200
     19 C5         11.3230    2.3340    6.3270 c2        1 ON5     -0.124200
     20 C4         10.8490    3.6340    6.8560 c3        1 ON5     -0.062200
     21 C3         11.9830    4.6030    7.1260 c3        1 ON5     -0.064400
     22 C2         11.4770    5.9150    7.6730 c3        1 ON5     -0.196400
     23 C1         12.6010    6.9650    7.7420 c         1 ON5      0.908600
     24 O1A        13.3890    7.0710    6.7570 o         1 ON5     -0.851300
     25 O1B        12.6670    7.6850    8.7780 o         1 ON5     -0.851300
     26 H1          0.0760   -2.2970    0.1410 hc        1 ON5      0.031033
     27 H2         -0.4990   -0.9980    1.2620 hc        1 ON5      0.031033
     28 H3         -0.5170   -0.7220   -0.5290 hc        1 ON5      0.031033
     29 H4          1.4010    0.4790    0.5210 hc        1 ON5      0.038700
     30 H5          1.9750   -0.8170   -0.5970 hc        1 ON5      0.038700
     31 H6          1.7180   -1.0700    2.4790 hc        1 ON5      0.039700
     32 H7          2.2920   -2.3660    1.3610 hc        1 ON5      0.039700
     33 H8          4.1670   -0.8680    0.5910 hc        1 ON5      0.041200
     34 H9          3.5940    0.4240    1.7160 hc        1 ON5      0.041200
     35 H10         3.9130   -1.1500    3.6710 hc        1 ON5      0.054200
     36 H11         4.5090   -2.4250    2.5360 hc        1 ON5      0.054200
     37 H12         6.2590   -0.6090    1.7200 h1        1 ON5      0.037700
     38 H13         7.4590   -1.3330    3.6990 ho        1 ON5      0.417000
     39 H14         5.4390    1.3570    2.7280 ha        1 ON5      0.121000
     40 H15         6.1270    2.1230    4.8060 ha        1 ON5      0.124000
     41 H16         6.6240    1.0140    6.7030 hc        1 ON5      0.088700
     42 H17         5.5290   -1.3790    5.3160 h1        1 ON5      0.064700
     43 H18         5.0410   -1.7020    7.5270 ho        1 ON5      0.396000
     44 H19         7.2840   -2.8320    5.6160 hc        1 ON5      0.066200
     45 H20         7.2960   -2.4530    7.3880 hc        1 ON5      0.066200
     46 H21         9.2030   -1.1540    7.1890 h1        1 ON5      0.086700
     47 H22         8.6200    0.2160    4.5720 hc        1 ON5      0.069700
     48 H23         8.9210    1.1550    7.5050 hc        1 ON5      0.052200
     49 H24         8.6350    2.2520    6.0990 hc        1 ON5      0.052200
     50 H25        10.9560    0.3350    5.7130 ha        1 ON5      0.119000
     51 H26        12.4020    2.2760    6.1030 ha        1 ON5      0.126000
     52 H27        10.1360    4.0930    6.1170 hc        1 ON5      0.039200
     53 H28        10.2660    3.4640    7.8020 hc        1 ON5      0.039200
     54 H29        12.5540    4.8050    6.1800 hc        1 ON5      0.047700
     55 H30        12.7010    4.1460    7.8550 hc        1 ON5      0.047700
     56 H31        10.6720    6.3220    7.0090 hc        1 ON5      0.019200
     57 H32        11.0410    5.7710    8.6920 hc        1 ON5      0.019200
@<TRIPOS>BOND
     1    1    2 1   
     2    1   26 1   
     3    1   27 1   
     4    1   28 1   
     5    2    3 1   
     6    2   29 1   
     7    2   30 1   
     8    3    4 1   
     9    3   31 1   
    10    3   32 1   
    11    4    5 1   
    12    4   33 1   
    13    4   34 1   
    14    5    6 1   
    15    5   35 1   
    16    5   36 1   
    17    6    7 1   
    18    6    8 1   
    19    6   37 1   
    20    7   38 1   
    21    8    9 2   
    22    8   39 1   
    23    9   10 1   
    24    9   40 1   
    25   10   11 1   
    26   10   16 1   
    27   10   41 1   
    28   11   12 1   
    29   11   13 1   
    30   11   42 1   
    31   12   43 1   
    32   13   14 1   
    33   13   44 1   
    34   13   45 1   
    35   14   15 1   
    36   14   16 1   
    37   14   46 1   
    38   16   17 1   
    39   16   47 1   
    40   17   18 1   
    41   17   48 1   
    42   17   49 1   
    43   18   19 2   
    44   18   50 1   
    45   19   20 1   
    46   19   51 1   
    47   20   21 1   
    48   20   52 1   
    49   20   53 1   
    50   21   22 1   
    51   21   54 1   
    52   21   55 1   
    53   22   23 1   
    54   22   56 1   
    55   22   57 1   
    56   23   24 1   
    57   23   25 1   
@<TRIPOS>SUBSTRUCTURE
     1 ON5         1 TEMP              0 ****  ****    0 ROOT
