@<TRIPOS>MOLECULE
ON7
   72    75     1     0     0
SMALL
bcc


@<TRIPOS>ATOM
      1 O5         -0.6660    0.6940   -0.1070 o         1 ON7     -0.558000
      2 C28         0.5640    0.7820   -0.1710 c         1 ON7      0.687700
      3 O4          1.2000    1.1880    0.9960 os        1 ON7     -0.466900
      4 C29         0.3640    1.4170    2.1220 c3        1 ON7      0.134700
      5 C25         1.4740    0.5470   -1.2600 cc        1 ON7     -0.223600
      6 C24         1.1470    0.0700   -2.5880 cc        1 ON7     -0.033300
      7 C30        -0.1330   -0.4060   -3.1170 c3        1 ON7     -0.151100
      8 C31        -0.0040   -1.6640   -4.0050 c         1 ON7      0.919600
      9 O7          1.1430   -2.0560   -4.3910 o         1 ON7     -0.852300
     10 O6         -1.0730   -2.2420   -4.3340 o         1 ON7     -0.852300
     11 C23         2.3500    0.0430   -3.3030 cd        1 ON7     -0.164300
     12 C26         2.8700    0.7400   -1.2120 cd        1 ON7     -0.101300
     13 N1          3.3970    0.4570   -2.4640 na        1 ON7     -0.065100
     14 C13         4.7860    0.2820   -2.7680 c3        1 ON7      0.043300
     15 C8          5.3470   -1.1410   -2.5780 c3        1 ON7     -0.099700
     16 C6          4.5400   -2.1620   -3.4170 c3        1 ON7      0.201400
     17 O2          3.4750   -2.6150   -2.6010 oh        1 ON7     -0.629800
     18 C3          5.3630   -3.3510   -3.8480 ca        1 ON7     -0.026300
     19 C2          5.4250   -4.4900   -3.0440 ca        1 ON7     -0.208000
     20 C5          6.0380   -3.3220   -5.0720 ca        1 ON7     -0.208000
     21 C7          6.7820   -4.4350   -5.4790 ca        1 ON7      0.133100
     22 O3          7.5010   -4.4720   -6.6650 os        1 ON7     -0.337400
     23 C11         7.1350   -3.5000   -7.6370 c3        1 ON7      0.114700
     24 C9          6.8710   -5.5970   -4.6870 ca        1 ON7     -0.130300
     25 C10         7.6680   -6.7640   -5.1200 c3        1 ON7     -0.027800
     26 C1          6.1720   -5.5970   -3.4640 ca        1 ON7      0.133100
     27 O1          6.2970   -6.7540   -2.7110 os        1 ON7     -0.337400
     28 C4          5.3470   -6.9100   -1.6620 c3        1 ON7      0.114700
     29 C12         6.8270   -1.1510   -2.9270 c3        1 ON7     -0.077400
     30 C14         7.6850   -0.2860   -2.0200 c3        1 ON7     -0.063700
     31 C16         9.1110   -0.8680   -1.8790 c3        1 ON7     -0.037600
     32 C18        10.0390    0.2540   -2.1950 ca        1 ON7     -0.081300
     33 C19        11.4250    0.2660   -2.1630 ca        1 ON7     -0.121500
     34 C20        12.0980    1.4430   -2.5150 ca        1 ON7     -0.136500
     35 C21        11.3900    2.5820   -2.8900 ca        1 ON7     -0.136500
     36 C22         9.9890    2.5740   -2.9230 ca        1 ON7     -0.121500
     37 C17         9.3200    1.4110   -2.5750 ca        1 ON7     -0.081300
     38 C15         7.8510    1.1620   -2.5300 c3        1 ON7     -0.037600
     39 H1          1.0750    1.7070    2.9340 h1        1 ON7      0.036033
     40 H2         -0.3590    2.2410    1.9040 h1        1 ON7      0.036033
     41 H3         -0.1950    0.4870    2.3850 h1        1 ON7      0.036033
     42 H4         -0.8390   -0.6300   -2.2750 hc        1 ON7      0.056200
     43 H5         -0.6070    0.3920   -3.7490 hc        1 ON7      0.056200
     44 H7          2.5100   -0.2940   -4.3310 h4        1 ON7      0.204000
     45 H8          3.4850    1.0700   -0.3740 h4        1 ON7      0.162000
     46 H9          5.3730    0.9810   -2.1060 h1        1 ON7      0.048700
     47 H10         4.9450    0.5880   -3.8420 h1        1 ON7      0.048700
     48 H11         5.2240   -1.4370   -1.4980 hc        1 ON7      0.077700
     49 H12         4.1460   -1.6560   -4.3450 h1        1 ON7      0.061700
     50 H13         2.6370   -2.4640   -3.0860 ho        1 ON7      0.482000
     51 H14         4.8540   -4.5010   -2.1030 ha        1 ON7      0.150500
     52 H15         5.9670   -2.4290   -5.7080 ha        1 ON7      0.150500
     53 H16         7.6780   -3.8320   -8.5580 h1        1 ON7      0.042367
     54 H17         7.4860   -2.4870   -7.3230 h1        1 ON7      0.042367
     55 H18         6.0310   -3.4950   -7.8080 h1        1 ON7      0.042367
     56 H19         7.2340   -7.7100   -4.7090 hc        1 ON7      0.041700
     57 H20         7.6950   -6.8300   -6.2360 hc        1 ON7      0.041700
     58 H21         8.7190   -6.6700   -4.7490 hc        1 ON7      0.041700
     59 H22         5.5640   -6.1920   -0.8350 h1        1 ON7      0.042367
     60 H23         5.5070   -7.9630   -1.3190 h1        1 ON7      0.042367
     61 H24         4.3040   -6.7700   -2.0380 h1        1 ON7      0.042367
     62 H25         6.9640   -0.8460   -3.9980 hc        1 ON7      0.053700
     63 H26         7.1890   -2.2140   -2.8420 hc        1 ON7      0.053700
     64 H27         7.2140   -0.2530   -1.0010 hc        1 ON7      0.054700
     65 H28         9.2770   -1.7200   -2.5870 hc        1 ON7      0.056950
     66 H29         9.2770   -1.2500   -0.8410 hc        1 ON7      0.056950
     67 H30        11.9890   -0.6310   -1.8710 ha        1 ON7      0.131000
     68 H31        13.1970    1.4640   -2.4940 ha        1 ON7      0.123500
     69 H32        11.9320    3.4980   -3.1640 ha        1 ON7      0.123500
     70 H33         9.4350    3.4750   -3.2200 ha        1 ON7      0.131000
     71 H34         7.3940    1.2910   -3.5450 hc        1 ON7      0.056950
     72 H35         7.3520    1.8860   -1.8370 hc        1 ON7      0.056950
@<TRIPOS>BOND
     1    1    2 2   
     2    2    3 1   
     3    2    5 1   
     4    3    4 1   
     5    4   39 1   
     6    4   40 1   
     7    4   41 1   
     8    5    6 1   
     9    5   12 2   
    10    6    7 1   
    11    6   11 2   
    12    7    8 1   
    13    7   42 1   
    14    7   43 1   
    15    8    9 1   
    16    8   10 1   
    17   11   13 1   
    18   11   44 1   
    19   12   13 1   
    20   12   45 1   
    21   13   14 1   
    22   14   15 1   
    23   14   46 1   
    24   14   47 1   
    25   15   16 1   
    26   15   29 1   
    27   15   48 1   
    28   16   17 1   
    29   16   18 1   
    30   16   49 1   
    31   17   50 1   
    32   18   19 ar  
    33   18   20 ar  
    34   19   26 ar  
    35   19   51 1   
    36   20   21 ar  
    37   20   52 1   
    38   21   22 1   
    39   21   24 ar  
    40   22   23 1   
    41   23   53 1   
    42   23   54 1   
    43   23   55 1   
    44   24   25 1   
    45   24   26 ar  
    46   25   56 1   
    47   25   57 1   
    48   25   58 1   
    49   26   27 1   
    50   27   28 1   
    51   28   59 1   
    52   28   60 1   
    53   28   61 1   
    54   29   30 1   
    55   29   62 1   
    56   29   63 1   
    57   30   31 1   
    58   30   38 1   
    59   30   64 1   
    60   31   32 1   
    61   31   65 1   
    62   31   66 1   
    63   32   33 ar  
    64   32   37 ar  
    65   33   34 ar  
    66   33   67 1   
    67   34   35 ar  
    68   34   68 1   
    69   35   36 ar  
    70   35   69 1   
    71   36   37 ar  
    72   36   70 1   
    73   37   38 1   
    74   38   71 1   
    75   38   72 1   
@<TRIPOS>SUBSTRUCTURE
     1 ON7         1 TEMP              0 ****  ****    0 ROOT
