@<TRIPOS>MOLECULE
ON9
   77    75     1     0     0
SMALL
bcc


@<TRIPOS>ATOM
      1 C30         0.5510   -1.6880    1.7500 c3        1 ON9     -0.271000
      2 C31         1.2330    2.6050    1.7090 c1        1 ON9     -0.031000
      3 C28         5.3770   -3.1180    2.1110 c3        1 ON9     -0.084000
      4 C27         7.8730   -1.7660    3.6780 c1        1 ON9     -0.074000
      5 C29         1.7800   -1.2370    1.0270 c2        1 ON9      0.305000
      6 C24         3.9940   -4.4060    8.4090 c1        1 ON9     -0.062000
      7 C25         2.9750   -3.6390    9.0630 c2        1 ON9      0.286000
      8 C21         5.5890   -2.5970    7.7270 c2        1 ON9     -0.154000
      9 C1          2.7850   -0.5480    1.8690 ca        1 ON9     -0.174000
     10 O6          1.9380   -1.4170   -0.1840 o         1 ON9     -0.294000
     11 C2          3.9970   -1.1780    2.2310 ca        1 ON9      0.130000
     12 C20         6.3760   -2.0380    6.6350 c2        1 ON9     -0.385000
     13 C22         5.2600   -1.5430    8.5680 c2        1 ON9     -0.202000
     14 C3          4.9470   -0.5170    3.0230 ca        1 ON9     -0.207000
     15 O3          8.0520   -2.1890    4.8980 os        1 ON9     -0.209000
     16 C6          5.7390    1.4590    4.3110 c3        1 ON9     -0.030000
     17 O2          6.7310   -3.9360    5.1640 o         1 ON9     -0.411000
     18 C5          3.5060    1.4240    3.1330 ca        1 ON9     -0.201000
     19 C8          3.3750    1.3480    7.4950 c3        1 ON9     -0.274000
     20 C7          4.4430    1.7270    8.3880 c1        1 ON9     -0.098000
     21 C11         0.8130   -2.6030    6.2800 c3        1 ON9     -0.097000
     22 C4          4.7000    0.7810    3.4740 ca        1 ON9     -0.036000
     23 O1          1.8750   -3.2020    8.3440 os        1 ON9     -0.258000
     24 C9         -0.4510   -0.7430    6.9980 c2        1 ON9     -0.173000
     25 C13        -1.3720   -1.9040    7.2030 c3        1 ON9     -0.098000
     26 C10         0.7440   -1.1200    6.5150 c2        1 ON9     -0.157000
     27 C12        -0.5340   -3.1500    6.8140 c3        1 ON9     -0.172000
     28 C17         2.0310   -3.2490    6.9200 c3        1 ON9     -0.036000
     29 O4          5.2820    2.6840    4.8590 oh        1 ON9     -0.336000
     30 C16         0.1000   -4.3050    4.0280 c1        1 ON9      0.253000
     31 C15        -0.8840   -4.6910    4.8220 c2        1 ON9     -0.505000
     32 C14        -1.3350   -4.0510    6.0070 c1        1 ON9     -0.007000
     33 C18         5.6420    0.9330    8.6130 c3        1 ON9     -0.064000
     34 C19         6.4790   -0.6140    6.8410 c1        1 ON9     -0.145000
     35 C           2.5760    0.7520    2.3420 ca        1 ON9     -0.023000
     36 N           5.8020   -0.3610    8.0140 n3        1 ON9     -0.183000
     37 O           2.8280   -3.4690   10.2830 o         1 ON9     -0.353000
     38 H1         -0.1950   -2.1110    1.0360 hc        1 ON9      0.107333
     39 H2          0.1000   -0.8160    2.2860 hc        1 ON9      0.107333
     40 H3          0.8240   -2.4740    2.5010 hc        1 ON9      0.107333
     41 H4          2.1420    3.2430    1.6490 ha        1 ON9      0.031000
     42 H5          1.3020    3.5330    3.9620 ha        1 ON9      0.002833
     43 H6          0.6360    3.5330    3.8320 ha        1 ON9      0.002833
     44 H7          5.2820   -4.1130    1.6080 h1        1 ON9      0.098000
     45 H8          5.4670   -3.2390    3.2210 h1        1 ON9      0.098000
     46 H9          6.2560   -2.5510    1.7200 h1        1 ON9      0.098000
     47 H10         8.8590   -1.3770    3.3050 ha        1 ON9      0.009000
     48 H11         7.7390   -4.0390    2.9520 ha        1 ON9      0.002833
     49 H12         8.3060   -3.9460    2.5890 ha        1 ON9      0.002833
     50 H13         5.3820   -4.5450    6.8730 hc        1 ON9      0.184500
     51 H14         6.0150   -4.5360    8.5560 hc        1 ON9      0.184500
     52 H15         3.5720   -6.0780    6.5830 ha        1 ON9      0.002833
     53 H16         3.2940   -6.4350    6.0780 ha        1 ON9      0.002833
     54 H17         4.6920   -1.5470    9.4980 h4        1 ON9      0.152000
     55 H18         5.8990   -1.0180    3.3020 ha        1 ON9      0.208000
     56 H19         6.6090    1.7500    3.6590 h1        1 ON9      0.137000
     57 H20         3.3110    2.4480    3.4870 ha        1 ON9      0.149000
     58 H21         3.6810    0.7120    6.6210 hc        1 ON9      0.109000
     59 H22         2.8460    2.2580    7.1110 hc        1 ON9      0.109000
     60 H23         6.1030    0.7630    5.1310 h1        1 ON9      0.137000
     61 H25         2.6360    0.7550    8.1060 hc        1 ON9      0.109000
     62 H26        -2.2860   -1.8150    6.5640 hc        1 ON9      0.098500
     63 H27        -1.7010   -1.9750    8.2690 hc        1 ON9      0.098500
     64 H28         1.6060   -0.4860    6.2940 ha        1 ON9      0.149000
     65 H29        -0.7750    0.2710    7.2390 ha        1 ON9      0.138000
     66 H30         0.9090   -2.7760    5.1640 hc        1 ON9      0.103000
     67 H31         4.7260    2.4610    5.6170 ho        1 ON9      0.197000
     68 H32         2.1170   -4.3260    6.6070 h1        1 ON9      0.099500
     69 H33        -1.5130   -5.5630    4.5300 ha        1 ON9      0.201000
     70 H34        -0.3240   -3.7420    7.7620 hc        1 ON9      0.174000
     71 H35         6.4910    1.5970    8.2440 h1        1 ON9      0.143000
     72 H36         5.7600    0.8410    9.7380 h1        1 ON9      0.143000
     73 H37         2.9650   -2.6940    6.6270 h1        1 ON9      0.099500
     74 O5          4.1550   -2.4630    1.7650 os        1 ON9     -0.215000
     75 O7          1.3300    1.3700    2.0290 os        1 ON9     -0.047000
     76 C26         6.9340   -2.7910    5.5890 c2        1 ON9      0.429000
     77 C23         5.2560   -4.0170    7.8780 c3        1 ON9     -0.133000
@<TRIPOS>BOND
     1    1    5 1   
     2    1   38 1   
     3    1   39 1   
     4    1   40 1   
     5    2   41 1   
     6    2   75 1   
     7    3   44 1   
     8    3   45 1   
     9    3   46 1   
    10    3   74 1   
    11    4   15 1   
    12    4   47 1   
    13    5    9 1   
    14    5   10 1   
    15    6    7 1   
    16    6   77 1   
    17    7   23 1   
    18    7   37 1   
    19    8   12 1   
    20    8   13 1   
    21    8   77 1   
    22    9   11 1   
    23    9   35 1   
    24   11   14 1   
    25   11   74 1   
    26   12   34 1   
    27   12   76 1   
    28   13   36 1   
    29   13   54 1   
    30   14   22 1   
    31   14   55 1   
    32   15   76 1   
    33   16   22 1   
    34   16   29 1   
    35   16   56 1   
    36   16   60 1   
    37   17   76 1   
    38   18   22 1   
    39   18   35 1   
    40   18   57 1   
    41   19   20 1   
    42   19   58 1   
    43   19   59 1   
    44   19   61 1   
    45   20   33 1   
    46   21   26 1   
    47   21   27 1   
    48   21   28 1   
    49   21   66 1   
    50   23   28 1   
    51   24   25 1   
    52   24   26 1   
    53   24   65 1   
    54   25   27 1   
    55   25   62 1   
    56   25   63 1   
    57   26   64 1   
    58   27   32 1   
    59   27   70 1   
    60   28   68 1   
    61   28   73 1   
    62   29   67 1   
    63   30   31 1   
    64   31   32 1   
    65   31   69 1   
    66   33   36 1   
    67   33   71 1   
    68   33   72 1   
    69   34   36 1   
    70   35   75 1   
    71   42   43 1   
    72   48   49 1   
    73   50   77 1   
    74   51   77 1   
    75   52   53 1   
@<TRIPOS>SUBSTRUCTURE
     1 ON9         1 TEMP              0 ****  ****    0 ROOT
