@<TRIPOS>MOLECULE
ONA
   60    63     1     0     0
SMALL
bcc


@<TRIPOS>ATOM
      1 CA7         0.0000    0.0000    0.0000 c3        1 ONA      0.210100
      2 NA1         1.4650    0.0000    0.0000 nu        1 ONA     -0.486600
      3 CA6         2.1600    0.0000    1.2020 ca        1 ONA      0.115600
      4 CA5         1.4730    0.1200    2.4050 ca        1 ONA     -0.241000
      5 CA4         2.1650    0.1190    3.5980 ca        1 ONA     -0.185000
      6 CA3         3.5470    0.0010    3.6090 ca        1 ONA     -0.160000
      7 CA2         4.2440   -0.1190    2.4270 ca        1 ONA     -0.057000
      8 CA1         3.5570   -0.1270    1.2100 ca        1 ONA     -0.273600
      9 CA          4.2970   -0.2600   -0.0570 c         1 ONA      0.720700
     10 OA          3.7100   -0.1610   -1.1170 o         1 ONA     -0.701000
     11 O3'         5.6240   -0.4940   -0.0420 os        1 ONA     -0.362900
     12 C3'         6.2860   -0.6150   -1.3280 c3        1 ONA      0.131100
     13 C2'         6.8160    0.7600   -1.7950 c3        1 ONA      0.116100
     14 O2'         6.5070    1.7700   -0.8320 oh        1 ONA     -0.557800
     15 C4'         7.5580   -1.4840   -1.2020 c3        1 ONA      0.152100
     16 C5'         7.2700   -2.9170   -1.6530 c3        1 ONA      0.308400
     17 O5'         8.4210   -3.7300   -1.4200 os        1 ONA     -0.496200
     18 PA          8.4730   -5.2990   -1.7760 p5        1 ONA      0.957800
     19 O3A         7.3480   -5.9940   -1.1100 o         1 ONA     -0.694000
     20 O2A         8.3550   -5.4910   -3.3700 o         1 ONA     -0.694000
     21 O1A         9.8670   -5.9200   -1.2630 os        1 ONA     -0.493800
     22 PB         10.4050   -7.4190   -1.0300 p5        1 ONA      1.019800
     23 O3B        10.0320   -8.2620   -2.1890 o         1 ONA     -0.643500
     24 O2B         9.7480   -8.0250    0.3070 o         1 ONA     -0.643500
     25 O1B        12.0080   -7.3970   -0.8780 os        1 ONA     -0.480800
     26 PG         13.1630   -8.5080   -1.0330 p5        1 ONA      0.843900
     27 O3G        12.9220   -9.3010   -2.2590 o         1 ONA     -0.601833
     28 O1G        14.5960   -7.7820   -1.1350 o         1 ONA     -0.601833
     29 O2G        13.1450   -9.4830    0.2480 o         1 ONA     -0.601833
     30 O4'         8.5180   -0.8620   -2.0840 os        1 ONA     -0.361600
     31 C1'         8.3450    0.5580   -1.8960 c3        1 ONA      0.121800
     32 N9          8.8810    1.2950   -3.0440 na        1 ONA      0.218000
     33 C8          9.1060    0.7910   -4.2910 cc        1 ONA      0.215700
     34 N7          9.5870    1.7210   -5.0650 nd        1 ONA     -0.549100
     35 C5          9.7000    2.8760   -4.3670 ca        1 ONA     -0.239200
     36 C4          9.2430    2.6180   -3.0630 ca        1 ONA      0.270800
     37 N3          9.2460    3.6030   -2.1720 nb        1 ONA     -0.700000
     38 C2          9.6670    4.8060   -2.5020 ca        1 ONA      0.553900
     39 N1         10.1020    5.0970   -3.7130 nb        1 ONA     -0.736000
     40 C6         10.1450    4.1730   -4.6690 ca        1 ONA      0.477200
     41 N6         10.6000    4.4890   -5.9370 nv        1 ONA     -0.544500
     42 HA71       -0.3610   -0.0770   -1.0180 h1        1 ONA     -0.020300
     43 HA72       -0.3610    0.9210    0.4420 h1        1 ONA     -0.020300
     44 HA73       -0.3610   -0.8430    0.5760 h1        1 ONA     -0.020300
     45 HA1         1.9650    0.0210   -0.8670 hn        1 ONA      0.363800
     46 HA5         0.3940    0.2130    2.4050 ha        1 ONA      0.083000
     47 HA4         1.6260    0.2130    4.5330 ha        1 ONA      0.065000
     48 HA3         4.0810    0.0020    4.5520 ha        1 ONA      0.074000
     49 HA2         5.3240   -0.2110    2.4410 ha        1 ONA      0.110000
     50 H3'         5.6160   -1.0320   -2.0700 h1        1 ONA      0.054700
     51 H1          6.4040    1.0130   -2.7650 h1        1 ONA      0.012700
     52 H2'         6.0380    2.4720   -1.2520 ho        1 ONA      0.377000
     53 H4'         7.9220   -1.4700   -0.1820 h1        1 ONA      0.036700
     54 H5'1        7.0320   -2.9230   -2.7100 h1        1 ONA     -0.014800
     55 H5'2        6.4310   -3.3110   -1.0920 h1        1 ONA     -0.014800
     56 H1'         8.8260    0.8760   -0.9790 h2        1 ONA      0.054700
     57 H8          8.9140   -0.2320   -4.5930 h5        1 ONA      0.055800
     58 H2          9.6550    5.5860   -1.7500 h5        1 ONA     -0.031900
     59 HN61       10.6280    3.7850   -6.6480 hn        1 ONA      0.253300
     60 HN62       10.9080    5.4190   -6.1410 hn        1 ONA      0.253300
@<TRIPOS>BOND
     1    1    2 1   
     2    1   42 1   
     3    1   43 1   
     4    1   44 1   
     5    2    3 1   
     6    2   45 1   
     7    3    4 ar  
     8    3    8 ar  
     9    4    5 ar  
    10    4   46 1   
    11    5    6 ar  
    12    5   47 1   
    13    6    7 ar  
    14    6   48 1   
    15    7    8 ar  
    16    7   49 1   
    17    8    9 1   
    18    9   10 2   
    19    9   11 1   
    20   11   12 1   
    21   12   13 1   
    22   12   15 1   
    23   12   50 1   
    24   13   14 1   
    25   13   31 1   
    26   13   51 1   
    27   14   52 1   
    28   15   16 1   
    29   15   30 1   
    30   15   53 1   
    31   16   17 1   
    32   16   54 1   
    33   16   55 1   
    34   17   18 1   
    35   18   19 1   
    36   18   20 1   
    37   18   21 1   
    38   21   22 1   
    39   22   23 1   
    40   22   24 1   
    41   22   25 1   
    42   25   26 1   
    43   26   27 1   
    44   26   28 1   
    45   26   29 1   
    46   30   31 1   
    47   31   32 1   
    48   31   56 1   
    49   32   33 1   
    50   32   36 1   
    51   33   34 2   
    52   33   57 1   
    53   34   35 1   
    54   35   36 ar  
    55   35   40 ar  
    56   36   37 ar  
    57   37   38 ar  
    58   38   39 ar  
    59   38   58 1   
    60   39   40 ar  
    61   40   41 1   
    62   41   59 1   
    63   41   60 1   
@<TRIPOS>SUBSTRUCTURE
     1 ONA         1 TEMP              0 ****  ****    0 ROOT
