@<TRIPOS>MOLECULE
ONB
   26    21     1     0     0
SMALL
bcc


@<TRIPOS>ATOM
      1 CAA        -1.5220   -0.6030   -3.4780 c1        1 ONB     -0.125375
      2 CAB         1.5630    1.6110    3.0760 c1        1 ONB     -0.125375
      3 CAC        -0.1290   -0.6030   -3.4780 c1        1 ONB     -0.125375
      4 CAD         2.5330    1.2060    2.1670 c1        1 ONB     -0.125375
      5 CAE        -2.2180   -0.6030   -2.2730 c1        1 ONB     -0.125375
      6 CAF         0.2640    1.1330    2.9650 c1        1 ONB     -0.103000
      7 CAG         0.5660   -0.6030   -2.2740 c1        1 ONB     -0.125375
      8 CAH         2.2040    0.3240    1.1480 c1        1 ONB     -0.178000
      9 CAI        -2.0690    0.0120    0.2380 c1        1 ONB     -0.125375
     10 CAJ        -1.4350   -0.3330    1.5690 c1        1 ONB     -0.125375
     11 NAK         0.3810   -1.1790    0.1590 n3        1 ONB     -0.221000
     12 CAL        -1.5180   -0.6030   -1.0580 c1        1 ONB     -0.050000
     13 CAM        -0.0690    0.2420    1.9350 c1        1 ONB     -0.050000
     14 CAN        -0.1350   -0.6030   -1.0580 c1        1 ONB      0.053000
     15 CAO         0.8910   -0.1590    1.0350 c2        1 ONB      0.053000
     16 HAA        -2.0100   -0.6030   -4.3230 ha        1 ONB      0.131250
     17 HAB         1.7950    2.2320    3.7930 ha        1 ONB      0.131250
     18 HAC         0.3590   -0.6030   -4.3230 ha        1 ONB      0.131250
     19 HAD         3.4460    1.5430    2.2460 ha        1 ONB      0.131250
     20 HAE        -3.1940   -0.6030   -2.2730 ha        1 ONB      0.131250
     21 HAF        -0.4170    1.4180    3.6030 ha        1 ONB      0.134000
     22 HAG         1.5420   -0.6030   -2.2750 ha        1 ONB      0.131250
     23 HAH         2.8860    0.0400    0.5100 ha        1 ONB      0.130000
     24 HAI        -2.8440    0.6040    0.2050 ha        1 ONB      0.131250
     25 HAJ        -1.9160   -0.8940    2.2070 ha        1 ONB      0.131250
     26 HNAK        1.0470   -1.7680   -0.0420 hn        1 ONB      0.187000
@<TRIPOS>BOND
     1    1    5 1   
     2    1   16 1   
     3    2    4 1   
     4    2   17 1   
     5    3    7 1   
     6    3   18 1   
     7    4   19 1   
     8    5   20 1   
     9    6   13 1   
    10    6   21 1   
    11    7   22 1   
    12    8   15 1   
    13    8   23 1   
    14    9   10 1   
    15    9   24 1   
    16   10   25 1   
    17   11   14 1   
    18   11   15 1   
    19   11   26 1   
    20   12   14 1   
    21   13   15 1   
@<TRIPOS>SUBSTRUCTURE
     1 ONB         1 TEMP              0 ****  ****    0 ROOT
