@<TRIPOS>MOLECULE
ONB
   26    28     1     0     0
SMALL
bcc


@<TRIPOS>ATOM
      1 CAA        -0.0670   -0.1560   -0.0470 ca        1 ONB     -0.131000
      2 CAB         1.5970    3.5330    5.9540 ca        1 ONB     -0.131000
      3 CAC         1.3270   -0.0890   -0.0520 ca        1 ONB     -0.127000
      4 CAD         2.8300    3.2420    5.3690 ca        1 ONB     -0.127000
      5 CAE        -0.7580   -0.1270    1.1590 ca        1 ONB     -0.113000
      6 CAF         0.5120    2.6890    5.7420 ca        1 ONB     -0.113000
      7 CAG         2.0310   -0.0030    1.1440 ca        1 ONB     -0.103000
      8 CAH         2.9840    2.1080    4.5790 ca        1 ONB     -0.103000
      9 CAI        -0.8370    0.0250    3.6100 cc        1 ONB     -0.120000
     10 CAJ        -0.5280    0.7100    4.7240 cd        1 ONB     -0.120000
     11 NAK         2.1130    0.0560    3.5830 na        1 ONB     -0.172300
     12 CAL        -0.0710   -0.0250    2.3770 ca        1 ONB     -0.071000
     13 CAM         0.6380    1.5470    4.9370 ca        1 ONB     -0.071000
     14 CAN         1.3440    0.0220    2.3730 ca        1 ONB     -0.037200
     15 CAO         1.8950    1.2420    4.3590 ca        1 ONB     -0.037200
     16 HAA        -0.6180   -0.2280   -0.9960 ha        1 ONB      0.133000
     17 HAB         1.4830    4.4280    6.5820 ha        1 ONB      0.133000
     18 HAC         1.8740   -0.1090   -1.0060 ha        1 ONB      0.134000
     19 HAD         3.6880    3.9110    5.5350 ha        1 ONB      0.134000
     20 HAE        -1.8580   -0.1750    1.1620 ha        1 ONB      0.133000
     21 HAF        -0.4610    2.9210    6.2000 ha        1 ONB      0.133000
     22 HAG         3.1320    0.0430    1.1310 ha        1 ONB      0.147000
     23 HAH         3.9620    1.8830    4.1260 ha        1 ONB      0.147000
     24 HAI        -1.7870   -0.5400    3.5810 ha        1 ONB      0.129000
     25 HAJ        -1.2350    0.6850    5.5740 ha        1 ONB      0.129000
     26 HNAK        1.8740   -0.7480    4.1440 hn        1 ONB      0.224700
@<TRIPOS>BOND
     1    1    3 ar  
     2    1    5 ar  
     3    1   16 1   
     4    2    4 ar  
     5    2    6 ar  
     6    2   17 1   
     7    3    7 ar  
     8    3   18 1   
     9    4    8 ar  
    10    4   19 1   
    11    5   12 ar  
    12    5   20 1   
    13    6   13 ar  
    14    6   21 1   
    15    7   14 ar  
    16    7   22 1   
    17    8   15 ar  
    18    8   23 1   
    19    9   10 2   
    20    9   12 1   
    21    9   24 1   
    22   10   13 1   
    23   10   25 1   
    24   11   14 1   
    25   11   15 1   
    26   11   26 1   
    27   12   14 ar  
    28   13   15 ar  
@<TRIPOS>SUBSTRUCTURE
     1 ONB         1 TEMP              0 ****  ****    0 ROOT
