@<TRIPOS>MOLECULE
ONB
   26    28     1     0     0
SMALL
bcc


@<TRIPOS>ATOM
      1 CAA        -0.0650   -0.1570   -0.0470 ca        1 ONB     -0.131000
      2 CAB         1.5950    3.5340    5.9540 ca        1 ONB     -0.131000
      3 CAC         1.3290   -0.0910   -0.0510 ca        1 ONB     -0.127000
      4 CAD         2.8290    3.2430    5.3690 ca        1 ONB     -0.127000
      5 CAE        -0.7570   -0.1280    1.1580 ca        1 ONB     -0.113000
      6 CAF         0.5110    2.6900    5.7410 ca        1 ONB     -0.113000
      7 CAG         2.0330   -0.0030    1.1450 ca        1 ONB     -0.103000
      8 CAH         2.9830    2.1080    4.5790 ca        1 ONB     -0.103000
      9 CAI        -0.8370    0.0250    3.6100 cc        1 ONB     -0.120000
     10 CAJ        -0.5280    0.7100    4.7230 cd        1 ONB     -0.120000
     11 NAK         2.1130    0.0560    3.5840 na        1 ONB     -0.172300
     12 CAL        -0.0710   -0.0260    2.3770 ca        1 ONB     -0.071000
     13 CAM         0.6380    1.5480    4.9360 ca        1 ONB     -0.071000
     14 CAN         1.3450    0.0210    2.3740 ca        1 ONB     -0.037200
     15 CAO         1.8940    1.2420    4.3590 ca        1 ONB     -0.037200
     16 HAA        -0.6160   -0.2300   -0.9960 ha        1 ONB      0.133000
     17 HAB         1.4810    4.4300    6.5810 ha        1 ONB      0.133000
     18 HAC         1.8760   -0.1100   -1.0050 ha        1 ONB      0.134000
     19 HAD         3.6860    3.9120    5.5350 ha        1 ONB      0.134000
     20 HAE        -1.8570   -0.1760    1.1620 ha        1 ONB      0.133000
     21 HAF        -0.4630    2.9220    6.1990 ha        1 ONB      0.133000
     22 HAG         3.1330    0.0420    1.1320 ha        1 ONB      0.147000
     23 HAH         3.9620    1.8840    4.1270 ha        1 ONB      0.147000
     24 HAI        -1.7870   -0.5400    3.5800 ha        1 ONB      0.129000
     25 HAJ        -1.2360    0.6860    5.5740 ha        1 ONB      0.129000
     26 HNAK        1.8730   -0.7480    4.1450 hn        1 ONB      0.224700
@<TRIPOS>BOND
     1    1    3 ar  
     2    1    5 ar  
     3    1   16 1   
     4    2    4 ar  
     5    2    6 ar  
     6    2   17 1   
     7    3    7 ar  
     8    3   18 1   
     9    4    8 ar  
    10    4   19 1   
    11    5   12 ar  
    12    5   20 1   
    13    6   13 ar  
    14    6   21 1   
    15    7   14 ar  
    16    7   22 1   
    17    8   15 ar  
    18    8   23 1   
    19    9   10 2   
    20    9   12 1   
    21    9   24 1   
    22   10   13 1   
    23   10   25 1   
    24   11   14 1   
    25   11   15 1   
    26   11   26 1   
    27   12   14 ar  
    28   13   15 ar  
@<TRIPOS>SUBSTRUCTURE
     1 ONB         1 TEMP              0 ****  ****    0 ROOT
