@<TRIPOS>MOLECULE
ONB
   26    28     1     0     0
SMALL
bcc


@<TRIPOS>ATOM
      1 CAA        -3.6190   -0.0010   -0.8350 ca        1 ONB     -0.131000
      2 CAB         3.6190   -0.0020   -0.8340 ca        1 ONB     -0.131000
      3 CAC        -3.2690   -1.3070   -0.4900 ca        1 ONB     -0.127000
      4 CAD         3.2690   -1.3080   -0.4890 ca        1 ONB     -0.127000
      5 CAE        -2.7640    1.0500   -0.5260 ca        1 ONB     -0.113000
      6 CAF         2.7640    1.0500   -0.5250 ca        1 ONB     -0.113000
      7 CAG        -2.0710   -1.5640    0.1690 ca        1 ONB     -0.103000
      8 CAH         2.0710   -1.5640    0.1690 ca        1 ONB     -0.103000
      9 CAI        -0.6710    1.9420    0.4050 cc        1 ONB     -0.120000
     10 CAJ         0.6720    1.9420    0.4060 cd        1 ONB     -0.120000
     11 NAK        -0.0000   -0.8120    1.2200 na        1 ONB     -0.172300
     12 CAL        -1.5430    0.8150    0.1250 ca        1 ONB     -0.071000
     13 CAM         1.5430    0.8150    0.1250 ca        1 ONB     -0.071000
     14 CAN        -1.1970   -0.5080    0.4920 ca        1 ONB     -0.037200
     15 CAO         1.1980   -0.5080    0.4930 ca        1 ONB     -0.037200
     16 HAA        -4.5690    0.1960   -1.3520 ha        1 ONB      0.133000
     17 HAB         4.5700    0.1960   -1.3500 ha        1 ONB      0.133000
     18 HAC        -3.9440   -2.1400   -0.7370 ha        1 ONB      0.134000
     19 HAD         3.9440   -2.1400   -0.7360 ha        1 ONB      0.134000
     20 HAE        -3.0380    2.0800   -0.8020 ha        1 ONB      0.133000
     21 HAF         3.0380    2.0800   -0.8000 ha        1 ONB      0.133000
     22 HAG        -1.8060   -2.5980    0.4420 ha        1 ONB      0.147000
     23 HAH         1.8060   -2.5980    0.4430 ha        1 ONB      0.147000
     24 HAI        -1.2020    2.8930    0.5970 ha        1 ONB      0.129000
     25 HAJ         1.2020    2.8930    0.5980 ha        1 ONB      0.129000
     26 HNAK       -0.0000   -0.2870    2.0820 hn        1 ONB      0.224700
@<TRIPOS>BOND
     1    1    3 ar  
     2    1    5 ar  
     3    1   16 1   
     4    2    4 ar  
     5    2    6 ar  
     6    2   17 1   
     7    3    7 ar  
     8    3   18 1   
     9    4    8 ar  
    10    4   19 1   
    11    5   12 ar  
    12    5   20 1   
    13    6   13 ar  
    14    6   21 1   
    15    7   14 ar  
    16    7   22 1   
    17    8   15 ar  
    18    8   23 1   
    19    9   10 2   
    20    9   12 1   
    21    9   24 1   
    22   10   13 1   
    23   10   25 1   
    24   11   14 1   
    25   11   15 1   
    26   11   26 1   
    27   12   14 ar  
    28   13   15 ar  
@<TRIPOS>SUBSTRUCTURE
     1 ONB         1 TEMP              0 ****  ****    0 ROOT
