@<TRIPOS>MOLECULE
ONE
   32    32     1     0     0
SMALL
bcc


@<TRIPOS>ATOM
      1 OP3        -0.0080    3.1470    2.7710 o         1 ONE     -0.731500
      2 P          -0.1330    1.9230    3.6500 p5        1 ONE      1.585500
      3 OP1        -1.5710    1.6950    3.9870 o         1 ONE     -0.731500
      4 OP2         0.6540    2.1340    4.9230 o         1 ONE     -0.731500
      5 O5'         0.4500    0.6290    2.8610 os        1 ONE     -0.758000
      6 C5'        -0.0670    0.3380    1.5100 c3        1 ONE      0.019000
      7 C4'        -0.3080   -1.1820    1.3670 c3        1 ONE     -0.077000
      8 O4'        -1.2670   -1.4820    0.0990 os        1 ONE     -0.291000
      9 C3'         0.8000   -1.7840    1.1320 c3        1 ONE      0.169000
     10 C2'         0.8980   -1.8560   -0.4120 c3        1 ONE     -0.089000
     11 O2'         1.2110   -3.1240   -0.8060 oh        1 ONE     -0.384000
     12 O3'         0.7730   -3.1640    1.7110 oh        1 ONE     -0.707000
     13 C1'        -0.5070   -1.4610   -0.9360 c3        1 ONE      0.135000
     14 N1         -0.4780   -0.1150   -1.5170 n3        1 ONE     -0.182000
     15 C6          0.7250    0.3420   -2.2640 c2        1 ONE      0.005000
     16 C2         -1.7070    0.7150   -1.5110 c2        1 ONE      0.034000
     17 C3         -1.7560    2.0110   -2.3070 c1        1 ONE     -0.335000
     18 C4         -0.5530    2.4680   -3.0570 c1        1 ONE      0.293000
     19 O4         -0.5730    3.5310   -3.6530 o         1 ONE     -0.446000
     20 C5          0.6880    1.6450   -3.0440 c2        1 ONE     -0.341000
     21 H5''        0.5820    0.6280    0.8440 h1        1 ONE      0.074500
     22 H5'        -0.8950    0.8080    1.3760 h1        1 ONE      0.074500
     23 H4'        -0.6990   -1.5210    2.1520 h1        1 ONE      0.116000
     24 H3'         1.5430   -1.2800    1.4950 h1        1 ONE     -0.021000
     25 H2'         1.5620   -1.2310   -0.7350 h1        1 ONE      0.075000
     26 HO2         2.0150   -3.1370   -1.1350 ho        1 ONE      0.239000
     27 HO3         1.4600   -3.2700    2.2420 ho        1 ONE      0.232000
     28 H1'        -0.8250   -2.1300   -1.6160 h2        1 ONE      0.093000
     29 H6          1.5580   -0.2100   -2.2550 h4        1 ONE      0.153000
     30 H2         -2.5130    0.4080   -1.0090 h4        1 ONE      0.248000
     31 H3         -2.5800    2.5670   -2.3030 ha        1 ONE      0.153000
     32 H5          1.5190    1.9580   -3.5600 ha        1 ONE      0.126000
@<TRIPOS>BOND
     1    1    2 1   
     2    2    3 1   
     3    2    4 1   
     4    2    5 1   
     5    5    6 1   
     6    6    7 1   
     7    6   21 1   
     8    6   22 1   
     9    7    8 1   
    10    7    9 1   
    11    7   23 1   
    12    8   13 1   
    13    9   10 1   
    14    9   12 1   
    15    9   24 1   
    16   10   11 1   
    17   10   13 1   
    18   10   25 1   
    19   11   26 1   
    20   12   27 1   
    21   13   14 1   
    22   13   28 1   
    23   14   15 1   
    24   14   16 1   
    25   15   20 1   
    26   15   29 1   
    27   16   17 1   
    28   16   30 1   
    29   17   31 1   
    30   18   19 1   
    31   18   20 1   
    32   20   32 1   
@<TRIPOS>SUBSTRUCTURE
     1 ONE         1 TEMP              0 ****  ****    0 ROOT
