@<TRIPOS>MOLECULE
ONE
   32    33     1     0     0
SMALL
bcc


@<TRIPOS>ATOM
      1 OP3         0.0020   -0.7640   -5.0440 o         1 ONE     -0.928833
      2 P           0.0170   -1.1470   -3.5990 p5        1 ONE      1.335900
      3 OP1        -1.0100   -2.1190   -3.0960 o         1 ONE     -0.928833
      4 OP2         1.3780   -1.2990   -2.9440 o         1 ONE     -0.928833
      5 O5'        -0.4670    0.3180   -2.7780 os        1 ONE     -0.553200
      6 C5'        -0.5410    0.1900   -1.4210 c3        1 ONE      0.230400
      7 C4'         0.7140    0.8060   -0.7520 c3        1 ONE      0.054100
      8 O4'         0.3400    1.4650    0.4860 os        1 ONE     -0.433600
      9 C3'         1.8160   -0.2220   -0.4390 c3        1 ONE      0.133100
     10 C2'         2.1570   -0.0340    1.0550 c3        1 ONE      0.097100
     11 O2'         3.4210    0.5330    1.3290 oh        1 ONE     -0.627800
     12 O3'         2.9700    0.0290   -1.2050 oh        1 ONE     -0.687800
     13 C1'         1.0660    0.9530    1.5870 c3        1 ONE      0.388300
     14 N1          0.1440    0.3450    2.5630 na        1 ONE     -0.509200
     15 C6          0.4590    0.3860    3.9050 cc        1 ONE      0.106500
     16 C2         -1.0450   -0.2470    2.1790 cc        1 ONE      0.106500
     17 C3         -1.9190   -0.7730    3.0910 cd        1 ONE     -0.344700
     18 C4         -1.6440   -0.7350    4.5180 c         1 ONE      0.573500
     19 O4         -2.4270   -1.1850    5.3840 o         1 ONE     -0.656100
     20 C5         -0.3680   -0.1200    4.8680 cd        1 ONE     -0.344700
     21 H5''       -0.6430   -0.8920   -1.1190 h1        1 ONE     -0.000800
     22 H5'        -1.4330    0.7650   -1.0290 h1        1 ONE     -0.000800
     23 H4'         1.1170    1.6240   -1.4090 h1        1 ONE      0.080700
     24 H3'         1.4540   -1.2710   -0.6350 h1        1 ONE      0.121700
     25 H2'         2.1400   -1.0140    1.6000 h1        1 ONE      0.065700
     26 HO2         3.7780    0.8820    0.5000 ho        1 ONE      0.435000
     27 HO3         2.7760   -0.3530   -2.0980 ho        1 ONE      0.518000
     28 H1'         1.5500    1.8380    2.1000 h2        1 ONE      0.062700
     29 H6          1.4300    0.8520    4.1560 h4        1 ONE      0.174000
     30 H2         -1.2350   -0.2580    1.0810 h4        1 ONE      0.174000
     31 H3         -2.8510   -1.2430    2.7550 ha        1 ONE      0.144000
     32 H5         -0.0870   -0.0780    5.9260 ha        1 ONE      0.144000
@<TRIPOS>BOND
     1    1    2 1   
     2    2    3 1   
     3    2    4 1   
     4    2    5 1   
     5    5    6 1   
     6    6    7 1   
     7    6   21 1   
     8    6   22 1   
     9    7    8 1   
    10    7    9 1   
    11    7   23 1   
    12    8   13 1   
    13    9   10 1   
    14    9   12 1   
    15    9   24 1   
    16   10   11 1   
    17   10   13 1   
    18   10   25 1   
    19   11   26 1   
    20   12   27 1   
    21   13   14 1   
    22   13   28 1   
    23   14   15 1   
    24   14   16 1   
    25   15   20 2   
    26   15   29 1   
    27   16   17 2   
    28   16   30 1   
    29   17   18 1   
    30   17   31 1   
    31   18   19 2   
    32   18   20 1   
    33   20   32 1   
@<TRIPOS>SUBSTRUCTURE
     1 ONE         1 TEMP              0 ****  ****    0 ROOT
