@<TRIPOS>MOLECULE
ONH
   21    20     1     0     0
SMALL
bcc


@<TRIPOS>ATOM
      1 C          -2.5020   -0.3700    0.2080 c         1 ONH      0.887600
      2 N          -1.3870    1.7990   -0.5080 n3        1 ONH     -0.891800
      3 O          -3.5020    0.3380    0.5210 o         1 ONH     -0.844300
      4 CA         -1.2560    0.3500   -0.4100 c3        1 ONH      0.018500
      5 CB         -0.0170   -0.0930    0.3690 c3        1 ONH     -0.061400
      6 CD          2.4720   -0.2310    0.4560 c3        1 ONH      0.104800
      7 NE          3.8030    0.1060   -0.0680 n3        1 ONH     -0.579700
      8 CG          1.2710    0.2830   -0.3300 c3        1 ONH     -0.101400
      9 OZ          4.1180   -0.6390   -1.1440 oh        1 ONH     -0.436300
     10 OXT        -2.4440   -1.6230    0.3420 o         1 ONH     -0.844300
     11 HN         -2.3200    1.9890   -0.8380 hn        1 ONH      0.329800
     12 HNA        -1.3360    2.1860    0.4180 hn        1 ONH      0.329800
     13 HA         -1.1620   -0.0330   -1.4680 h1        1 ONH      0.041700
     14 HB         -0.0310    0.3500    1.3980 hc        1 ONH      0.046700
     15 HBA        -0.0820   -1.2090    0.4820 hc        1 ONH      0.046700
     16 HD          2.4010   -1.3510    0.5420 h1        1 ONH      0.053200
     17 HDA         2.4500    0.2030    1.4950 h1        1 ONH      0.053200
     18 HG          1.2840   -0.1550   -1.3620 hc        1 ONH      0.043200
     19 HGA         1.3350    1.3970   -0.4390 hc        1 ONH      0.043200
     20 HOZ         4.6340   -1.3840   -0.7860 ho        1 ONH      0.406000
     21 HNE         3.7670    1.0670   -0.4090 hn        1 ONH      0.355800
@<TRIPOS>BOND
     1    1    3 1   
     2    1    4 1   
     3    1   10 1   
     4    2    4 1   
     5    2   11 1   
     6    2   12 1   
     7    4    5 1   
     8    4   13 1   
     9    5    8 1   
    10    5   14 1   
    11    5   15 1   
    12    6    7 1   
    13    6    8 1   
    14    6   16 1   
    15    6   17 1   
    16    7    9 1   
    17    7   21 1   
    18    8   18 1   
    19    8   19 1   
    20    9   20 1   
@<TRIPOS>SUBSTRUCTURE
     1 ONH         1 TEMP              0 ****  ****    0 ROOT
