@<TRIPOS>MOLECULE
ONL
   20    19     1     0     0
SMALL
bcc


@<TRIPOS>ATOM
      1 N           1.4440    1.5020   -0.8280 n3        1 ONL     -0.892800
      2 CA          0.8960    0.8150    0.3350 c3        1 ONL      0.017500
      3 C           1.8560   -0.2430    0.9770 c         1 ONL      0.888600
      4 O           3.0250   -0.3460    0.5070 o         1 ONL     -0.842300
      5 OXT         1.4110   -0.9190    1.9460 o         1 ONL     -0.842300
      6 CB         -0.4450    0.1330    0.0610 c3        1 ONL     -0.063400
      7 CG         -1.5490    1.1330   -0.2060 c3        1 ONL     -0.178400
      8 CD         -2.8940    0.4940   -0.3840 c         1 ONL      0.569100
      9 OD         -3.6990    0.8850   -1.2420 o         1 ONL     -0.579100
     10 CE         -3.2370   -0.6300    0.5420 c3        1 ONL     -0.204100
     11 HN1         2.4070    1.7140   -0.6200 hn        1 ONL      0.332300
     12 HN2         1.4580    0.8600   -1.6010 hn        1 ONL      0.332300
     13 HA          0.7330    1.6070    1.1230 h1        1 ONL      0.040700
     14 HB1        -0.3530   -0.5700   -0.8070 hc        1 ONL      0.051200
     15 HB2        -0.6850   -0.4810    0.9720 hc        1 ONL      0.051200
     16 HG1        -1.6260    1.8450    0.6610 hc        1 ONL      0.067700
     17 HG2        -1.3030    1.7440   -1.1150 hc        1 ONL      0.067700
     18 HE1        -2.9910   -0.3480    1.5940 hc        1 ONL      0.060367
     19 HE2        -4.3200   -0.8910    0.4720 hc        1 ONL      0.060367
     20 HE3        -2.6280   -1.5280    0.2690 hc        1 ONL      0.060367
@<TRIPOS>BOND
     1    1    2 1   
     2    1   11 1   
     3    1   12 1   
     4    2    3 1   
     5    2    6 1   
     6    2   13 1   
     7    3    4 1   
     8    3    5 1   
     9    6    7 1   
    10    6   14 1   
    11    6   15 1   
    12    7    8 1   
    13    7   16 1   
    14    7   17 1   
    15    8    9 2   
    16    8   10 1   
    17   10   18 1   
    18   10   19 1   
    19   10   20 1   
@<TRIPOS>SUBSTRUCTURE
     1 ONL         1 TEMP              0 ****  ****    0 ROOT
