@<TRIPOS>MOLECULE
ONO
   73    75     1     0     0
SMALL
bcc


@<TRIPOS>ATOM
      1 O32         0.7680   -0.5940    1.8250 o         1 ONO     -0.407100
      2 C30         1.7910   -1.0670    1.3520 c         1 ONO      0.575700
      3 N31         2.3840   -2.2540    2.0860 n4        1 ONO     -0.669800
      4 C34         2.4580   -2.0720    3.5780 c3        1 ONO     -0.014500
      5 C66         3.7090   -1.2920    3.9900 c         1 ONO      0.576900
      6 O67         4.6120   -1.0520    3.1920 o         1 ONO     -0.515100
      7 C35         2.4110   -3.4360    4.3270 c3        1 ONO     -0.056000
      8 C62         3.5620   -4.3260    3.8870 c3        1 ONO     -0.115767
      9 C37         2.5230   -3.1540    5.8220 c3        1 ONO     -0.115767
     10 C36         1.0810   -4.1260    4.0580 c3        1 ONO     -0.115767
     11 C24         2.4860   -0.6600    0.1250 ca        1 ONO     -0.211600
     12 C23         3.8840   -0.5440    0.0550 ca        1 ONO     -0.057000
     13 C22         4.4830   -0.1480   -1.1340 ca        1 ONO     -0.126000
     14 C25         1.7010   -0.3290   -0.9870 ca        1 ONO      0.003000
     15 C26         2.3130    0.0770   -2.1790 ca        1 ONO     -0.161600
     16 C27         1.4230    0.4000   -3.3070 c         1 ONO      0.749200
     17 O29         0.4660   -0.2370   -3.7210 o         1 ONO     -0.489500
     18 O28         1.5320    1.6470   -3.9130 os        1 ONO     -0.456200
     19 C21         3.7140    0.1410   -2.2790 cp        1 ONO      0.086000
     20 C20         4.3880    0.4260   -3.5370 cp        1 ONO     -0.207300
     21 C19         5.5610   -0.3040   -3.8560 ca        1 ONO     -0.046000
     22 C18         6.2100   -0.0920   -5.0540 ca        1 ONO     -0.212300
     23 C17         5.6610    0.8840   -5.9440 ca        1 ONO      0.671600
     24 O44         6.3520    1.0320   -7.1140 os        1 ONO     -0.413100
     25 C58         5.8560    1.9540   -8.0900 c3        1 ONO      0.119700
     26 N16         4.5520    1.6120   -5.6630 nb        1 ONO     -0.711000
     27 C15         3.9380    1.3730   -4.4780 ca        1 ONO      0.416800
     28 C13         2.7380    2.2230   -4.2310 c         1 ONO      0.682100
     29 O14         2.6370    3.4400   -4.3770 o         1 ONO     -0.595500
     30 N7          1.4270    5.6680   -5.6840 nh        1 ONO     -0.755200
     31 C1          1.0010    6.7310   -6.3780 ca        1 ONO      0.302600
     32 C6          1.9070    7.7760   -6.7890 ca        1 ONO     -0.212500
     33 C5          1.4610    8.8580   -7.4970 ca        1 ONO     -0.018000
     34 C4          0.0940    8.9910   -7.8510 ca        1 ONO     -0.419300
     35 C8         -0.3380   10.1680   -8.6110 c3        1 ONO      0.461000
     36 N10        -0.9090    9.7420   -9.9680 n4        1 ONO     -0.885600
     37 N9         -1.3450   10.9860   -7.7940 n4        1 ONO     -0.885600
     38 C3         -0.8100    7.9750   -7.4550 ca        1 ONO     -0.018000
     39 C2         -0.3890    6.8840   -6.7460 ca        1 ONO     -0.212500
     40 H31         1.7950   -3.0760    1.8900 hn        1 ONO      0.470800
     41 H34         1.5470   -1.4700    3.8890 hx        1 ONO      0.143700
     42 H66         3.7130   -0.9690    5.0530 h4        1 ONO      0.084200
     43 H621        4.5320   -3.7720    3.9300 hc        1 ONO      0.062700
     44 H622        3.4080   -4.7150    2.8520 hc        1 ONO      0.062700
     45 H623        3.6340   -5.2080    4.5730 hc        1 ONO      0.062700
     46 H371        1.8130   -2.3500    6.1310 hc        1 ONO      0.062700
     47 H372        3.5640   -2.8590    6.0980 hc        1 ONO      0.062700
     48 H373        2.2710   -4.0820    6.3950 hc        1 ONO      0.062700
     49 H361        1.0220   -4.5390    3.0220 hc        1 ONO      0.062700
     50 H362        0.9630   -4.9900    4.7600 hc        1 ONO      0.062700
     51 H363        0.2270   -3.4260    4.2260 hc        1 ONO      0.062700
     52 H23         4.5210   -0.7300    0.9400 ha        1 ONO      0.178000
     53 H22         5.5820   -0.0500   -1.1780 ha        1 ONO      0.178000
     54 H25         0.5990   -0.3910   -0.9340 ha        1 ONO      0.183000
     55 H19         5.9450   -1.0590   -3.1500 ha        1 ONO      0.163000
     56 H18         7.1170   -0.6420   -5.3470 ha        1 ONO      0.195000
     57 H581        5.8610    2.9920   -7.6810 h1        1 ONO      0.063033
     58 H582        4.8330    1.6590   -8.4230 h1        1 ONO      0.063033
     59 H583        6.5990    1.8460   -8.9230 h1        1 ONO      0.063033
     60 HN7         0.8050    4.9420   -5.4000 hn        1 ONO      0.481800
     61 H6          2.9760    7.6960   -6.5250 ha        1 ONO      0.180000
     62 H5          2.1820    9.6400   -7.7960 ha        1 ONO      0.135000
     63 H8          0.5240   10.8800   -8.8450 hx        1 ONO      0.160700
     64 H101       -0.1330    9.2690  -10.4630 hn        1 ONO      0.481133
     65 H102       -1.2350   10.5280  -10.5400 hn        1 ONO      0.481133
     66 HN91       -1.6880   11.8190   -8.2820 hn        1 ONO      0.481133
     67 HN92       -2.1400   10.4070   -7.4930 hn        1 ONO      0.481133
     68 H3         -1.8790    8.0540   -7.7160 ha        1 ONO      0.135000
     69 H2         -1.1120    6.1050   -6.4490 ha        1 ONO      0.180000
     70 H312        3.3340   -2.4390    1.7340 hn        1 ONO      0.470800
     71 H72         2.3890    5.5560   -5.4330 hn        1 ONO      0.481800
     72 H103       -1.6650    9.0550   -9.8570 hn        1 ONO      0.481133
     73 H93        -0.8400   11.2830   -6.9420 hn        1 ONO      0.481133
@<TRIPOS>BOND
     1    1    2 2   
     2    2    3 1   
     3    2   11 1   
     4    3    4 1   
     5    3   40 1   
     6    3   70 1   
     7    4    5 1   
     8    4    7 1   
     9    4   41 1   
    10    5    6 2   
    11    5   42 1   
    12    7    8 1   
    13    7    9 1   
    14    7   10 1   
    15    8   43 1   
    16    8   44 1   
    17    8   45 1   
    18    9   46 1   
    19    9   47 1   
    20    9   48 1   
    21   10   49 1   
    22   10   50 1   
    23   10   51 1   
    24   11   12 ar  
    25   11   14 ar  
    26   12   13 ar  
    27   12   52 1   
    28   13   19 ar  
    29   13   53 1   
    30   14   15 ar  
    31   14   54 1   
    32   15   16 1   
    33   15   19 ar  
    34   16   17 2   
    35   16   18 1   
    36   18   28 1   
    37   19   20 1   
    38   20   21 ar  
    39   20   27 ar  
    40   21   22 ar  
    41   21   55 1   
    42   22   23 ar  
    43   22   56 1   
    44   23   24 1   
    45   23   26 ar  
    46   24   25 1   
    47   25   57 1   
    48   25   58 1   
    49   25   59 1   
    50   26   27 ar  
    51   27   28 1   
    52   28   29 2   
    53   30   31 1   
    54   30   60 1   
    55   30   71 1   
    56   31   32 ar  
    57   31   39 ar  
    58   32   33 ar  
    59   32   61 1   
    60   33   34 ar  
    61   33   62 1   
    62   34   35 1   
    63   34   38 ar  
    64   35   36 1   
    65   35   37 1   
    66   35   63 1   
    67   36   64 1   
    68   36   65 1   
    69   36   72 1   
    70   37   66 1   
    71   37   67 1   
    72   37   73 1   
    73   38   39 ar  
    74   38   68 1   
    75   39   69 1   
@<TRIPOS>SUBSTRUCTURE
     1 ONO         1 TEMP              0 ****  ****    0 ROOT
