@<TRIPOS>MOLECULE
ONO
   69    62     1     0     0
SMALL
bcc


@<TRIPOS>ATOM
      1 O32        -1.5740   -0.4690    3.0710 o         1 ONO     -0.355000
      2 C30        -0.8790   -1.3780    2.7970 c1        1 ONO      0.353000
      3 N31        -0.6580   -2.4060    3.7370 n2        1 ONO     -0.379000
      4 C34        -1.4800   -2.5160    4.8600 c3        1 ONO     -0.040000
      5 C66        -0.7420   -2.0540    6.0500 c2        1 ONO      0.188000
      6 O67        -1.1550   -1.1290    6.6890 o         1 ONO     -0.298000
      7 C35        -1.8960   -4.0020    5.0510 c3        1 ONO     -0.066000
      8 C62        -0.6360   -4.8830    5.1780 c3        1 ONO     -0.211000
      9 C37        -2.7270   -4.1340    6.2960 c3        1 ONO     -0.211000
     10 C36        -2.7170   -4.4590    3.8470 c3        1 ONO     -0.211000
     11 C24        -0.1050   -1.3860    1.4470 c2        1 ONO     -0.133000
     12 C23         1.2830   -1.0820    1.4230 c2        1 ONO     -0.134000
     13 C22         1.9650   -1.0090    0.2040 c1        1 ONO     -0.125000
     14 C25        -0.7750   -1.6080    0.2820 c1        1 ONO     -0.067000
     15 C26        -0.0850   -1.5340   -0.9600 c1        1 ONO     -0.080000
     16 C27        -0.8370   -1.7980   -2.2720 c2        1 ONO      0.365000
     17 O29        -1.6100   -0.9530   -2.7150 o         1 ONO     -0.548500
     18 O28        -0.6030   -2.8520   -2.9380 o         1 ONO     -0.548500
     19 C21         1.2880   -1.2340   -0.9820 c1        1 ONO     -0.033000
     20 C20         1.9970   -1.2180   -2.2150 c1        1 ONO     -0.070000
     21 C19         2.7170   -2.3190   -2.6060 c1        1 ONO     -0.115500
     22 C18         3.4150   -2.2940   -3.7820 c1        1 ONO     -0.115500
     23 C17         3.3920   -1.1240   -4.6000 c1        1 ONO      0.115000
     24 O44         4.1380   -1.0820   -5.7780 os        1 ONO     -0.215000
     25 C58         5.5270   -0.9850   -5.5720 c3        1 ONO     -0.062000
     26 N16         2.6700   -0.0220   -4.2060 n1        1 ONO     -0.176000
     27 C15         1.9790   -0.0420   -3.0440 c1        1 ONO     -0.004000
     28 C13         1.2240    1.2050   -2.5880 c2        1 ONO      0.369000
     29 O14         0.6730    1.2040   -1.5870 o         1 ONO     -0.367000
     30 N7          1.1040    2.2960   -3.4440 n         1 ONO     -0.308000
     31 C1          0.2580    3.4570   -3.0540 c2        1 ONO      0.097000
     32 C6         -1.0630    3.4960   -3.4200 c2        1 ONO     -0.162000
     33 C5         -1.8520    4.5740   -3.0510 c1        1 ONO     -0.093000
     34 C4         -1.3020    5.6160   -2.3080 c1        1 ONO     -0.159000
     35 C8         -2.1420    6.7760   -1.9180 c3        1 ONO      0.074000
     36 N10        -2.4470    6.6950   -0.4700 n3        1 ONO     -0.352500
     37 N9         -1.4170    8.0230   -2.1960 n3        1 ONO     -0.352500
     38 C3          0.0030    5.5750   -1.9480 c1        1 ONO     -0.114000
     39 C2          0.7990    4.4870   -2.3210 c1        1 ONO     -0.172000
     40 H31         0.0850   -2.9320    3.6660 hn        1 ONO      0.218000
     41 H34        -2.2450   -1.9910    4.7430 h1        1 ONO      0.156000
     42 H66         0.0370   -2.5100    6.3290 h4        1 ONO      0.088000
     43 H621       -0.2350   -5.0490    4.2440 hc        1 ONO      0.079556
     44 H622       -0.8670   -5.6960    5.5650 hc        1 ONO      0.079556
     45 H623        0.0100   -4.4400    5.7300 hc        1 ONO      0.079556
     46 H371       -3.4220   -3.4160    6.3100 hc        1 ONO      0.079556
     47 H372       -3.1790   -5.0400    6.3050 hc        1 ONO      0.079556
     48 H373       -2.1180   -4.0430    7.1350 hc        1 ONO      0.079556
     49 H361       -3.4320   -3.8380    3.6940 hc        1 ONO      0.079556
     50 H362       -2.1790   -4.4940    3.1050 hc        1 ONO      0.079556
     51 H363       -3.0950   -5.3630    4.0260 hc        1 ONO      0.079556
     52 H23         1.7490   -0.9280    2.2360 ha        1 ONO      0.123000
     53 H22         2.9220   -0.7980    0.1900 ha        1 ONO      0.131000
     54 H25        -1.6930   -1.7570    0.2960 ha        1 ONO      0.157000
     55 H19         2.7320   -3.1440   -2.0270 ha        1 ONO      0.155500
     56 H18         3.9630   -3.1310   -4.0820 ha        1 ONO      0.155500
     57 H581        6.0100   -0.9770   -6.4830 h1        1 ONO      0.084333
     58 H582        5.7300   -0.1550   -5.0870 h1        1 ONO      0.084333
     59 H583        5.8230   -1.7260   -5.0650 h1        1 ONO      0.084333
     60 HN7         1.5500    2.3100   -4.2100 hn        1 ONO      0.304000
     61 H6         -1.4310    2.7940   -3.9190 ha        1 ONO      0.184000
     62 H5         -2.7910    4.6020   -3.3110 ha        1 ONO      0.128000
     63 H8         -2.9840    6.7620   -2.4340 h2        1 ONO      0.106000
     64 H101       -2.5430    7.5170   -0.1390 hn        1 ONO      0.141750
     65 H102       -3.2050    6.2350   -0.3480 hn        1 ONO      0.141750
     66 HN91       -2.0180    8.6670   -2.5410 hn        1 ONO      0.141750
     67 HN92       -1.0290    8.3510   -1.3900 hn        1 ONO      0.141750
     68 H3          0.3870    6.3010   -1.4300 ha        1 ONO      0.113000
     69 H2          1.7350    4.4580   -2.0630 ha        1 ONO      0.163000
@<TRIPOS>BOND
     1    1    2 1   
     2    2   11 1   
     3    3    4 1   
     4    3   40 1   
     5    4    5 1   
     6    4    7 1   
     7    4   41 1   
     8    5    6 1   
     9    5   42 1   
    10    7    8 1   
    11    7    9 1   
    12    7   10 1   
    13    8   43 1   
    14    8   44 1   
    15    8   45 1   
    16    9   46 1   
    17    9   47 1   
    18    9   48 1   
    19   10   49 1   
    20   10   50 1   
    21   10   51 1   
    22   11   12 1   
    23   11   14 1   
    24   12   13 1   
    25   12   52 1   
    26   13   53 1   
    27   14   54 1   
    28   15   16 1   
    29   15   19 1   
    30   16   17 1   
    31   16   18 1   
    32   20   27 1   
    33   21   22 1   
    34   21   55 1   
    35   22   56 1   
    36   23   24 1   
    37   23   26 1   
    38   24   25 1   
    39   25   57 1   
    40   25   58 1   
    41   25   59 1   
    42   27   28 1   
    43   28   29 1   
    44   28   30 1   
    45   30   31 1   
    46   30   60 1   
    47   31   32 1   
    48   31   39 1   
    49   32   33 1   
    50   32   61 1   
    51   33   62 1   
    52   34   35 1   
    53   34   38 1   
    54   35   36 1   
    55   35   37 1   
    56   35   63 1   
    57   36   64 1   
    58   36   65 1   
    59   37   66 1   
    60   37   67 1   
    61   38   68 1   
    62   39   69 1   
@<TRIPOS>SUBSTRUCTURE
     1 ONO         1 TEMP              0 ****  ****    0 ROOT
