@<TRIPOS>MOLECULE
ONO
   72    74     1     0     0
SMALL
bcc


@<TRIPOS>ATOM
      1 O32         0.1480    0.1750    0.6480 o         1 ONO     -0.414100
      2 C30         1.2990   -0.1370    0.3770 c         1 ONO      0.579700
      3 N31         2.0320   -0.9560    1.4260 ny        1 ONO     -0.672800
      4 C34         1.8690   -0.4370    2.8280 c3        1 ONO     -0.014500
      5 C66         2.8770    0.6720    3.1400 c         1 ONO      0.573900
      6 O67         3.8360    0.8990    2.4060 o         1 ONO     -0.508100
      7 C35         1.9890   -1.5750    3.8830 c3        1 ONO     -0.057000
      8 C62         3.3320   -2.2760    3.7610 c3        1 ONO     -0.114433
      9 C37         1.8630   -0.9470    5.2670 c3        1 ONO     -0.114433
     10 C36         0.8560   -2.5740    3.6940 c3        1 ONO     -0.114433
     11 C24         2.0480    0.1270   -0.8540 ca        1 ONO     -0.216600
     12 C23         3.3900    0.5400   -0.8420 ca        1 ONO     -0.067000
     13 C22         4.0450    0.7790   -2.0430 ca        1 ONO     -0.110000
     14 C25         1.3620    0.0030   -2.0700 ca        1 ONO     -0.006000
     15 C26         2.0270    0.2540   -3.2760 ca        1 ONO     -0.119600
     16 C27         1.2580    0.1190   -4.5300 c         1 ONO      0.662700
     17 O29         0.4030   -0.9390   -4.5340 oh        1 ONO     -0.593100
     18 O28         1.2690    0.8420   -5.5310 o         1 ONO     -0.547000
     19 C21         3.3840    0.6220   -3.2760 cp        1 ONO      0.099000
     20 C20         4.1560    0.7780   -4.5080 cp        1 ONO     -0.222300
     21 C19         4.9330   -0.3150   -4.9570 ca        1 ONO     -0.050000
     22 C18         5.6910   -0.2000   -6.1050 ca        1 ONO     -0.229300
     23 C17         5.6560    1.0450   -6.8040 ca        1 ONO      0.666600
     24 O44         6.4310    1.0840   -7.9320 os        1 ONO     -0.422100
     25 C58         6.4870    2.3060   -8.6760 c3        1 ONO      0.119700
     26 N16         4.9180    2.1090   -6.4010 nb        1 ONO     -0.721000
     27 C15         4.1950    1.9630   -5.2650 ca        1 ONO      0.440800
     28 C13         3.4390    3.2020   -4.8240 c         1 ONO      0.591600
     29 O14         3.7560    3.8180   -3.7970 o         1 ONO     -0.557100
     30 N7          2.3950    3.5720   -5.6680 ns        1 ONO     -0.449100
     31 C1          1.7360    4.7970   -5.6940 ca        1 ONO      0.137600
     32 C6          2.0680    5.8790   -4.8420 ca        1 ONO     -0.175000
     33 C5          1.4040    7.0930   -4.9540 ca        1 ONO     -0.067000
     34 C4          0.3910    7.2710   -5.9020 ca        1 ONO     -0.255300
     35 C8         -0.3190    8.5940   -5.9810 c3        1 ONO      0.509000
     36 N10         0.1940    9.2870   -7.3020 nz        1 ONO     -0.892600
     37 N9         -1.7330    8.5470   -5.9980 n8        1 ONO     -0.987800
     38 C3          0.0390    6.2050   -6.7400 ca        1 ONO     -0.067000
     39 C2          0.6930    4.9880   -6.6450 ca        1 ONO     -0.175000
     40 H31         3.0380   -0.9800    1.2030 hn        1 ONO      0.469800
     41 H34         0.8250    0.0020    2.9040 hx        1 ONO      0.141700
     42 H66         2.6550    1.2360    4.0710 h4        1 ONO      0.079200
     43 H621        4.1660   -1.5340    3.7280 hc        1 ONO      0.061478
     44 H622        3.3780   -2.9190    2.8490 hc        1 ONO      0.061478
     45 H623        3.4890   -2.9380    4.6500 hc        1 ONO      0.061478
     46 H371        1.7270   -1.7540    6.0300 hc        1 ONO      0.061478
     47 H372        0.9800   -0.2670    5.3170 hc        1 ONO      0.061478
     48 H373        2.7870   -0.3790    5.5350 hc        1 ONO      0.061478
     49 H361        0.9960   -3.2030    2.7820 hc        1 ONO      0.061478
     50 H362       -0.1290   -2.0510    3.6340 hc        1 ONO      0.061478
     51 H363        0.8260   -3.2710    4.5690 hc        1 ONO      0.061478
     52 H23         3.9310    0.7120    0.1060 ha        1 ONO      0.171000
     53 H22         5.0990    1.1090   -2.0370 ha        1 ONO      0.184000
     54 H25         0.3000   -0.3010   -2.0870 ha        1 ONO      0.180000
     55 H19         4.9300   -1.2590   -4.3880 ha        1 ONO      0.155000
     56 H18         6.3120   -1.0210   -6.4920 ha        1 ONO      0.186000
     57 H581        5.4780    2.5670   -9.0740 h1        1 ONO      0.063033
     58 H582        6.8930    3.1310   -8.0440 h1        1 ONO      0.063033
     59 H583        7.1940    2.0500   -9.5080 h1        1 ONO      0.063033
     60 HN7         2.1030    2.8910   -6.3440 hn        1 ONO      0.357500
     61 H6          2.8620    5.7710   -4.0820 ha        1 ONO      0.176000
     62 H5          1.6830    7.9160   -4.2760 ha        1 ONO      0.142500
     63 H8          0.0570    9.3020   -5.1730 hx        1 ONO      0.101700
     64 H101       -0.0300    8.7050   -8.1100 hn        1 ONO      0.447467
     65 H102        1.2060    9.3880   -7.2350 hn        1 ONO      0.447467
     66 HN91       -0.0660   -0.9820   -5.3870 ho        1 ONO      0.469000
     67 HN92       -2.1480    7.6530   -6.1310 hn        1 ONO      0.437300
     68 H3         -0.7660    6.3190   -7.4850 ha        1 ONO      0.142500
     69 H2          0.3970    4.1650   -7.3170 ha        1 ONO      0.176000
     70 H312        1.6660   -1.9170    1.3910 hn        1 ONO      0.469800
     71 H103       -0.2410   10.2020   -7.4240 hn        1 ONO      0.447467
     72 H93        -2.2010    9.1440   -5.3570 hn        1 ONO      0.437300
@<TRIPOS>BOND
     1    1    2 2   
     2    2    3 1   
     3    2   11 1   
     4    3    4 1   
     5    3   40 1   
     6    3   70 1   
     7    4    5 1   
     8    4    7 1   
     9    4   41 1   
    10    5    6 2   
    11    5   42 1   
    12    7    8 1   
    13    7    9 1   
    14    7   10 1   
    15    8   43 1   
    16    8   44 1   
    17    8   45 1   
    18    9   46 1   
    19    9   47 1   
    20    9   48 1   
    21   10   49 1   
    22   10   50 1   
    23   10   51 1   
    24   11   12 ar  
    25   11   14 ar  
    26   12   13 ar  
    27   12   52 1   
    28   13   19 ar  
    29   13   53 1   
    30   14   15 ar  
    31   14   54 1   
    32   15   16 1   
    33   15   19 ar  
    34   16   17 1   
    35   16   18 2   
    36   17   66 1   
    37   19   20 1   
    38   20   21 ar  
    39   20   27 ar  
    40   21   22 ar  
    41   21   55 1   
    42   22   23 ar  
    43   22   56 1   
    44   23   24 1   
    45   23   26 ar  
    46   24   25 1   
    47   25   57 1   
    48   25   58 1   
    49   25   59 1   
    50   26   27 ar  
    51   27   28 1   
    52   28   29 2   
    53   28   30 1   
    54   30   31 1   
    55   30   60 1   
    56   31   32 ar  
    57   31   39 ar  
    58   32   33 ar  
    59   32   61 1   
    60   33   34 ar  
    61   33   62 1   
    62   34   35 1   
    63   34   38 ar  
    64   35   36 1   
    65   35   37 1   
    66   35   63 1   
    67   36   64 1   
    68   36   65 1   
    69   36   71 1   
    70   37   67 1   
    71   37   72 1   
    72   38   39 ar  
    73   38   68 1   
    74   39   69 1   
@<TRIPOS>SUBSTRUCTURE
     1 ONO         1 TEMP              0 ****  ****    0 ROOT
