@<TRIPOS>MOLECULE
ONO
   69    71     1     0     0
SMALL
bcc


@<TRIPOS>ATOM
      1 O32        -3.9200   -0.5370   -2.2350 o         1 ONO     -0.615100
      2 C30        -3.3180   -0.3930   -1.1510 c         1 ONO      0.684700
      3 N31        -3.8360    0.4340   -0.1630 n         1 ONO     -0.570900
      4 C34        -5.0330    1.2040   -0.3510 c3        1 ONO     -0.000300
      5 C66        -4.7760    2.7100   -0.3290 c         1 ONO      0.553900
      6 O67        -3.9630    3.2630    0.4100 o         1 ONO     -0.525100
      7 C35        -6.1520    0.8890    0.6900 c3        1 ONO     -0.059000
      8 C62        -5.6270    1.0180    2.1100 c3        1 ONO     -0.091767
      9 C37        -7.2960    1.8730    0.4810 c3        1 ONO     -0.091767
     10 C36        -6.6670   -0.5220    0.4580 c3        1 ONO     -0.091767
     11 C24        -2.0380   -1.0820   -0.8330 ca        1 ONO     -0.148600
     12 C23        -1.8480   -1.7040    0.4080 ca        1 ONO     -0.133000
     13 C22        -0.6450   -2.3460    0.6770 ca        1 ONO     -0.124000
     14 C25        -1.0240   -1.1080   -1.7910 ca        1 ONO     -0.065000
     15 C26         0.1990   -1.7340   -1.5160 ca        1 ONO     -0.100600
     16 C27         1.2940   -1.6800   -2.5750 c         1 ONO      0.915200
     17 O29         1.3090   -2.5650   -3.4650 o         1 ONO     -0.814800
     18 O28         2.1220   -0.7220   -2.4940 o         1 ONO     -0.814800
     19 C21         0.3850   -2.3610   -0.2770 cp        1 ONO     -0.034000
     20 C20         1.6270   -3.0690    0.0440 cp        1 ONO     -0.135300
     21 C19         1.8390   -4.3700   -0.4480 ca        1 ONO     -0.040000
     22 C18         2.9960   -5.0570   -0.1090 ca        1 ONO     -0.252300
     23 C17         3.9340   -4.3940    0.7260 ca        1 ONO      0.612600
     24 O44         5.0540   -5.1460    1.0410 os        1 ONO     -0.457100
     25 C58         6.0780   -4.5060    1.7990 c3        1 ONO      0.127700
     26 N16         3.7790   -3.1320    1.1930 nb        1 ONO     -0.702000
     27 C15         2.6370   -2.4940    0.8450 ca        1 ONO      0.410800
     28 C13         2.4790   -1.0720    1.3500 c         1 ONO      0.584600
     29 O14         2.3160   -0.8400    2.5620 o         1 ONO     -0.606100
     30 N7          2.5540   -0.1210    0.3540 n         1 ONO     -0.454100
     31 C1          2.3440    1.2560    0.5000 ca        1 ONO      0.088600
     32 C6          2.3300    1.9170    1.7460 ca        1 ONO     -0.168000
     33 C5          2.1300    3.2940    1.8060 ca        1 ONO     -0.104500
     34 C4          1.9400    4.0410    0.6470 ca        1 ONO     -0.167300
     35 C8          1.6820    5.5370    0.7320 c3        1 ONO      0.438000
     36 N10         2.8020    6.2850    0.1570 n3        1 ONO     -0.921300
     37 N9          0.3560    5.9030    0.2010 n3        1 ONO     -0.921300
     38 C3          1.9670    3.3960   -0.5950 ca        1 ONO     -0.104500
     39 C2          2.1610    2.0260   -0.6800 ca        1 ONO     -0.168000
     40 H31        -3.2920    0.6330    0.6440 hn        1 ONO      0.325500
     41 H34        -5.4510    0.9480   -1.3750 h1        1 ONO      0.100700
     42 H66        -5.4020    3.2870   -1.0460 h4        1 ONO     -0.005800
     43 H621       -5.0540    1.9700    2.2280 hc        1 ONO      0.039033
     44 H622       -6.4770    1.0170    2.8340 hc        1 ONO      0.039033
     45 H623       -4.9530    0.1630    2.3620 hc        1 ONO      0.039033
     46 H371       -7.6010    1.8960   -0.5920 hc        1 ONO      0.039033
     47 H372       -8.1770    1.5660    1.0940 hc        1 ONO      0.039033
     48 H373       -6.9950    2.9020    0.7940 hc        1 ONO      0.039033
     49 H361       -5.8480   -1.2690    0.5880 hc        1 ONO      0.039033
     50 H362       -7.4780   -0.7560    1.1900 hc        1 ONO      0.039033
     51 H363       -7.0770   -0.6220   -0.5760 hc        1 ONO      0.039033
     52 H23        -2.6450   -1.6990    1.1650 ha        1 ONO      0.121000
     53 H22        -0.4940   -2.8380    1.6500 ha        1 ONO      0.131000
     54 H25        -1.1800   -0.6380   -2.7750 ha        1 ONO      0.157000
     55 H19         1.0950   -4.8220   -1.1240 ha        1 ONO      0.162000
     56 H18         3.2080   -6.0670   -0.4760 ha        1 ONO      0.152000
     57 H581        6.8620   -5.3000    1.8860 h1        1 ONO      0.044700
     58 H582        6.4740   -3.6150    1.2550 h1        1 ONO      0.044700
     59 H583        5.6980   -4.2110    2.8060 h1        1 ONO      0.044700
     60 HN7         2.5760   -0.4530   -0.6080 hn        1 ONO      0.389500
     61 H6          2.4700    1.3480    2.6800 ha        1 ONO      0.175500
     62 H5          2.1250    3.7910    2.7880 ha        1 ONO      0.120500
     63 H8          1.6640    5.8360    1.8310 h2        1 ONO      0.062700
     64 H101        3.0540    5.9140   -0.7390 hn        1 ONO      0.348300
     65 H102        2.5620    7.2530    0.0500 hn        1 ONO      0.348300
     66 HN91        0.2210    5.5210   -0.7150 hn        1 ONO      0.348300
     67 HN92       -0.3540    5.5360    0.8030 hn        1 ONO      0.348300
     68 H3          1.8300    3.9760   -1.5200 ha        1 ONO      0.120500
     69 H2          2.1670    1.5210   -1.6660 ha        1 ONO      0.175500
@<TRIPOS>BOND
     1    1    2 2   
     2    2    3 1   
     3    2   11 1   
     4    3    4 1   
     5    3   40 1   
     6    4    5 1   
     7    4    7 1   
     8    4   41 1   
     9    5    6 2   
    10    5   42 1   
    11    7    8 1   
    12    7    9 1   
    13    7   10 1   
    14    8   43 1   
    15    8   44 1   
    16    8   45 1   
    17    9   46 1   
    18    9   47 1   
    19    9   48 1   
    20   10   49 1   
    21   10   50 1   
    22   10   51 1   
    23   11   12 ar  
    24   11   14 ar  
    25   12   13 ar  
    26   12   52 1   
    27   13   19 ar  
    28   13   53 1   
    29   14   15 ar  
    30   14   54 1   
    31   15   16 1   
    32   15   19 ar  
    33   16   17 1   
    34   16   18 1   
    35   19   20 1   
    36   20   21 ar  
    37   20   27 ar  
    38   21   22 ar  
    39   21   55 1   
    40   22   23 ar  
    41   22   56 1   
    42   23   24 1   
    43   23   26 ar  
    44   24   25 1   
    45   25   57 1   
    46   25   58 1   
    47   25   59 1   
    48   26   27 ar  
    49   27   28 1   
    50   28   29 2   
    51   28   30 1   
    52   30   31 1   
    53   30   60 1   
    54   31   32 ar  
    55   31   39 ar  
    56   32   33 ar  
    57   32   61 1   
    58   33   34 ar  
    59   33   62 1   
    60   34   35 1   
    61   34   38 ar  
    62   35   36 1   
    63   35   37 1   
    64   35   63 1   
    65   36   64 1   
    66   36   65 1   
    67   37   66 1   
    68   37   67 1   
    69   38   39 ar  
    70   38   68 1   
    71   39   69 1   
@<TRIPOS>SUBSTRUCTURE
     1 ONO         1 TEMP              0 ****  ****    0 ROOT
