@<TRIPOS>MOLECULE
ONZ
   25    26     1     0     0
SMALL
bcc


@<TRIPOS>ATOM
      1 C10         0.6260    0.1530   -0.2020 ca        1 ONZ     -0.136000
      2 C9          1.9510   -0.1820    0.0380 ca        1 ONZ     -0.089000
      3 C11        -0.3170    0.3010    0.8360 ca        1 ONZ     -0.056000
      4 C8          2.4350   -0.4000    1.3540 ca        1 ONZ     -0.180600
      5 C12         0.1500    0.0920    2.1150 ca        1 ONZ      0.032100
      6 C16         1.5050   -0.2540    2.3790 ca        1 ONZ      0.139100
      7 C6          3.8100   -0.7680    1.6790 c         1 ONZ      0.573700
      8 C2          5.0050    0.4890   -1.5700 c         1 ONZ      0.924600
      9 C14         0.4010   -0.1340    4.3700 c3        1 ONZ      0.319200
     10 C4          5.1740    0.4900    0.0080 c3        1 ONZ     -0.075200
     11 N5          4.8040   -0.8410    0.5670 n4        1 ONZ     -0.657800
     12 O3          5.4800    1.4730   -2.1580 o         1 ONZ     -0.762300
     13 O7          4.2550   -1.0500    2.7910 o         1 ONZ     -0.467100
     14 O1          4.3910   -0.5130   -2.0370 o         1 ONZ     -0.762300
     15 O13        -0.5440    0.1690    3.3180 os        1 ONZ     -0.324900
     16 O15         1.6840   -0.3980    3.7400 os        1 ONZ     -0.309900
     17 H1          0.2960    0.3150   -1.2420 ha        1 ONZ      0.166000
     18 H2          2.6310   -0.2690   -0.8370 ha        1 ONZ      0.206000
     19 H3         -1.3620    0.5690    0.6320 ha        1 ONZ      0.170000
     20 H4          0.5100    0.7640    5.0270 h2        1 ONZ      0.086200
     21 H5          0.0700   -1.0620    4.8970 h2        1 ONZ      0.086200
     22 H6          6.2380    0.7220    0.2670 hx        1 ONZ      0.092700
     23 H7          4.5000    1.2820    0.4250 hx        1 ONZ      0.092700
     24 H8          4.3980   -1.3790   -0.2410 hn        1 ONZ      0.466300
     25 H52         5.6420   -1.3240    0.8970 hn        1 ONZ      0.466300
@<TRIPOS>BOND
     1    1    2 ar  
     2    1    3 ar  
     3    1   17 1   
     4    2    4 ar  
     5    2   18 1   
     6    3    5 ar  
     7    3   19 1   
     8    4    6 ar  
     9    4    7 1   
    10    5    6 ar  
    11    5   15 1   
    12    6   16 1   
    13    7   11 1   
    14    7   13 2   
    15    8   10 1   
    16    8   12 1   
    17    8   14 1   
    18    9   15 1   
    19    9   16 1   
    20    9   20 1   
    21    9   21 1   
    22   10   11 1   
    23   10   22 1   
    24   10   23 1   
    25   11   24 1   
    26   11   25 1   
@<TRIPOS>SUBSTRUCTURE
     1 ONZ         1 TEMP              0 ****  ****    0 ROOT
