@<TRIPOS>MOLECULE
ONZ
   24    25     1     0     0
SMALL
bcc


@<TRIPOS>ATOM
      1 C10        -1.3270   -2.3610   -0.1520 ca        1 ONZ     -0.151000
      2 C9         -0.2960   -1.4290   -0.1980 ca        1 ONZ     -0.099000
      3 C11        -2.6730   -1.9790    0.0080 ca        1 ONZ     -0.112000
      4 C8         -0.5490   -0.0400   -0.0940 ca        1 ONZ     -0.125600
      5 C12        -2.9120   -0.6260    0.1170 ca        1 ONZ      0.022100
      6 C16        -1.8680    0.3360    0.0650 ca        1 ONZ      0.095100
      7 C6          0.6020    0.9110   -0.2060 c         1 ONZ      0.658700
      8 C2          3.6720   -0.5520   -0.1850 c         1 ONZ      0.896600
      9 C14        -3.8410    1.4400    0.3420 c3        1 ONZ      0.319200
     10 C4          3.0160    0.8150    0.1710 c3        1 ONZ     -0.082000
     11 N5          1.6620    0.6940    0.6750 n         1 ONZ     -0.483900
     12 O3          2.9630   -1.6000   -0.1060 o         1 ONZ     -0.841300
     13 O7          0.5670    1.8630   -1.0110 o         1 ONZ     -0.596100
     14 O1          4.8830   -0.5280   -0.5270 o         1 ONZ     -0.841300
     15 O13        -4.1340    0.0270    0.2890 os        1 ONZ     -0.349900
     16 O15        -2.4140    1.6080    0.2130 os        1 ONZ     -0.316900
     17 H1         -1.0880   -3.4310   -0.2410 ha        1 ONZ      0.137000
     18 H2          0.7590   -1.7650   -0.3190 ha        1 ONZ      0.218000
     19 H3         -3.4810   -2.7180    0.0450 ha        1 ONZ      0.139000
     20 H4         -4.3400    1.9420   -0.5230 h2        1 ONZ      0.059700
     21 H5         -4.1590    1.8330    1.3390 h2        1 ONZ      0.059700
     22 H6          3.6310    1.3030    0.9750 h1        1 ONZ      0.053700
     23 H7          3.0370    1.4710   -0.7400 h1        1 ONZ      0.053700
     24 H8          1.5660   -0.1670    1.1890 hn        1 ONZ      0.287500
@<TRIPOS>BOND
     1    1    2 ar  
     2    1    3 ar  
     3    1   17 1   
     4    2    4 ar  
     5    2   18 1   
     6    3    5 ar  
     7    3   19 1   
     8    4    6 ar  
     9    4    7 1   
    10    5    6 ar  
    11    5   15 1   
    12    6   16 1   
    13    7   11 1   
    14    7   13 2   
    15    8   10 1   
    16    8   12 1   
    17    8   14 1   
    18    9   15 1   
    19    9   16 1   
    20    9   20 1   
    21    9   21 1   
    22   10   11 1   
    23   10   22 1   
    24   10   23 1   
    25   11   24 1   
@<TRIPOS>SUBSTRUCTURE
     1 ONZ         1 TEMP              0 ****  ****    0 ROOT
