@<TRIPOS>MOLECULE
ONZ
   25    26     1     0     0
SMALL
bcc


@<TRIPOS>ATOM
      1 C10         0.6610    0.4180   -0.1800 ca        1 ONZ     -0.136000
      2 C9          1.9400   -0.0720    0.0390 ca        1 ONZ     -0.089000
      3 C11        -0.2580    0.6290    0.8690 ca        1 ONZ     -0.056000
      4 C8          2.3990   -0.3940    1.3420 ca        1 ONZ     -0.180600
      5 C12         0.1860    0.3190    2.1360 ca        1 ONZ      0.032100
      6 C16         1.4930   -0.1860    2.3780 ca        1 ONZ      0.139100
      7 C6          3.7260   -0.9260    1.6430 c         1 ONZ      0.573700
      8 C2          5.0480    0.3140   -1.5630 c         1 ONZ      0.924600
      9 C14         0.4140   -0.0230    4.3780 c3        1 ONZ      0.319200
     10 C4          5.2180    0.2340    0.0120 c3        1 ONZ     -0.075200
     11 N5          4.7020   -1.0670    0.5230 n4        1 ONZ     -0.657800
     12 O3          5.6290    1.2600   -2.1160 o         1 ONZ     -0.762300
     13 O7          4.1390   -1.2980    2.7410 o         1 ONZ     -0.467100
     14 O1          4.3230   -0.5930   -2.0640 o         1 ONZ     -0.762300
     15 O13        -0.4930    0.4240    3.3460 os        1 ONZ     -0.324900
     16 O15         1.6580   -0.4040    3.7310 os        1 ONZ     -0.309900
     17 H1          0.3490    0.6570   -1.2100 ha        1 ONZ      0.166000
     18 H2          2.6040   -0.1990   -0.8430 ha        1 ONZ      0.206000
     19 H3         -1.2680    1.0200    0.6830 ha        1 ONZ      0.170000
     20 H4          0.6240    0.8290    5.0700 h2        1 ONZ      0.086200
     21 H5         -0.0170   -0.9290    4.8710 h2        1 ONZ      0.086200
     22 H6          4.6390    1.0800    0.4640 hx        1 ONZ      0.092700
     23 H7          6.3020    0.3350    0.2730 hx        1 ONZ      0.092700
     24 H8          5.4810   -1.6540    0.8280 hn        1 ONZ      0.466300
     25 H52         4.2360   -1.5250   -0.3030 hn        1 ONZ      0.466300
@<TRIPOS>BOND
     1    1    2 ar  
     2    1    3 ar  
     3    1   17 1   
     4    2    4 ar  
     5    2   18 1   
     6    3    5 ar  
     7    3   19 1   
     8    4    6 ar  
     9    4    7 1   
    10    5    6 ar  
    11    5   15 1   
    12    6   16 1   
    13    7   11 1   
    14    7   13 2   
    15    8   10 1   
    16    8   12 1   
    17    8   14 1   
    18    9   15 1   
    19    9   16 1   
    20    9   20 1   
    21    9   21 1   
    22   10   11 1   
    23   10   22 1   
    24   10   23 1   
    25   11   24 1   
    26   11   25 1   
@<TRIPOS>SUBSTRUCTURE
     1 ONZ         1 TEMP              0 ****  ****    0 ROOT
