@<TRIPOS>MOLECULE
ONZ
   24    18     1     0     0
SMALL
bcc


@<TRIPOS>ATOM
      1 C10        -2.5580   -0.1390   -1.2980 c1        1 ONZ     -0.131500
      2 C9         -1.1660   -0.0570   -1.3040 c1        1 ONZ     -0.099000
      3 C11        -3.2490   -0.1490   -0.0910 c1        1 ONZ     -0.131500
      4 C8         -0.4680    0.0150   -0.1030 c1        1 ONZ     -0.105000
      5 C12        -2.5480   -0.0760    1.1190 c1        1 ONZ     -0.023000
      6 C16        -1.1640    0.0060    1.1130 c1        1 ONZ      0.050000
      7 C6          1.0450    0.0780   -0.1100 c1        1 ONZ      0.332000
      8 C2          4.1000   -0.4230   -1.3550 c1        1 ONZ      0.316000
      9 C14        -1.8480   -0.0190    3.2950 c3        1 ONZ      0.097000
     10 C4          3.0420    0.6560   -1.4310 c3        1 ONZ     -0.148000
     11 N5          1.7510    0.0620   -1.3420 n2        1 ONZ     -0.293000
     12 O3          4.8180   -0.5300   -0.3260 o         1 ONZ     -0.548000
     13 O7          1.6520    0.1990    0.9350 o         1 ONZ     -0.357000
     14 O1          4.2820   -1.1970   -2.3320 os        1 ONZ     -0.604000
     15 O13        -2.9820   -0.0950    2.4780 o         1 ONZ     -0.216500
     16 O15        -0.7190    0.0480    2.4680 o         1 ONZ     -0.216500
     17 H1         -3.0470   -0.1900   -2.1410 ha        1 ONZ      0.138000
     18 H2         -0.6800   -0.0600   -2.1500 ha        1 ONZ      0.218000
     19 H3         -4.2240   -0.2110   -0.0870 ha        1 ONZ      0.138000
     20 H4         -1.7950   -0.8160    3.8640 h2        1 ONZ      0.099000
     21 H5         -1.8960    0.7850    3.8550 h2        1 ONZ      0.099000
     22 H6          3.1230    1.1340   -2.2820 h1        1 ONZ      0.093000
     23 H7          3.1630    1.2850   -0.6900 h1        1 ONZ      0.093000
     24 H8          1.3670   -0.3070   -2.0830 hn        1 ONZ      0.201000
@<TRIPOS>BOND
     1    1    3 1   
     2    1   17 1   
     3    2    4 1   
     4    2   18 1   
     5    3   19 1   
     6    4    6 1   
     7    5    6 1   
     8    7   13 1   
     9    8   10 1   
    10    8   12 1   
    11    9   15 1   
    12    9   16 1   
    13    9   20 1   
    14    9   21 1   
    15   10   11 1   
    16   10   22 1   
    17   10   23 1   
    18   11   24 1   
@<TRIPOS>SUBSTRUCTURE
     1 ONZ         1 TEMP              0 ****  ****    0 ROOT
