@<TRIPOS>MOLECULE
ONZ
   25    26     1     0     0
SMALL
bcc


@<TRIPOS>ATOM
      1 C10         0.6380   -0.2420   -0.2270 ca        1 ONZ     -0.136000
      2 C9          1.9430    0.1330    0.0570 ca        1 ONZ     -0.089000
      3 C11        -0.2930   -0.5630    0.7820 ca        1 ONZ     -0.056000
      4 C8          2.4180    0.2170    1.3910 ca        1 ONZ     -0.180600
      5 C12         0.1650   -0.4830    2.0790 ca        1 ONZ      0.032100
      6 C16         1.5000   -0.0990    2.3880 ca        1 ONZ      0.139100
      7 C6          3.7720    0.6180    1.7620 c         1 ONZ      0.573700
      8 C2          5.0260   -0.1760   -1.6090 c         1 ONZ      0.924600
      9 C14         0.4090   -0.5140    4.3450 c3        1 ONZ      0.319200
     10 C4          5.1970   -0.3560   -0.0420 c3        1 ONZ     -0.075200
     11 N5          4.7570    0.8760    0.6710 ny        1 ONZ     -0.657800
     12 O3          5.5510   -1.0550   -2.3080 o         1 ONZ     -0.762300
     13 O7          4.2050    0.7880    2.9020 o         1 ONZ     -0.467100
     14 O1          4.3560    0.8400   -1.9550 o         1 ONZ     -0.762300
     15 O13        -0.5210   -0.7400    3.2620 os        1 ONZ     -0.324900
     16 O15         1.6740   -0.1080    3.7570 os        1 ONZ     -0.309900
     17 H1          0.3140   -0.2960   -1.2800 ha        1 ONZ      0.166000
     18 H2          2.6150    0.3600   -0.7990 ha        1 ONZ      0.206000
     19 H3         -1.3240   -0.8610    0.5440 ha        1 ONZ      0.170000
     20 H4          0.0300    0.3250    4.9780 h2        1 ONZ      0.086200
     21 H5          0.5680   -1.4760    4.8920 h2        1 ONZ      0.086200
     22 H6          4.5690   -1.2270    0.2750 hx        1 ONZ      0.092700
     23 H7          6.2730   -0.5590    0.1920 hx        1 ONZ      0.092700
     24 H8          5.5690    1.3620    1.0600 hn        1 ONZ      0.466300
     25 H52         4.3210    1.4850   -0.0680 hn        1 ONZ      0.466300
@<TRIPOS>BOND
     1    1    2 ar  
     2    1    3 ar  
     3    1   17 1   
     4    2    4 ar  
     5    2   18 1   
     6    3    5 ar  
     7    3   19 1   
     8    4    6 ar  
     9    4    7 1   
    10    5    6 ar  
    11    5   15 1   
    12    6   16 1   
    13    7   11 1   
    14    7   13 2   
    15    8   10 1   
    16    8   12 1   
    17    8   14 1   
    18    9   15 1   
    19    9   16 1   
    20    9   20 1   
    21    9   21 1   
    22   10   11 1   
    23   10   22 1   
    24   10   23 1   
    25   11   24 1   
    26   11   25 1   
@<TRIPOS>SUBSTRUCTURE
     1 ONZ         1 TEMP              0 ****  ****    0 ROOT
