@<TRIPOS>MOLECULE
OOA
   24    23     1     0     0
SMALL
bcc


@<TRIPOS>ATOM
      1 C1          1.0850   -0.9490   -0.1850 c         1 OOA      0.924600
      2 C2          1.4120    0.5460    0.0720 c3        1 OOA     -0.312400
      3 C3          1.8920    0.8180    1.4560 c         1 OOA      0.600100
      4 C4          3.2360    0.2360    1.7950 c3        1 OOA     -0.204400
      5 O1          1.2400    1.4850    2.2760 o         1 OOA     -0.608100
      6 C5          3.6380    0.4650    3.2330 c3        1 OOA     -0.067400
      7 C6          4.9870   -0.1540    3.5290 c3        1 OOA     -0.078400
      8 C7          5.3880    0.0610    4.9730 c3        1 OOA     -0.080400
      9 C8          6.7320   -0.5510    5.2740 c3        1 OOA     -0.090100
     10 O3          1.9650   -1.8150    0.0860 o         1 OOA     -0.832300
     11 O31        -0.0350   -1.2060   -0.7000 o         1 OOA     -0.832300
     12 H2C1        0.4940    1.1490   -0.1420 hc        1 OOA      0.051700
     13 H2C2        2.2130    0.8300   -0.6570 hc        1 OOA      0.051700
     14 H4C1        3.1810   -0.8690    1.5600 hc        1 OOA      0.088700
     15 H4C2        3.9990    0.6810    1.1040 hc        1 OOA      0.088700
     16 H5C1        3.6670    1.5660    3.4470 hc        1 OOA      0.040700
     17 H5C2        2.8580    0.0240    3.9080 hc        1 OOA      0.040700
     18 H6C1        4.9500   -1.2530    3.3080 hc        1 OOA      0.037200
     19 H6C2        5.7630    0.2930    2.8540 hc        1 OOA      0.037200
     20 H7C1        4.6100   -0.3890    5.6460 hc        1 OOA      0.034700
     21 H7C2        5.4170    1.1610    5.1930 hc        1 OOA      0.034700
     22 H8C1        7.5240   -0.0970    4.6310 hc        1 OOA      0.024700
     23 H8C2        6.7150   -1.6510    5.0820 hc        1 OOA      0.024700
     24 H8C3        7.0070   -0.3840    6.3430 hc        1 OOA      0.024700
@<TRIPOS>BOND
     1    1    2 1   
     2    1   10 1   
     3    1   11 1   
     4    2    3 1   
     5    2   12 1   
     6    2   13 1   
     7    3    4 1   
     8    3    5 2   
     9    4    6 1   
    10    4   14 1   
    11    4   15 1   
    12    6    7 1   
    13    6   16 1   
    14    6   17 1   
    15    7    8 1   
    16    7   18 1   
    17    7   19 1   
    18    8    9 1   
    19    8   20 1   
    20    8   21 1   
    21    9   22 1   
    22    9   23 1   
    23    9   24 1   
@<TRIPOS>SUBSTRUCTURE
     1 OOA         1 TEMP              0 ****  ****    0 ROOT
