@<TRIPOS>MOLECULE
OOA
   24    22     1     0     0
SMALL
bcc


@<TRIPOS>ATOM
      1 C1         -3.8080    0.1270   -2.5670 c1        1 OOA      0.811000
      2 C2         -2.3030    0.2780   -2.5500 c2        1 OOA     -0.291000
      3 C3         -1.7980    0.1340   -1.1310 c2        1 OOA      0.576300
      4 C4         -0.3610    0.4740   -0.8020 c3        1 OOA     -0.204400
      5 O1         -2.5450   -0.2570   -0.2570 o         1 OOA     -0.634300
      6 C5          0.0530   -0.2500    0.4600 c3        1 OOA     -0.067400
      7 C6          1.4980    0.0680    0.7740 c3        1 OOA     -0.078400
      8 C7          1.8670   -0.5310    2.1130 c3        1 OOA     -0.080400
      9 C8          3.2950   -0.1660    2.4530 c3        1 OOA     -0.090100
     10 O3         -4.5430    1.1200   -2.3230 o         1 OOA     -0.800500
     11 O31        -4.3260   -0.9900   -2.8290 o         1 OOA     -0.800500
     12 H2C1       -1.9000   -0.4140   -3.1120 ha        1 OOA      0.091000
     13 H2C2       -2.0600    1.1610   -2.8940 ha        1 OOA      0.091000
     14 H4C1       -0.2780    1.4390   -0.6660 hc        1 OOA      0.088700
     15 H4C2        0.2170    0.1980   -1.5410 hc        1 OOA      0.088700
     16 H5C1       -0.5140    0.0400    1.2030 hc        1 OOA      0.040700
     17 H5C2       -0.0480   -1.2150    0.3310 hc        1 OOA      0.040700
     18 H6C1        2.0730   -0.3100    0.0780 hc        1 OOA      0.037200
     19 H6C2        1.6190    1.0380    0.8060 hc        1 OOA      0.037200
     20 H7C1        1.2680   -0.1810    2.8030 hc        1 OOA      0.034700
     21 H7C2        1.7810   -1.5050    2.0700 hc        1 OOA      0.034700
     22 H8C1        3.5320   -0.5480    3.3240 hc        1 OOA      0.024700
     23 H8C2        3.3830    0.8100    2.4890 hc        1 OOA      0.024700
     24 H8C3        3.8960   -0.5220    1.7660 hc        1 OOA      0.024700
@<TRIPOS>BOND
     1    1   10 2   
     2    1   11 2   
     3    2    3 2   
     4    2   12 1   
     5    2   13 1   
     6    3    4 1   
     7    3    5 1   
     8    4    6 1   
     9    4   14 1   
    10    4   15 1   
    11    6    7 1   
    12    6   16 1   
    13    6   17 1   
    14    7    8 1   
    15    7   18 1   
    16    7   19 1   
    17    8    9 1   
    18    8   20 1   
    19    8   21 1   
    20    9   22 1   
    21    9   23 1   
    22    9   24 1   
@<TRIPOS>SUBSTRUCTURE
     1 OOA         1 TEMP              0 ****  ****    0 ROOT
