@<TRIPOS>MOLECULE
OOA
   24    23     1     0     0
SMALL
bcc


@<TRIPOS>ATOM
      1 C1          0.8820   -0.9840    0.0320 c         1 OOA      0.924600
      2 C2          1.3330    0.4970    0.1350 c3        1 OOA     -0.312400
      3 C3          1.9010    0.8520    1.4660 c         1 OOA      0.600100
      4 C4          3.2120    0.1970    1.8000 c3        1 OOA     -0.204400
      5 O1          1.3430    1.6400    2.2470 o         1 OOA     -0.608100
      6 C5          3.7020    0.5220    3.1910 c3        1 OOA     -0.067400
      7 C6          5.0130   -0.1750    3.4860 c3        1 OOA     -0.078400
      8 C7          5.5020    0.1360    4.8850 c3        1 OOA     -0.080400
      9 C8          6.8070   -0.5530    5.1840 c3        1 OOA     -0.090100
     10 O3          1.7060   -1.8900    0.3450 o         1 OOA     -0.832300
     11 O31        -0.2790   -1.1970   -0.4080 o         1 OOA     -0.832300
     12 H2C1        0.4540    1.1490   -0.0950 hc        1 OOA      0.051700
     13 H2C2        2.1150    0.6490   -0.6510 hc        1 OOA      0.051700
     14 H4C1        3.0620   -0.9170    1.6720 hc        1 OOA      0.088700
     15 H4C2        3.9710    0.5150    1.0380 hc        1 OOA      0.088700
     16 H5C1        3.8260    1.6310    3.2990 hc        1 OOA      0.040700
     17 H5C2        2.9260    0.2090    3.9380 hc        1 OOA      0.040700
     18 H6C1        4.8800   -1.2840    3.3720 hc        1 OOA      0.037200
     19 H6C2        5.7860    0.1430    2.7390 hc        1 OOA      0.037200
     20 H7C1        4.7260   -0.1850    5.6300 hc        1 OOA      0.034700
     21 H7C2        5.6270    1.2460    4.9980 hc        1 OOA      0.034700
     22 H8C1        7.5990   -0.2270    4.4670 hc        1 OOA      0.024700
     23 H8C2        6.6950   -1.6610    5.0980 hc        1 OOA      0.024700
     24 H8C3        7.1490   -0.3130    6.2200 hc        1 OOA      0.024700
@<TRIPOS>BOND
     1    1    2 1   
     2    1   10 1   
     3    1   11 1   
     4    2    3 1   
     5    2   12 1   
     6    2   13 1   
     7    3    4 1   
     8    3    5 2   
     9    4    6 1   
    10    4   14 1   
    11    4   15 1   
    12    6    7 1   
    13    6   16 1   
    14    6   17 1   
    15    7    8 1   
    16    7   18 1   
    17    7   19 1   
    18    8    9 1   
    19    8   20 1   
    20    8   21 1   
    21    9   22 1   
    22    9   23 1   
    23    9   24 1   
@<TRIPOS>SUBSTRUCTURE
     1 OOA         1 TEMP              0 ****  ****    0 ROOT
