@<TRIPOS>MOLECULE
OOA
   24    23     1     0     0
SMALL
bcc


@<TRIPOS>ATOM
      1 C1         -0.6510    0.9720   -2.5090 c         1 OOA      0.924600
      2 C2         -0.7060   -0.5230   -2.0980 c3        1 OOA     -0.312400
      3 C3          0.0310   -0.8190   -0.8380 c         1 OOA      0.600100
      4 C4         -0.5630   -0.2240    0.4080 c3        1 OOA     -0.204400
      5 O1          1.0600   -1.5140   -0.8080 o         1 OOA     -0.608100
      6 C5          0.2670   -0.4800    1.6440 c3        1 OOA     -0.067400
      7 C6         -0.3610    0.1540    2.8660 c3        1 OOA     -0.078400
      8 C7          0.4740   -0.0890    4.1060 c3        1 OOA     -0.080400
      9 C8         -0.1470    0.5380    5.3270 c3        1 OOA     -0.090100
     10 O3         -0.9880    1.8460   -1.6600 o         1 OOA     -0.832300
     11 O31        -0.3110    1.2240   -3.6960 o         1 OOA     -0.832300
     12 H2C1       -0.2920   -1.1350   -2.9390 hc        1 OOA      0.051700
     13 H2C2       -1.7870   -0.7780   -1.9600 hc        1 OOA      0.051700
     14 H4C1       -1.5950   -0.6400    0.5420 hc        1 OOA      0.088700
     15 H4C2       -0.6750    0.8850    0.2180 hc        1 OOA      0.088700
     16 H5C1        1.2990   -0.0690    1.4870 hc        1 OOA      0.040700
     17 H5C2        0.3790   -1.5850    1.8010 hc        1 OOA      0.040700
     18 H6C1       -1.3910   -0.2630    3.0210 hc        1 OOA      0.037200
     19 H6C2       -0.4740    1.2570    2.6980 hc        1 OOA      0.037200
     20 H7C1        1.5020    0.3300    3.9480 hc        1 OOA      0.034700
     21 H7C2        0.5900   -1.1930    4.2670 hc        1 OOA      0.034700
     22 H8C1        0.4840    0.3500    6.2280 hc        1 OOA      0.024700
     23 H8C2       -0.2510    1.6420    5.1920 hc        1 OOA      0.024700
     24 H8C3       -1.1640    0.1140    5.5140 hc        1 OOA      0.024700
@<TRIPOS>BOND
     1    1    2 1   
     2    1   10 1   
     3    1   11 1   
     4    2    3 1   
     5    2   12 1   
     6    2   13 1   
     7    3    4 1   
     8    3    5 2   
     9    4    6 1   
    10    4   14 1   
    11    4   15 1   
    12    6    7 1   
    13    6   16 1   
    14    6   17 1   
    15    7    8 1   
    16    7   18 1   
    17    7   19 1   
    18    8    9 1   
    19    8   20 1   
    20    8   21 1   
    21    9   22 1   
    22    9   23 1   
    23    9   24 1   
@<TRIPOS>SUBSTRUCTURE
     1 OOA         1 TEMP              0 ****  ****    0 ROOT
