@<TRIPOS>MOLECULE
OOF
   60    60     1     0     0
SMALL
bcc


@<TRIPOS>ATOM
      1 N1          0.0650    0.7270   -0.0870 n3        1 OOF     -0.201000
      2 C2          1.2880    0.0060   -0.3940 c2        1 OOF      0.106000
      3 N3          2.0200   -0.2840    0.6710 n2        1 OOF     -0.127000
      4 C4          0.0140    0.8330    1.2880 c2        1 OOF      0.086000
      5 C5          1.3590    0.3110    1.8350 c3        1 OOF     -0.082000
      6 C6         -1.2070    2.6890   -0.8350 c2        1 OOF      0.288000
      7 C7         -0.9300    1.1650   -1.0390 c3        1 OOF     -0.003000
      8 C8         -1.0010    1.1750    2.1570 c2        1 OOF     -0.306000
      9 C9          1.2990   -0.3710    3.1350 c1        1 OOF     -0.099000
     10 C11        -0.8870    0.7370    3.5040 c2        1 OOF      0.214000
     11 C12         1.6520   -0.4110   -1.7580 ca        1 OOF     -0.065000
     12 C13         0.1910   -0.0850    3.9380 c2        1 OOF     -0.132000
     13 C16        -0.3600    2.4650   -7.4460 c1        1 OOF     -0.140000
     14 O17         0.8950    3.1050   -4.2810 o         1 OOF     -0.569000
     15 C18        -2.2810    0.4090   -0.9650 c3        1 OOF     -0.096000
     16 C19         1.7950    0.5070   -2.8010 ca        1 OOF     -0.076000
     17 C20         1.9270   -1.7710   -1.9740 ca        1 OOF     -0.076000
     18 C21        -0.6190    4.9290   -1.6750 c2        1 OOF     -0.017000
     19 C22        -0.5080    2.4620   -8.7930 c1        1 OOF     -0.005000
     20 C23        -0.2290    2.4660   -6.2520 c1        1 OOF     -0.060000
     21 F24        -1.8740    1.0650    4.3590 f         1 OOF     -0.086000
     22 F25         0.1190   -0.6090    5.1930 f         1 OOF     -0.108000
     23 O26        -0.9030    1.8420   -4.0810 o         1 OOF     -0.569000
     24 C27         2.4870   -1.2830   -4.2670 ca        1 OOF     -0.045000
     25 C28        -0.6380    2.4610   -9.9850 c1        1 OOF     -0.253000
     26 C29        -1.2760    5.7200   -0.8120 c2        1 OOF     -0.310000
     27 C30         2.2110    0.0690   -4.0610 ca        1 OOF     -0.128500
     28 C31         2.3430   -2.2080   -3.2270 ca        1 OOF     -0.128500
     29 CL32        3.0030   -1.8210   -5.7980 cl        1 OOF     -0.029000
     30 C33        -3.1550    0.9280   -2.1100 c3        1 OOF     -0.079000
     31 C34        -2.0870   -1.0990   -1.0720 c3        1 OOF     -0.159000
     32 C35        -2.2650   -1.7940    0.2550 c3        1 OOF     -0.212000
     33 C36        -4.4750    0.3690   -2.0910 c1        1 OOF     -0.125000
     34 C37        -5.5850   -0.0770   -2.0960 c1        1 OOF     -0.264000
     35 H7         -0.5150    0.9900   -2.0870 h1        1 OOF      0.188000
     36 H8         -1.9030    1.7160    1.8280 ha        1 OOF      0.200000
     37 H9          1.9850    1.2320    2.1260 h1        1 OOF      0.196000
     38 HN10       -0.0640    3.1340   -2.4770 hn        1 OOF      0.298000
     39 H18        -2.7800    0.6600    0.0130 hc        1 OOF      0.113000
     40 H19         1.5660    1.5830   -2.6750 ha        1 OOF      0.168000
     41 H20         1.8230   -2.4920   -1.1480 ha        1 OOF      0.168000
     42 H22        -0.7540    2.4580  -11.0360 ha        1 OOF      0.215000
     43 H23        -1.8660    5.3470    0.0340 ha        1 OOF      0.122500
     44 H28        -0.0450    5.3640   -2.5230 h4        1 OOF      0.146000
     45 H29        -1.2480    6.8080   -0.9360 ha        1 OOF      0.122500
     46 H30         2.2920    0.8080   -4.8760 ha        1 OOF      0.159000
     47 H31         2.5570   -3.2740   -3.3940 ha        1 OOF      0.159000
     48 H33        -3.2370    2.0510   -2.0330 hc        1 OOF      0.137500
     49 H33A       -2.6540    0.7090   -3.0990 hc        1 OOF      0.137500
     50 H34        -1.0710   -1.3330   -1.4900 hc        1 OOF      0.088000
     51 H34A       -2.8330   -1.5180   -1.8000 hc        1 OOF      0.088000
     52 H35        -1.5810   -1.3650    1.0270 hc        1 OOF      0.071667
     53 H35A       -2.0480   -2.8840    0.1520 hc        1 OOF      0.071667
     54 H36        -4.0070   -0.0300    2.2030 ha        1 OOF      0.000500
     55 H36A       -3.4040    0.1170    2.4740 ha        1 OOF      0.000500
     56 H37        -3.3140   -1.6740    0.6230 hc        1 OOF      0.071667
     57 H37A       -6.5670   -0.4710   -2.1020 ha        1 OOF      0.210000
     58 N10        -0.5110    3.5390   -1.6620 n         1 OOF     -0.297000
     59 O15        -1.9820    3.0680    0.0670 o         1 OOF     -0.389000
     60 C14        -0.0730    2.4710   -4.8030 c2        1 OOF      0.412000
@<TRIPOS>BOND
     1    1    2 1   
     2    1    4 1   
     3    1    7 1   
     4    2    3 1   
     5    2   11 1   
     6    3    5 1   
     7    4    5 1   
     8    4    8 1   
     9    5    9 1   
    10    5   37 1   
    11    6    7 1   
    12    6   58 1   
    13    6   59 1   
    14    7   15 1   
    15    7   35 1   
    16    8   10 1   
    17    8   36 1   
    18    9   12 1   
    19   10   12 1   
    20   10   21 1   
    21   11   16 1   
    22   11   17 1   
    23   12   22 1   
    24   13   19 1   
    25   13   20 1   
    26   14   60 1   
    27   15   30 1   
    28   15   31 1   
    29   15   39 1   
    30   16   27 1   
    31   16   40 1   
    32   17   28 1   
    33   17   41 1   
    34   18   26 1   
    35   18   44 1   
    36   18   58 1   
    37   19   25 1   
    38   20   60 1   
    39   23   60 1   
    40   24   27 1   
    41   24   28 1   
    42   24   29 1   
    43   25   42 1   
    44   26   43 1   
    45   26   45 1   
    46   27   46 1   
    47   28   47 1   
    48   30   33 1   
    49   30   48 1   
    50   30   49 1   
    51   31   32 1   
    52   31   50 1   
    53   31   51 1   
    54   32   52 1   
    55   32   53 1   
    56   32   56 1   
    57   33   34 1   
    58   34   57 1   
    59   38   58 1   
    60   54   55 1   
@<TRIPOS>SUBSTRUCTURE
     1 OOF         1 TEMP              0 ****  ****    0 ROOT
