@<TRIPOS>MOLECULE
OOF
   60    60     1     0     0
SMALL
bcc


@<TRIPOS>ATOM
      1 N1          0.3940    0.8250   -0.1130 n3        1 OOF     -0.206000
      2 C2          1.4860   -0.0200   -0.5600 c2        1 OOF      0.107000
      3 N3          2.2920   -0.4140    0.4140 n2        1 OOF     -0.128000
      4 C4          0.5050    0.9070    1.2610 c2        1 OOF      0.084000
      5 C5          1.8330    0.2260    1.6500 c3        1 OOF     -0.083000
      6 C6         -0.7870    2.9090   -0.7070 c2        1 OOF      0.292000
      7 C7         -0.6620    1.3710   -0.9360 c3        1 OOF     -0.003000
      8 C8         -0.3610    1.3450    2.2400 c2        1 OOF     -0.307000
      9 C9          1.8400   -0.4720    2.9420 c1        1 OOF     -0.096000
     10 C11        -0.1440    0.8780    3.5650 c2        1 OOF      0.214000
     11 C12         1.6540   -0.4420   -1.9600 ca        1 OOF     -0.065000
     12 C13         0.8700   -0.0750    3.8680 c2        1 OOF     -0.131000
     13 C16        -0.7340    2.7230   -7.3630 c1        1 OOF     -0.141000
     14 O17         0.9370    3.1750   -4.3620 o         1 OOF     -0.568500
     15 C18        -2.0370    0.7310   -0.6850 c3        1 OOF     -0.160000
     16 C19         1.7550    0.4790   -3.0060 ca        1 OOF     -0.075500
     17 C20         1.7820   -1.8160   -2.2180 ca        1 OOF     -0.075500
     18 C21        -0.1170    5.1000   -1.6110 c2        1 OOF     -0.016000
     19 C22        -1.0400    2.7670   -8.6820 c1        1 OOF     -0.005000
     20 C23        -0.4620    2.6820   -6.1940 c1        1 OOF     -0.061000
     21 F24        -0.9720    1.3130    4.5330 f         1 OOF     -0.085000
     22 F25         0.8790   -0.6100    5.1200 f         1 OOF     -0.108000
     23 O26        -0.9280    2.0610   -3.9690 o         1 OOF     -0.568500
     24 C27         2.1120   -1.3370   -4.5580 ca        1 OOF     -0.045000
     25 C28        -1.3110    2.8060   -9.8500 c1        1 OOF     -0.253000
     26 C29        -0.6160    5.9350   -0.6860 c2        1 OOF     -0.311000
     27 C30         1.9820    0.0300   -4.3090 ca        1 OOF     -0.128500
     28 C31         2.0090   -2.2650   -3.5150 ca        1 OOF     -0.128500
     29 Cl32        2.3970   -1.8890   -6.1430 cl        1 OOF     -0.029000
     30 C33        -3.0210    1.2090   -1.7330 c3        1 OOF     -0.201000
     31 C34        -3.6320   -3.3100    1.2870 c2        1 OOF     -0.226000
     32 C35        -4.0400   -2.3390    0.4810 c2        1 OOF     -0.226000
     33 C36        -4.3630    0.5250   -1.5890 c3        1 OOF     -0.245000
     34 C37        -4.4560   -0.8840   -1.9030 c1        1 OOF     -0.083000
     35 H7         -0.3940    1.1720   -2.0280 h1        1 OOF      0.190000
     36 H8         -1.2270    1.9900    2.0190 ha        1 OOF      0.198000
     37 H9          2.5890    1.0640    1.8770 h1        1 OOF      0.196000
     38 HN10        0.2090    3.2710   -2.4600 hn        1 OOF      0.298000
     39 H18        -2.4020    1.0040    0.3400 hc        1 OOF      0.090000
     40 H19         1.6390    1.5680   -2.8460 ha        1 OOF      0.168000
     41 H20         1.7110   -2.5410   -1.3930 ha        1 OOF      0.168000
     42 H22        -1.5500    2.8400  -10.8790 ha        1 OOF      0.215000
     43 H23        -1.1390    5.6050    0.2190 ha        1 OOF      0.122500
     44 H28         0.3950    5.4920   -2.5160 h4        1 OOF      0.146000
     45 H29        -0.5170    7.0190   -0.8160 ha        1 OOF      0.122500
     46 H30         2.0330    0.7750   -5.1220 ha        1 OOF      0.159000
     47 H31         2.1070   -3.3420   -3.7150 ha        1 OOF      0.159000
     48 H33        -3.1520    2.3200   -1.6280 hc        1 OOF      0.119000
     49 H33A       -2.6010    1.0310   -2.7620 hc        1 OOF      0.119000
     50 H34        -2.8180   -3.1790    2.0120 ha        1 OOF      0.114250
     51 H34A       -1.9440   -0.3860   -0.7380 hc        1 OOF      0.090000
     52 H35        -3.5460   -1.3680   -2.2910 ha        1 OOF      0.044000
     53 H35A       -4.0820   -4.3120    1.2810 ha        1 OOF      0.114250
     54 H36        -4.7610    0.6680   -0.5430 hc        1 OOF      0.139000
     55 H36A       -3.5870   -1.3360    0.4880 ha        1 OOF      0.114250
     56 H37        -4.8560   -2.4650   -0.2490 ha        1 OOF      0.114250
     57 H37A       -5.1110    1.0280   -2.2750 hc        1 OOF      0.139000
     58 N10        -0.1150    3.7060   -1.6030 ns        1 OOF     -0.296000
     59 O15        -1.4370    3.3420    0.2680 o         1 OOF     -0.392000
     60 C14        -0.1360    2.6380   -4.7740 c2        1 OOF      0.412000
@<TRIPOS>BOND
     1    1    2 1   
     2    1    4 1   
     3    1    7 1   
     4    2    3 1   
     5    2   11 1   
     6    3    5 1   
     7    4    5 1   
     8    4    8 1   
     9    5    9 1   
    10    5   37 1   
    11    6    7 1   
    12    6   58 1   
    13    6   59 1   
    14    7   15 1   
    15    7   35 1   
    16    8   10 1   
    17    8   36 1   
    18    9   12 1   
    19   10   12 1   
    20   10   21 1   
    21   11   16 1   
    22   11   17 1   
    23   12   22 1   
    24   13   19 1   
    25   13   20 1   
    26   14   60 1   
    27   15   30 1   
    28   15   39 1   
    29   15   51 1   
    30   16   27 1   
    31   16   40 1   
    32   17   28 1   
    33   17   41 1   
    34   18   26 1   
    35   18   44 1   
    36   18   58 1   
    37   19   25 1   
    38   20   60 1   
    39   23   60 1   
    40   24   27 1   
    41   24   28 1   
    42   24   29 1   
    43   25   42 1   
    44   26   43 1   
    45   26   45 1   
    46   27   46 1   
    47   28   47 1   
    48   30   33 1   
    49   30   48 1   
    50   30   49 1   
    51   31   32 1   
    52   31   50 1   
    53   31   53 1   
    54   32   55 1   
    55   32   56 1   
    56   33   34 1   
    57   33   54 1   
    58   33   57 1   
    59   34   52 1   
    60   38   58 1   
@<TRIPOS>SUBSTRUCTURE
     1 OOF         1 TEMP              0 ****  ****    0 ROOT
