@<TRIPOS>MOLECULE
OOF
   60    54     1     0     0
SMALL
bcc


@<TRIPOS>ATOM
      1 N1         -0.5680   -0.3230    1.5380 n2        1 OOF     -0.145000
      2 C2          0.5040   -1.1610    1.7420 c2        1 OOF      0.052000
      3 N3          0.9550   -0.9730    3.0050 n2        1 OOF     -0.145000
      4 C4         -0.7710    0.3780    2.6790 c1        1 OOF     -0.039500
      5 C5          0.1730   -0.0230    3.5940 c1        1 OOF     -0.039500
      6 C6         -0.1270    0.6510   -0.7580 c1        1 OOF      0.294000
      7 C7         -0.8820   -0.5000    0.1100 c1        1 OOF      0.008000
      8 C8         -1.6880    1.3910    3.0150 c1        1 OOF     -0.114000
      9 C9          0.2220    0.5690    4.8430 c1        1 OOF     -0.114000
     10 N10         0.7280    0.2800   -1.8210 n3        1 OOF     -0.294000
     11 C11        -1.6370    1.9770    4.2570 c1        1 OOF      0.051500
     12 C12         1.6040   -2.0760    1.5300 c1        1 OOF     -0.032000
     13 C13        -0.6880    1.5730    5.1740 c1        1 OOF      0.051500
     14 C14         4.6600    3.3840   -4.2930 c1        1 OOF      0.358000
     15 O15        -0.1520    1.8070   -0.3780 o         1 OOF     -0.359000
     16 C16         3.2940    2.9090   -3.8590 c1        1 OOF     -0.108000
     17 O17         5.5010    2.5480   -4.7870 o         1 OOF     -0.561500
     18 C18        -2.2320   -0.3990   -0.0730 c3        1 OOF     -0.112000
     19 C19         2.9310   -1.6640    1.5950 c1        1 OOF     -0.115000
     20 C20         1.3000   -3.4150    1.5740 c1        1 OOF     -0.086000
     21 C21         1.5480    1.2460   -2.4360 c2        1 OOF      0.007000
     22 C22         1.9890    2.7340   -4.2960 c2        1 OOF     -0.093000
     23 C23         3.7370    2.2570   -2.7100 c1        1 OOF     -0.089000
     24 F24        -2.6750    2.7810    4.6050 f         1 OOF     -0.096500
     25 F25        -0.8430    2.1240    6.4110 f         1 OOF     -0.096500
     26 O26         4.9550    4.6260   -4.2340 o         1 OOF     -0.561500
     27 C27         3.6640   -3.9670    1.7500 c1        1 OOF     -0.050000
     28 C28         1.1100    1.8950   -3.5780 c2        1 OOF     -0.159000
     29 C29         2.8620    1.4220   -1.9950 c1        1 OOF     -0.198000
     30 C30         3.9680   -2.6240    1.7060 c1        1 OOF     -0.115000
     31 C31         2.3420   -4.3790    1.6860 c1        1 OOF     -0.133000
     32 CL32        4.8140   -5.2550    1.9440 cl        1 OOF     -0.012000
     33 C33        -2.5970    0.7180   -1.1100 c3        1 OOF     -0.154500
     34 C34        -2.8220   -1.6440   -0.9180 c3        1 OOF     -0.154500
     35 C35        -4.3100   -1.5450   -1.1560 c3        1 OOF     -0.151500
     36 C36        -4.1190    0.8400   -1.3640 c3        1 OOF     -0.151500
     37 C37        -4.7660   -0.2570   -0.9850 c3        1 OOF     -0.156000
     38 H7         -0.5580   -1.4410   -0.2030 ha        1 OOF      0.116000
     39 H8         -2.3410    1.6720    2.3840 ha        1 OOF      0.180000
     40 H9          0.8640    0.2920    5.4680 ha        1 OOF      0.180000
     41 HN10        0.7270   -0.5540   -2.1170 hn        1 OOF      0.217000
     42 H18        -2.7540   -0.2680    0.8510 hc        1 OOF      0.124000
     43 H19         3.1490   -0.6960    1.5630 ha        1 OOF      0.157500
     44 H20         0.3380   -3.7150    1.5270 ha        1 OOF      0.152000
     45 H22         1.6670    3.2110   -5.1350 ha        1 OOF      0.159000
     46 H23         4.6510    2.3810   -2.4010 ha        1 OOF      0.157000
     47 H28         0.1410    1.7670   -3.9020 ha        1 OOF      0.146000
     48 H29         3.1710    0.9690   -1.1950 ha        1 OOF      0.102000
     49 H30         4.8700   -2.3430    1.7500 ha        1 OOF      0.157500
     50 H31         2.1260   -5.3530    1.6620 ha        1 OOF      0.149000
     51 H33        -2.2730    1.5570   -0.7830 hc        1 OOF      0.085250
     52 H33A       -2.1440    0.5140   -1.9700 hc        1 OOF      0.085250
     53 H34        -2.3680   -1.6780   -1.7810 hc        1 OOF      0.085250
     54 H34A       -2.6420   -2.4500   -0.4450 hc        1 OOF      0.085250
     55 H35        -4.5190   -1.8520   -2.1190 hc        1 OOF      0.080000
     56 H35A       -4.7750   -2.1350   -0.5220 hc        1 OOF      0.080000
     57 H36        -4.4690    1.6060   -0.8630 hc        1 OOF      0.080000
     58 H36A       -4.2700    0.9830   -2.3050 hc        1 OOF      0.080000
     59 H37        -4.9340   -0.1550   -0.0370 hc        1 OOF      0.078500
     60 H37A       -5.6370   -0.2200   -1.4330 hc        1 OOF      0.078500
@<TRIPOS>BOND
     1    1    2 1   
     2    1    4 1   
     3    2    3 1   
     4    2   12 1   
     5    3    5 1   
     6    4    5 1   
     7    6   10 1   
     8    6   15 1   
     9    7   18 1   
    10    7   38 1   
    11    8   11 1   
    12    8   39 1   
    13    9   13 1   
    14    9   40 1   
    15   10   21 1   
    16   10   41 1   
    17   11   24 1   
    18   12   20 1   
    19   13   25 1   
    20   14   17 1   
    21   14   26 1   
    22   16   22 1   
    23   16   23 1   
    24   18   33 1   
    25   18   34 1   
    26   18   42 1   
    27   19   30 1   
    28   19   43 1   
    29   20   44 1   
    30   21   28 1   
    31   21   29 1   
    32   22   28 1   
    33   22   45 1   
    34   23   46 1   
    35   27   31 1   
    36   27   32 1   
    37   28   47 1   
    38   29   48 1   
    39   30   49 1   
    40   31   50 1   
    41   33   36 1   
    42   33   51 1   
    43   33   52 1   
    44   34   35 1   
    45   34   53 1   
    46   34   54 1   
    47   35   37 1   
    48   35   55 1   
    49   35   56 1   
    50   36   37 1   
    51   36   57 1   
    52   36   58 1   
    53   37   59 1   
    54   37   60 1   
@<TRIPOS>SUBSTRUCTURE
     1 OOF         1 TEMP              0 ****  ****    0 ROOT
