@<TRIPOS>MOLECULE
OOF
   60    60     1     0     0
SMALL
bcc


@<TRIPOS>ATOM
      1 N1          0.3670    0.9480   -0.0920 n3        1 OOF     -0.206000
      2 C2          1.5140    0.1480   -0.4810 c2        1 OOF      0.107000
      3 N3          2.3230   -0.1530    0.5240 n2        1 OOF     -0.128000
      4 C4          0.4480    1.0990    1.2790 c2        1 OOF      0.084000
      5 C5          1.8060    0.5150    1.7210 c3        1 OOF     -0.083000
      6 C6         -0.9200    2.9300   -0.8010 c2        1 OOF      0.292000
      7 C7         -0.7020    1.3930   -0.9570 c3        1 OOF     -0.003000
      8 C8         -0.4600    1.5300    2.2220 c2        1 OOF     -0.307000
      9 C9          1.8280   -0.1210    3.0450 c1        1 OOF     -0.096000
     10 C11        -0.2420    1.1380    3.5710 c2        1 OOF      0.214000
     11 C12         1.7320   -0.3290   -1.8570 ca        1 OOF     -0.065000
     12 C13         0.8190    0.2620    3.9340 c2        1 OOF     -0.131000
     13 C16        -0.7270    2.4480   -7.4390 c1        1 OOF     -0.141000
     14 O17         0.8580    3.1300   -4.4350 o         1 OOF     -0.568500
     15 C18        -2.0430    0.6860   -0.6990 c3        1 OOF     -0.160000
     16 C19         1.8010    0.5470   -2.9420 ca        1 OOF     -0.075500
     17 C20         1.9430   -1.7030   -2.0470 ca        1 OOF     -0.075500
     18 C21        -0.3580    5.1130   -1.7940 c2        1 OOF     -0.017000
     19 C22        -1.0090    2.4170   -8.7640 c1        1 OOF     -0.005000
     20 C23        -0.4760    2.4760   -6.2650 c1        1 OOF     -0.061000
     21 F24        -1.1110    1.5690    4.5030 f         1 OOF     -0.085000
     22 F25         0.8350   -0.2140    5.2110 f         1 OOF     -0.108000
     23 O26        -0.9470    1.9280   -4.0220 o         1 OOF     -0.568500
     24 C27         2.2890   -1.3140   -4.4010 ca        1 OOF     -0.045000
     25 C28        -1.2600    2.3880   -9.9360 c1        1 OOF     -0.253000
     26 C29        -0.9230    5.9590   -0.9180 c2        1 OOF     -0.311000
     27 C30         2.0770    0.0530   -4.2190 ca        1 OOF     -0.128500
     28 C31         2.2200   -2.1980   -3.3170 ca        1 OOF     -0.128500
     29 CL32        2.6350   -1.9220   -5.9540 cl        1 OOF     -0.029000
     30 C33        -3.0310    1.0580   -1.7850 c3        1 OOF     -0.201000
     31 C34        -3.4660   -3.3380    1.4520 c2        1 OOF     -0.226000
     32 C35        -3.8980   -2.4330    0.5840 c2        1 OOF     -0.226000
     33 C36        -4.3350    0.3040   -1.6310 c3        1 OOF     -0.245000
     34 C37        -4.3420   -1.1200   -1.8790 c1        1 OOF     -0.083000
     35 H7         -0.4020    1.1610   -2.0330 h1        1 OOF      0.190000
     36 H8         -1.3570    2.1130    1.9560 ha        1 OOF      0.198000
     37 H9          2.5070    1.4060    1.9200 h1        1 OOF      0.196000
     38 HN10        0.0900    3.2690   -2.5510 hn        1 OOF      0.298000
     39 H18        -2.4430    0.9840    0.3060 hc        1 OOF      0.090000
     40 H19         1.6200    1.6350   -2.8370 ha        1 OOF      0.168000
     41 H20         1.8980   -2.3920   -1.1890 ha        1 OOF      0.168000
     42 H22        -1.4800    2.3630  -10.9700 ha        1 OOF      0.215000
     43 H23        -1.4440    5.6400   -0.0080 ha        1 OOF      0.122500
     44 H28         0.1490    5.4930   -2.7080 h4        1 OOF      0.146000
     45 H29        -0.8830    7.0390   -1.0970 ha        1 OOF      0.122500
     46 H30         2.1010    0.7610   -5.0660 ha        1 OOF      0.159000
     47 H31         2.3830   -3.2750   -3.4650 ha        1 OOF      0.159000
     48 H33        -3.2280    2.1630   -1.7340 hc        1 OOF      0.119000
     49 H33A       -2.5830    0.8570   -2.7970 hc        1 OOF      0.119000
     50 H34        -2.6770   -3.1280    2.1880 ha        1 OOF      0.114250
     51 H34A       -1.8850   -0.4250   -0.6980 hc        1 OOF      0.090000
     52 H35        -3.3980   -1.5680   -2.2270 ha        1 OOF      0.044000
     53 H35A       -3.8670   -4.3590    1.4920 ha        1 OOF      0.114250
     54 H36        -4.7620    0.4720   -0.5990 hc        1 OOF      0.139000
     55 H36A       -3.4930   -1.4110    0.5450 ha        1 OOF      0.114250
     56 H37        -4.6880   -2.6390   -0.1570 ha        1 OOF      0.114250
     57 H37A       -5.0970    0.7310   -2.3530 hc        1 OOF      0.139000
     58 N10        -0.2770    3.7230   -1.7220 n         1 OOF     -0.296000
     59 O15        -1.6120    3.3680    0.1410 o         1 OOF     -0.392000
     60 C14        -0.1740    2.5130   -4.8390 c2        1 OOF      0.412000
@<TRIPOS>BOND
     1    1    2 1   
     2    1    4 1   
     3    1    7 1   
     4    2    3 1   
     5    2   11 1   
     6    3    5 1   
     7    4    5 1   
     8    4    8 1   
     9    5    9 1   
    10    5   37 1   
    11    6    7 1   
    12    6   58 1   
    13    6   59 1   
    14    7   15 1   
    15    7   35 1   
    16    8   10 1   
    17    8   36 1   
    18    9   12 1   
    19   10   12 1   
    20   10   21 1   
    21   11   16 1   
    22   11   17 1   
    23   12   22 1   
    24   13   19 1   
    25   13   20 1   
    26   14   60 1   
    27   15   30 1   
    28   15   39 1   
    29   15   51 1   
    30   16   27 1   
    31   16   40 1   
    32   17   28 1   
    33   17   41 1   
    34   18   26 1   
    35   18   44 1   
    36   18   58 1   
    37   19   25 1   
    38   20   60 1   
    39   23   60 1   
    40   24   27 1   
    41   24   28 1   
    42   24   29 1   
    43   25   42 1   
    44   26   43 1   
    45   26   45 1   
    46   27   46 1   
    47   28   47 1   
    48   30   33 1   
    49   30   48 1   
    50   30   49 1   
    51   31   32 1   
    52   31   50 1   
    53   31   53 1   
    54   32   55 1   
    55   32   56 1   
    56   33   34 1   
    57   33   54 1   
    58   33   57 1   
    59   34   52 1   
    60   38   58 1   
@<TRIPOS>SUBSTRUCTURE
     1 OOF         1 TEMP              0 ****  ****    0 ROOT
