@<TRIPOS>MOLECULE
OOF
   60    64     1     0     0
SMALL
bcc


@<TRIPOS>ATOM
      1 N1         -1.5530    0.5160    0.0520 na        1 OOF     -0.146300
      2 C2         -1.4920    1.9000    0.3830 cc        1 OOF      0.463400
      3 N3         -2.3220    2.6560   -0.3670 nd        1 OOF     -0.550100
      4 C4         -2.4860    0.4110   -0.9900 ca        1 OOF     -0.050200
      5 C5         -2.9690    1.7590   -1.2350 ca        1 OOF      0.065400
      6 C6          0.1410   -1.2440   -0.2870 c         1 OOF      0.647100
      7 C7         -0.8460   -0.5500    0.7110 c3        1 OOF     -0.020000
      8 C8         -2.9330   -0.6760   -1.7500 ca        1 OOF     -0.132000
      9 C9         -3.9320    1.9920   -2.2230 ca        1 OOF     -0.094000
     10 C11        -3.8980   -0.4220   -2.7270 ca        1 OOF      0.105900
     11 C12        -0.5870    2.4360    1.4090 ca        1 OOF     -0.118900
     12 C13        -4.3990    0.9020   -2.9570 ca        1 OOF      0.067900
     13 C16         4.8580   -2.2230   -2.2670 ca        1 OOF     -0.129600
     14 O17         7.2260   -2.2890   -2.5660 o         1 OOF     -0.827300
     15 C18        -1.7410   -1.6500    1.3280 c3        1 OOF     -0.070700
     16 C19         0.4730    3.2640    1.0190 ca        1 OOF     -0.091500
     17 C20        -0.8000    2.1590    2.7630 ca        1 OOF     -0.091500
     18 C21         2.5450   -1.2800   -0.9670 ca        1 OOF      0.001600
     19 C22         4.9600   -1.2990   -1.2220 ca        1 OOF     -0.091000
     20 C23         3.5930   -2.6650   -2.6550 ca        1 OOF     -0.091000
     21 F24        -4.3760   -1.4380   -3.4820 f         1 OOF     -0.127900
     22 F25        -5.3400    1.0850   -3.9160 f         1 OOF     -0.135900
     23 O26         5.9700   -3.5740   -3.8950 o         1 OOF     -0.827300
     24 C27         1.1100    3.5180    3.3330 ca        1 OOF      0.030400
     25 C28         3.8270   -0.8280   -0.5720 ca        1 OOF     -0.180000
     26 C29         2.4390   -2.2040   -2.0210 ca        1 OOF     -0.180000
     27 C30         1.3250    3.8030    1.9800 ca        1 OOF     -0.130500
     28 C31         0.0480    2.6980    3.7280 ca        1 OOF     -0.130500
     29 CL32        2.1470    4.1740    4.5080 cl        1 OOF     -0.089400
     30 C33        -0.8590   -2.6410    2.0800 c3        1 OOF     -0.077400
     31 C34        -2.7880   -1.0710    2.2680 c3        1 OOF     -0.077400
     32 C35        -3.6230   -2.1710    2.8930 c3        1 OOF     -0.074900
     33 C36        -1.6910   -3.7410    2.7060 c3        1 OOF     -0.074900
     34 C37        -2.7570   -3.1770    3.6220 c3        1 OOF     -0.078400
     35 H7         -0.2690   -0.0760    1.5640 h1        1 OOF      0.076700
     36 H8         -2.5160   -1.6880   -1.6130 ha        1 OOF      0.192000
     37 H9         -4.3090    3.0050   -2.4210 ha        1 OOF      0.163000
     38 HN10        1.6270   -0.0170    0.3520 hn        1 OOF      0.307500
     39 H18        -2.2590   -2.1970    0.4900 hc        1 OOF      0.084700
     40 H19         0.6300    3.4920   -0.0480 ha        1 OOF      0.154000
     41 H20        -1.6460    1.5240    3.0690 ha        1 OOF      0.154000
     42 H22         5.9660   -0.9560   -0.9270 ha        1 OOF      0.157000
     43 H23         3.5240   -3.3920   -3.4820 ha        1 OOF      0.157000
     44 H28         3.9380   -0.1020    0.2470 ha        1 OOF      0.125500
     45 H29         1.4550   -2.5720   -2.3480 ha        1 OOF      0.125500
     46 H30         2.1620    4.4490    1.6730 ha        1 OOF      0.152500
     47 H31        -0.1210    2.4800    4.7930 ha        1 OOF      0.152500
     48 H33        -0.1170   -3.0960    1.3700 hc        1 OOF      0.046950
     49 H33A       -0.2850   -2.1030    2.8800 hc        1 OOF      0.046950
     50 H34        -2.2780   -0.4860    3.0780 hc        1 OOF      0.046950
     51 H34A       -3.4650   -0.3700    1.7130 hc        1 OOF      0.046950
     52 H35        -4.3580   -1.7170    3.6070 hc        1 OOF      0.043200
     53 H35A       -4.2090   -2.6930    2.0910 hc        1 OOF      0.043200
     54 H36        -2.1750   -4.3480    1.8960 hc        1 OOF      0.043200
     55 H36A       -1.0200   -4.4270    3.2850 hc        1 OOF      0.043200
     56 H37        -2.2700   -2.6830    4.5030 hc        1 OOF      0.036700
     57 H37A       -3.3970   -4.0100    4.0130 hc        1 OOF      0.036700
     58 N10         1.4210   -0.7590   -0.2790 n         1 OOF     -0.438100
     59 O15        -0.2850   -2.1570   -1.0200 o         1 OOF     -0.600100
     60 C14         6.1120   -2.7350   -2.9630 c         1 OOF      0.909200
@<TRIPOS>BOND
     1    1    2 1   
     2    1    4 1   
     3    1    7 1   
     4    2    3 2   
     5    2   11 1   
     6    3    5 1   
     7    4    5 ar  
     8    4    8 ar  
     9    5    9 ar  
    10    6    7 1   
    11    6   58 1   
    12    6   59 2   
    13    7   15 1   
    14    7   35 1   
    15    8   10 ar  
    16    8   36 1   
    17    9   12 ar  
    18    9   37 1   
    19   10   12 ar  
    20   10   21 1   
    21   11   16 ar  
    22   11   17 ar  
    23   12   22 1   
    24   13   19 ar  
    25   13   20 ar  
    26   13   60 1   
    27   14   60 1   
    28   15   30 1   
    29   15   31 1   
    30   15   39 1   
    31   16   27 ar  
    32   16   40 1   
    33   17   28 ar  
    34   17   41 1   
    35   18   25 ar  
    36   18   26 ar  
    37   18   58 1   
    38   19   25 ar  
    39   19   42 1   
    40   20   26 ar  
    41   20   43 1   
    42   23   60 1   
    43   24   27 ar  
    44   24   28 ar  
    45   24   29 1   
    46   25   44 1   
    47   26   45 1   
    48   27   46 1   
    49   28   47 1   
    50   30   33 1   
    51   30   48 1   
    52   30   49 1   
    53   31   32 1   
    54   31   50 1   
    55   31   51 1   
    56   32   34 1   
    57   32   52 1   
    58   32   53 1   
    59   33   34 1   
    60   33   54 1   
    61   33   55 1   
    62   34   56 1   
    63   34   57 1   
    64   38   58 1   
@<TRIPOS>SUBSTRUCTURE
     1 OOF         1 TEMP              0 ****  ****    0 ROOT
