@<TRIPOS>MOLECULE
OOG
   17    16     1     0     0
SMALL
bcc


@<TRIPOS>ATOM
      1 C2          0.0710   -0.2540   -0.0340 c3        1 OOG     -0.182400
      2 C3          1.5280    0.1520   -0.0330 c3        1 OOG     -0.054400
      3 C4          2.1670   -0.0970    1.3170 c3        1 OOG     -0.186400
      4 C6          4.2180    0.0760    2.8240 c         1 OOG      0.842600
      5 O4          4.8060   -1.0310    2.9900 o         1 OOG     -0.839300
      6 O3          4.0950    0.9550    3.7230 o         1 OOG     -0.839300
      7 C5          3.5930    0.3600    1.4520 c         1 OOG      0.475100
      8 C1         -0.5920   -0.0910   -1.4070 c         1 OOG      0.905600
      9 O1         -0.3040   -0.9080   -2.3320 o         1 OOG     -0.870300
     10 O2         -1.4460    0.8360   -1.5590 o         1 OOG     -0.870300
     11 O5          4.2120    0.9230    0.5390 o         1 OOG     -0.599100
     12 H21C       -0.4910    0.3610    0.7150 hc        1 OOG      0.013200
     13 H22C       -0.0160   -1.3290    0.2690 hc        1 OOG      0.013200
     14 H31C        2.0770   -0.4220   -0.8240 hc        1 OOG      0.042200
     15 H32C        1.6210    1.2380   -0.2950 hc        1 OOG      0.042200
     16 H41C        1.5780    0.4250    2.1190 hc        1 OOG      0.052700
     17 H42C        2.1470   -1.1950    1.5510 hc        1 OOG      0.052700
@<TRIPOS>BOND
     1    1    2 1   
     2    1    8 1   
     3    1   12 1   
     4    1   13 1   
     5    2    3 1   
     6    2   14 1   
     7    2   15 1   
     8    3    7 1   
     9    3   16 1   
    10    3   17 1   
    11    4    5 1   
    12    4    6 1   
    13    4    7 1   
    14    7   11 2   
    15    8    9 1   
    16    8   10 1   
@<TRIPOS>SUBSTRUCTURE
     1 OOG         1 TEMP              0 ****  ****    0 ROOT
