@<TRIPOS>MOLECULE
OOK
   60    60     1     0     0
SMALL
bcc


@<TRIPOS>ATOM
      1 N1         -0.2610   -0.0400   -0.1030 na        1 OOK     -0.176000
      2 C2          0.8110   -0.9840   -0.0110 c2        1 OOK      0.049000
      3 N3          1.1680   -1.2430    1.2670 n2        1 OOK     -0.128000
      4 C4         -0.6130    0.2670    1.2220 ca        1 OOK     -0.005000
      5 C5          0.3000   -0.4820    2.0680 ca        1 OOK     -0.068000
      6 C6         -1.1200    1.7340   -1.5630 c2        1 OOK      0.292000
      7 N7         -0.2310    2.1970   -2.5140 n         1 OOK     -0.291000
      8 C8         -0.1850    3.5280   -2.9660 c2        1 OOK     -0.035000
      9 C9         -1.0520    0.2010   -1.2830 c3        1 OOK      0.014000
     10 C10        -1.5750    1.1230    1.7660 ca        1 OOK     -0.136000
     11 C11         1.1140    4.2210   -3.1130 c2        1 OOK     -0.233000
     12 C12        -1.2660    4.2590   -3.3970 c2        1 OOK      0.068000
     13 C13        -0.6400    5.9520   -5.1200 c2        1 OOK     -0.021000
     14 C14         0.2280   -0.3650    3.4610 ca        1 OOK     -0.095000
     15 C15        -0.5370    7.4010   -5.6090 c2        1 OOK      0.347000
     16 C16        -1.6380    1.2190    3.1590 ca        1 OOK      0.073000
     17 C17         1.4780   -1.5300   -1.1900 c2        1 OOK     -0.104000
     18 C18        -0.7440    0.4780    4.0000 ca        1 OOK      0.035000
     19 C19        -1.0020    5.6330   -3.8520 c2        1 OOK     -0.229000
     20 C20         1.1930    5.4460   -3.7180 c1        1 OOK      0.172000
     21 O22        -0.8610    8.3180   -4.8130 o         1 OOK     -0.530000
     22 C23        -2.5020   -0.3520   -1.2400 c3        1 OOK     -0.111000
     23 C24         4.7870    1.6100   -3.5390 c1        1 OOK     -0.223500
     24 C25         2.1310   -2.7070   -1.1580 c2        1 OOK      0.000000
     25 F26        -2.5330    3.8010   -3.3960 f         1 OOK     -0.094000
     26 F27         2.2200    3.5980   -2.6120 f         1 OOK     -0.125000
     27 F28        -2.5580    2.0250    3.7380 f         1 OOK     -0.091000
     28 F29        -0.8530    0.6110    5.3450 f         1 OOK     -0.099000
     29 O30        -0.1710    7.5450   -6.8050 o         1 OOK     -0.530000
     30 C31         3.3670   -3.7140   -3.2110 c1        1 OOK     -0.178000
     31 C32         2.7930   -3.2400   -2.2720 c1        1 OOK     -0.114000
     32 C33         5.5360    0.6960   -3.7250 c1        1 OOK     -0.223500
     33 CL34        4.1290   -4.3450   -4.4600 cl        1 OOK      0.174000
     34 C35        -3.1980   -0.0030   -2.5530 c3        1 OOK     -0.186000
     35 C36        -2.5090   -1.8580   -0.9970 c3        1 OOK     -0.165000
     36 C37        -4.6990   -0.2140   -2.4940 c3        1 OOK     -0.247000
     37 C38        -3.6310   -2.2860   -0.0830 c3        1 OOK     -0.215000
     38 C39        -5.2290   -1.5320   -2.7490 c1        1 OOK     -0.069000
     39 HN7         0.6140    1.6840   -2.6480 hn        1 OOK      0.234000
     40 H9         -0.5380   -0.3220   -2.1460 h1        1 OOK      0.119000
     41 H10        -2.2460    1.7230    1.1280 ha        1 OOK      0.195000
     42 H14         0.9180   -0.9170    4.1140 ha        1 OOK      0.164000
     43 H19        -1.2250    6.4390   -3.1270 ha        1 OOK      0.188000
     44 H20        -0.4550    5.1860   -5.8900 ha        1 OOK      0.119000
     45 H23        -3.0390    0.1720   -0.3980 hc        1 OOK      0.122000
     46 H24         4.1220    2.4250   -3.3740 ha        1 OOK      0.223000
     47 H25         1.4480   -0.9120   -2.1030 ha        1 OOK      0.147000
     48 H32         2.1810   -3.3200   -0.2370 ha        1 OOK      0.164000
     49 H33         6.2000   -0.1130   -3.8900 ha        1 OOK      0.223000
     50 H35        -2.7590   -0.6150   -3.3850 hc        1 OOK      0.096500
     51 H35A       -3.0120    1.0790   -2.7990 hc        1 OOK      0.096500
     52 H36        -2.6040   -2.3960   -1.9790 hc        1 OOK      0.082500
     53 H36A       -1.5390   -2.1990   -0.5470 hc        1 OOK      0.082500
     54 H37        -5.1020    0.1520   -1.5060 hc        1 OOK      0.152500
     55 H37A       -5.1980    0.4380   -3.2790 hc        1 OOK      0.152500
     56 H38        -4.6280   -2.0300   -0.5230 hc        1 OOK      0.079333
     57 H38A       -3.5480   -1.7810    0.9100 hc        1 OOK      0.079333
     58 H39        -3.5920   -3.3900    0.0780 hc        1 OOK      0.079333
     59 H39A       -4.5320   -2.2780   -3.1660 ha        1 OOK      0.032000
     60 O21        -1.9760    2.4370   -1.0030 o         1 OOK     -0.333000
@<TRIPOS>BOND
     1    1    2 1   
     2    1    4 1   
     3    1    9 1   
     4    2    3 1   
     5    2   17 1   
     6    3    5 1   
     7    4    5 1   
     8    4   10 1   
     9    5   14 1   
    10    6    7 1   
    11    6    9 1   
    12    6   60 1   
    13    7    8 1   
    14    7   39 1   
    15    8   11 1   
    16    8   12 1   
    17    9   22 1   
    18    9   40 1   
    19   10   16 1   
    20   10   41 1   
    21   11   20 1   
    22   11   26 1   
    23   12   19 1   
    24   12   25 1   
    25   13   15 1   
    26   13   19 1   
    27   13   44 1   
    28   14   18 1   
    29   14   42 1   
    30   15   21 1   
    31   15   29 1   
    32   16   18 1   
    33   16   27 1   
    34   17   24 1   
    35   17   47 1   
    36   18   28 1   
    37   19   43 1   
    38   22   34 1   
    39   22   35 1   
    40   22   45 1   
    41   23   32 1   
    42   23   46 1   
    43   24   31 1   
    44   24   48 1   
    45   30   31 1   
    46   30   33 1   
    47   32   49 1   
    48   34   36 1   
    49   34   50 1   
    50   34   51 1   
    51   35   37 1   
    52   35   52 1   
    53   35   53 1   
    54   36   38 1   
    55   36   54 1   
    56   36   55 1   
    57   37   56 1   
    58   37   57 1   
    59   37   58 1   
    60   38   59 1   
@<TRIPOS>SUBSTRUCTURE
     1 OOK         1 TEMP              0 ****  ****    0 ROOT
