@<TRIPOS>MOLECULE
OOK
   60    54     1     0     0
SMALL
bcc


@<TRIPOS>ATOM
      1 N1          0.2500   -0.6910    1.5020 n2        1 OOK     -0.147000
      2 C2          1.2920   -1.5140    1.7110 c2        1 OOK      0.055000
      3 N3          1.7970   -1.2560    2.9870 n2        1 OOK     -0.147000
      4 C4          0.0860    0.1000    2.6540 c1        1 OOK     -0.038500
      5 C5          1.0390   -0.2590    3.5480 c1        1 OOK     -0.038500
      6 C6          0.0770    0.5380   -0.5170 c1        1 OOK      0.295000
      7 N7          0.6010    0.5130   -1.9770 n2        1 OOK     -0.297000
      8 C8          1.0270    1.8470   -2.6620 c2        1 OOK     -0.072000
      9 C9         -0.2250   -0.7630    0.2050 c2        1 OOK      0.012000
     10 C10        -0.8530    1.1460    2.9840 c1        1 OOK     -0.113000
     11 C11         1.5470    1.7120   -3.9490 c1        1 OOK      0.051000
     12 C12         0.7830    3.1190   -2.1370 c2        1 OOK      0.099000
     13 C13         1.5750    4.1340   -4.1790 c1        1 OOK     -0.064000
     14 C14         1.1140    0.4020    4.8250 c1        1 OOK     -0.113000
     15 C15         2.1100    5.3470   -4.9940 c1        1 OOK      0.361000
     16 C16        -0.7780    1.7830    4.2200 c1        1 OOK      0.051500
     17 C17         2.1630   -2.4660    1.1560 c1        1 OOK     -0.035000
     18 C18         0.2050    1.4110    5.1420 c1        1 OOK      0.051500
     19 C19         1.0590    4.2600   -2.9010 c2        1 OOK     -0.142000
     20 C20         1.8240    2.8550   -4.7140 c1        1 OOK     -0.134000
     21 O21         0.0080    1.5630    0.0650 o         1 OOK     -0.333000
     22 O22         3.2550    5.8450   -4.7230 o         1 OOK     -0.547000
     23 C23        -1.9190   -1.0490    0.2330 c3        1 OOK     -0.111000
     24 C24         3.5380   -2.5360    0.9690 c1        1 OOK     -0.114000
     25 C25         1.4180   -3.6450    1.3870 c1        1 OOK     -0.086000
     26 F26         0.3120    3.2460   -0.9280 f         1 OOK     -0.114000
     27 F27         1.8740    0.4740   -4.4280 f         1 OOK     -0.134000
     28 F28        -1.6150    2.7980    4.5500 f         1 OOK     -0.097000
     29 F29        -0.1780    2.0000    6.2610 f         1 OOK     -0.097000
     30 O30         1.3570    5.8950   -5.9210 o         1 OOK     -0.547000
     31 C31         3.4490   -4.9480    1.2400 c1        1 OOK     -0.050000
     32 C32         2.0630   -4.8770    1.4280 c1        1 OOK     -0.134000
     33 C33         4.1870   -3.7770    1.0100 c1        1 OOK     -0.114000
     34 CL34        4.2540   -6.5230    1.1910 cl        1 OOK     -0.013000
     35 C35        -2.7220    0.2180   -0.6760 c3        1 OOK     -0.155500
     36 C36        -1.9670   -1.2790    0.1330 c3        1 OOK     -0.155500
     37 C37        -4.3930   -0.1120   -0.9280 c3        1 OOK     -0.151500
     38 C38        -3.5690   -1.5300   -0.0340 c3        1 OOK     -0.151500
     39 C39        -4.4160   -0.1240   -0.8870 c3        1 OOK     -0.157000
     40 HN7         0.5600   -0.2560   -2.4610 hn        1 OOK      0.224000
     41 H9          0.2180   -1.5040   -0.2620 ha        1 OOK      0.120000
     42 H10        -1.4470    1.4630    2.3340 ha        1 OOK      0.179000
     43 H14         1.8070    0.1430    5.4740 ha        1 OOK      0.179000
     44 H19         0.8270    5.1800   -2.5390 ha        1 OOK      0.179000
     45 H20         2.2650    2.7710   -5.5340 ha        1 OOK      0.178000
     46 H23        -2.2490   -1.0390    1.2080 hc        1 OOK      0.121000
     47 H24         4.0780   -1.6720    0.8010 ha        1 OOK      0.161500
     48 H25         0.4300   -3.5950    1.5090 ha        1 OOK      0.151000
     49 H32         1.5320   -5.7240    1.5950 ha        1 OOK      0.148000
     50 H33         5.1410   -3.8260    0.8970 ha        1 OOK      0.161500
     51 H35        -2.2250    0.3160   -1.6730 hc        1 OOK      0.087750
     52 H35A       -2.6260    1.0620   -0.1940 hc        1 OOK      0.087750
     53 H36        -1.4760   -1.3530   -0.8640 hc        1 OOK      0.087750
     54 H36A       -1.5670   -2.0040    0.7670 hc        1 OOK      0.087750
     55 H37        -4.4900   -0.8990   -1.6100 hc        1 OOK      0.080000
     56 H37A       -4.8780    0.7810   -1.3500 hc        1 OOK      0.080000
     57 H38        -3.7240   -2.3920   -0.5720 hc        1 OOK      0.080000
     58 H38A       -4.0050   -1.6540    0.9430 hc        1 OOK      0.080000
     59 H39        -5.3730   -0.3990   -1.1000 hc        1 OOK      0.078000
     60 H39A       -4.4260    0.7440   -0.2100 hc        1 OOK      0.078000
@<TRIPOS>BOND
     1    1    2 1   
     2    1    4 1   
     3    2    3 1   
     4    2   17 1   
     5    3    5 1   
     6    4   10 1   
     7    5   14 1   
     8    6    9 1   
     9    6   21 1   
    10    7    8 1   
    11    7   40 1   
    12    8   11 1   
    13    8   12 1   
    14    9   23 1   
    15    9   41 1   
    16   10   42 1   
    17   11   27 1   
    18   12   19 1   
    19   12   26 1   
    20   13   19 1   
    21   13   20 1   
    22   14   43 1   
    23   15   22 1   
    24   15   30 1   
    25   16   18 1   
    26   16   28 1   
    27   17   25 1   
    28   18   29 1   
    29   19   44 1   
    30   20   45 1   
    31   23   35 1   
    32   23   36 1   
    33   23   46 1   
    34   24   33 1   
    35   24   47 1   
    36   25   48 1   
    37   31   32 1   
    38   31   34 1   
    39   32   49 1   
    40   33   50 1   
    41   35   37 1   
    42   35   51 1   
    43   35   52 1   
    44   36   38 1   
    45   36   53 1   
    46   36   54 1   
    47   37   39 1   
    48   37   55 1   
    49   37   56 1   
    50   38   39 1   
    51   38   57 1   
    52   38   58 1   
    53   39   59 1   
    54   39   60 1   
@<TRIPOS>SUBSTRUCTURE
     1 OOK         1 TEMP              0 ****  ****    0 ROOT
