@<TRIPOS>MOLECULE
OOK
   61    62     1     0     0
SMALL
bcc


@<TRIPOS>ATOM
      1 N1         -0.2460    0.7740    0.4030 na        1 OOK     -0.193000
      2 C2          0.9730    0.0460    0.6150 c2        1 OOK      0.069000
      3 N3          1.3150   -0.0190    1.9180 n2        1 OOK     -0.121000
      4 C4         -0.6970    1.1470    1.6840 ca        1 OOK     -0.012000
      5 C5          0.2970    0.6560    2.6200 ca        1 OOK     -0.060000
      6 C6         -1.3190    2.1680   -1.2700 c2        1 OOK      0.316000
      7 N7         -0.8070    1.6010   -7.9280 n3        1 OOK     -0.315000
      8 C8         -0.5700    2.2650   -6.7780 c2        1 OOK      0.161000
      9 C9         -1.0260    0.7370   -0.8040 c3        1 OOK      0.050000
     10 C10        -1.8050    1.8790    2.1140 ca        1 OOK     -0.145000
     11 C11         0.5910    2.0490   -5.9740 c2        1 OOK     -0.105000
     12 C12        -1.5440    3.2670   -6.2840 c2        1 OOK      0.018000
     13 C13        -0.0790    3.7980   -4.3620 c3        1 OOK     -0.097000
     14 C14         0.1550    0.8970    3.9900 ca        1 OOK     -0.089000
     15 C15        -0.3920    3.7030   -2.8870 c2        1 OOK      0.367000
     16 C16        -1.9350    2.1040    3.4890 ca        1 OOK      0.077000
     17 C17         1.7630   -0.4870   -0.4910 c2        1 OOK     -0.124000
     18 C18        -0.9640    1.6130    4.4200 ca        1 OOK      0.042000
     19 C19        -1.3320    3.9670   -5.1410 c2        1 OOK     -0.128000
     20 C20         0.8320    2.7340   -4.7930 c1        1 OOK     -0.144000
     21 O22        -0.3520    4.5980   -2.0550 o         1 OOK     -0.275000
     22 C23        -2.3680   -0.0400   -0.7080 c3        1 OOK     -0.116000
     23 C24         4.8400    2.0500   -2.8790 c1        1 OOK     -0.239500
     24 C25         2.5790   -1.5460   -0.3310 c2        1 OOK      0.016000
     25 F26        -2.6710    3.4580   -7.0200 f         1 OOK     -0.101000
     26 F27         1.4850    1.1090   -6.3950 f         1 OOK     -0.104000
     27 F28        -2.9970    2.8010    3.9560 f         1 OOK     -0.089000
     28 F29        -1.1430    1.8600    5.7400 f         1 OOK     -0.092000
     29 O30        -0.7140    2.4220   -2.4870 os        1 OOK     -0.302000
     30 C31         4.0500   -2.5230   -2.2380 c1        1 OOK     -0.164000
     31 C32         3.3650   -2.0640   -1.3670 c1        1 OOK     -0.125000
     32 C33         3.7740    2.1660   -3.4100 c1        1 OOK     -0.239500
     33 CL34        4.9620   -3.1320   -3.3930 cl        1 OOK      0.181000
     34 C35        -3.1090    0.0860   -2.0350 c3        1 OOK     -0.185000
     35 C36        -2.1160   -1.5020   -0.3520 c3        1 OOK     -0.163000
     36 C37        -4.5590   -0.3500   -1.9440 c3        1 OOK     -0.249000
     37 C38        -3.1550   -2.0480    0.5950 c3        1 OOK     -0.216000
     38 C39        -4.8790   -1.7510   -2.0970 c1        1 OOK     -0.055000
     39 HN7        -0.1490    0.9300   -8.2510 hn        1 OOK      0.255500
     40 H9         -0.3990    0.2380   -1.6070 h1        1 OOK      0.150000
     41 H10        -2.5390    2.2970    1.4070 ha        1 OOK      0.178000
     42 H14         0.9030    0.5380    4.7120 ha        1 OOK      0.171000
     43 H19        -2.0740    4.6980   -4.7780 ha        1 OOK      0.170000
     44 H20         0.5330    4.7590   -4.4890 hc        1 OOK      0.201000
     45 H23        -2.9870    0.4420    0.1020 hc        1 OOK      0.118000
     46 H24         5.7820    1.9460   -2.4050 ha        1 OOK      0.233500
     47 H25         1.6900    0.0490   -1.4530 ha        1 OOK      0.160000
     48 H32         2.6740   -2.0670    0.6420 ha        1 OOK      0.163000
     49 H33         2.8190    2.2740   -3.8870 ha        1 OOK      0.233500
     50 H35        -2.5780   -0.5170   -2.8190 hc        1 OOK      0.086500
     51 H35A       -3.0870    1.1570   -2.3760 hc        1 OOK      0.086500
     52 H36        -2.1040   -2.1190   -1.2910 hc        1 OOK      0.089000
     53 H36A       -1.1060   -1.6300    0.1190 hc        1 OOK      0.089000
     54 H37        -5.0110    0.0050   -0.9720 hc        1 OOK      0.150000
     55 H37A       -5.1580    0.1630   -2.7590 hc        1 OOK      0.150000
     56 H38        -4.1780   -1.9990    0.1450 hc        1 OOK      0.082667
     57 H38A       -3.1660   -1.4690    1.5500 hc        1 OOK      0.082667
     58 H39        -2.9290   -3.1160    0.8340 hc        1 OOK      0.082667
     59 H39A       -4.0650   -2.4210   -2.4140 ha        1 OOK      0.039000
     60 H72        -1.6290    1.7730   -8.4570 hn        1 OOK      0.255500
     61 O21        -2.0390    3.0230   -0.7760 o         1 OOK     -0.277000
@<TRIPOS>BOND
     1    1    2 1   
     2    1    4 1   
     3    1    9 1   
     4    2    3 1   
     5    2   17 1   
     6    3    5 1   
     7    4    5 1   
     8    4   10 1   
     9    5   14 1   
    10    6    9 1   
    11    6   29 1   
    12    6   61 1   
    13    7    8 1   
    14    7   39 1   
    15    7   60 1   
    16    8   11 1   
    17    8   12 1   
    18    9   22 1   
    19    9   40 1   
    20   10   16 1   
    21   10   41 1   
    22   11   20 1   
    23   11   26 1   
    24   12   19 1   
    25   12   25 1   
    26   13   15 1   
    27   13   19 1   
    28   13   20 1   
    29   13   44 1   
    30   14   18 1   
    31   14   42 1   
    32   15   21 1   
    33   15   29 1   
    34   16   18 1   
    35   16   27 1   
    36   17   24 1   
    37   17   47 1   
    38   18   28 1   
    39   19   43 1   
    40   22   34 1   
    41   22   35 1   
    42   22   45 1   
    43   23   32 1   
    44   23   46 1   
    45   24   31 1   
    46   24   48 1   
    47   30   31 1   
    48   30   33 1   
    49   32   49 1   
    50   34   36 1   
    51   34   50 1   
    52   34   51 1   
    53   35   37 1   
    54   35   52 1   
    55   35   53 1   
    56   36   38 1   
    57   36   54 1   
    58   36   55 1   
    59   37   56 1   
    60   37   57 1   
    61   37   58 1   
    62   38   59 1   
@<TRIPOS>SUBSTRUCTURE
     1 OOK         1 TEMP              0 ****  ****    0 ROOT
