@<TRIPOS>MOLECULE
OOK
   60    64     1     0     0
SMALL
bcc


@<TRIPOS>ATOM
      1 N1          1.7350    0.6870    0.0150 na        1 OOK     -0.147300
      2 C2          1.6650    2.0960   -0.1800 cc        1 OOK      0.464400
      3 N3          2.5230    2.7790    0.6070 nd        1 OOK     -0.549100
      4 C4          2.7080    0.4840    1.0050 ca        1 OOK     -0.049200
      5 C5          3.2020    1.8030    1.3600 ca        1 OOK      0.065400
      6 C6          0.0540   -1.1110    0.2040 c         1 OOK      0.649100
      7 N7         -1.2840   -0.7950    0.0940 n         1 OOK     -0.443100
      8 C8         -2.3110   -1.4410    0.8180 ca        1 OOK     -0.075400
      9 C9          1.0110   -0.3080   -0.7330 c3        1 OOK     -0.016000
     10 C10         3.1840   -0.6690    1.6390 ca        1 OOK     -0.131000
     11 C11        -3.1670   -0.7000    1.6830 ca        1 OOK      0.109900
     12 C12        -2.5760   -2.8290    0.6620 ca        1 OOK      0.109900
     13 C13        -4.4740   -2.6820    2.1730 ca        1 OOK     -0.084600
     14 C14         4.2010    1.9440    2.3290 ca        1 OOK     -0.094000
     15 C15        -5.6550   -3.3450    2.8860 c         1 OOK      0.912200
     16 C16         4.1860   -0.5080    2.5980 ca        1 OOK      0.104900
     17 C17         0.7260    2.7250   -1.1190 ca        1 OOK     -0.119900
     18 C18         4.6960    0.7890    2.9370 ca        1 OOK      0.067900
     19 C19        -3.6450   -3.4340    1.3450 ca        1 OOK     -0.138500
     20 C20        -4.2360   -1.3180    2.3430 ca        1 OOK     -0.138500
     21 O22        -5.8340   -4.5770    2.6880 o         1 OOK     -0.813300
     22 C23         1.8890   -1.3390   -1.4800 c3        1 OOK     -0.070700
     23 C24        -0.3340    3.4890   -0.6170 ca        1 OOK     -0.090500
     24 C25         0.9100    2.5990   -2.5000 ca        1 OOK     -0.090500
     25 F26        -1.8000   -3.5830   -0.1570 f         1 OOK     -0.158900
     26 F27        -2.9570    0.6350    1.8450 f         1 OOK     -0.158900
     27 F28         4.6920   -1.5910    3.2330 f         1 OOK     -0.127900
     28 F29         5.6720    0.8820    3.8730 f         1 OOK     -0.135900
     29 O30        -6.3740   -2.6120    3.6180 o         1 OOK     -0.813300
     30 C31        -1.0320    3.9810   -2.8740 ca        1 OOK      0.030400
     31 C32         0.0310    3.2250   -3.3810 ca        1 OOK     -0.130000
     32 C33        -1.2180    4.1150   -1.4940 ca        1 OOK     -0.130000
     33 CL34       -2.1060    4.7450   -3.9470 cl        1 OOK     -0.091400
     34 C35         0.9850   -2.2850   -2.2640 c3        1 OOK     -0.079900
     35 C36         2.8750   -0.6630   -2.4200 c3        1 OOK     -0.079900
     36 C37         1.8030   -3.3120   -3.0170 c3        1 OOK     -0.074400
     37 C38         3.6960   -1.6910   -3.1730 c3        1 OOK     -0.074400
     38 C39         2.8110   -2.6550   -3.9370 c3        1 OOK     -0.079400
     39 HN7        -1.5260    0.1010   -0.2650 hn        1 OOK      0.315500
     40 H9          0.4130    0.2520   -1.5170 h1        1 OOK      0.081700
     41 H10         2.7620   -1.6650    1.4230 ha        1 OOK      0.193000
     42 H14         4.5860    2.9340    2.6100 ha        1 OOK      0.163000
     43 H19        -3.8450   -4.5120    1.2270 ha        1 OOK      0.178000
     44 H20        -4.9020   -0.7390    3.0050 ha        1 OOK      0.178000
     45 H23         2.4590   -1.9400   -0.7160 hc        1 OOK      0.081700
     46 H24        -0.4690    3.5960    0.4720 ha        1 OOK      0.154500
     47 H25         1.7550    2.0120   -2.8920 ha        1 OOK      0.154500
     48 H32         0.1750    3.1260   -4.4670 ha        1 OOK      0.152500
     49 H33        -2.0560    4.7090   -1.0990 ha        1 OOK      0.152500
     50 H35         0.2830   -2.8120   -1.5600 hc        1 OOK      0.049200
     51 H35A        0.3630   -1.6950   -2.9880 hc        1 OOK      0.049200
     52 H36         2.3130   -0.0270   -3.1540 hc        1 OOK      0.049200
     53 H36A        3.5660    0.0060   -1.8450 hc        1 OOK      0.049200
     54 H37         2.3380   -3.9720   -2.2840 hc        1 OOK      0.043450
     55 H37A        1.1150   -3.9640   -3.6160 hc        1 OOK      0.043450
     56 H38         4.3850   -1.1660   -3.8850 hc        1 OOK      0.043450
     57 H38A        4.3320   -2.2630   -2.4480 hc        1 OOK      0.043450
     58 H39         3.4440   -3.4400   -4.4260 hc        1 OOK      0.036200
     59 H39A        2.2710   -2.1020   -4.7500 hc        1 OOK      0.036200
     60 O21         0.5090   -2.0140    0.9260 o         1 OOK     -0.575100
@<TRIPOS>BOND
     1    1    2 1   
     2    1    4 1   
     3    1    9 1   
     4    2    3 2   
     5    2   17 1   
     6    3    5 1   
     7    4    5 ar  
     8    4   10 ar  
     9    5   14 ar  
    10    6    7 1   
    11    6    9 1   
    12    6   60 2   
    13    7    8 1   
    14    7   39 1   
    15    8   11 ar  
    16    8   12 ar  
    17    9   22 1   
    18    9   40 1   
    19   10   16 ar  
    20   10   41 1   
    21   11   20 ar  
    22   11   26 1   
    23   12   19 ar  
    24   12   25 1   
    25   13   15 1   
    26   13   19 ar  
    27   13   20 ar  
    28   14   18 ar  
    29   14   42 1   
    30   15   21 1   
    31   15   29 1   
    32   16   18 ar  
    33   16   27 1   
    34   17   23 ar  
    35   17   24 ar  
    36   18   28 1   
    37   19   43 1   
    38   20   44 1   
    39   22   34 1   
    40   22   35 1   
    41   22   45 1   
    42   23   32 ar  
    43   23   46 1   
    44   24   31 ar  
    45   24   47 1   
    46   30   31 ar  
    47   30   32 ar  
    48   30   33 1   
    49   31   48 1   
    50   32   49 1   
    51   34   36 1   
    52   34   50 1   
    53   34   51 1   
    54   35   37 1   
    55   35   52 1   
    56   35   53 1   
    57   36   38 1   
    58   36   54 1   
    59   36   55 1   
    60   37   38 1   
    61   37   56 1   
    62   37   57 1   
    63   38   58 1   
    64   38   59 1   
@<TRIPOS>SUBSTRUCTURE
     1 OOK         1 TEMP              0 ****  ****    0 ROOT
