@<TRIPOS>MOLECULE
OOK
   60    61     1     0     0
SMALL
bcc


@<TRIPOS>ATOM
      1 N1          0.0040    0.1410    0.1220 na        1 OOK     -0.102000
      2 C2          1.2760   -0.4750    0.3070 c2        1 OOK     -0.043000
      3 N3          1.7270   -0.3480    1.5940 n2        1 OOK     -0.068000
      4 C4         -0.3610    0.6640    1.3540 ca        1 OOK     -0.049000
      5 C5          0.7400    0.3330    2.2590 ca        1 OOK     -0.088000
      6 C6         -0.8290    1.6580   -1.6360 c2        1 OOK      0.290000
      7 N7         -0.0130    1.9650   -2.7060 ns        1 OOK     -0.293000
      8 C8         -0.0180    3.2020   -3.3730 c2        1 OOK     -0.040000
      9 C9         -0.7330    0.1900   -1.1180 c3        1 OOK      0.000000
     10 C10        -1.4960    1.4910    1.7520 ca        1 OOK     -0.126000
     11 C11         1.2560    3.8690   -3.7220 c2        1 OOK     -0.236000
     12 C12        -1.1390    3.8650   -3.8130 c2        1 OOK      0.073000
     13 C13        -0.7190    6.3300   -3.9870 c2        1 OOK     -0.017000
     14 C14         0.5350    0.9950    3.5260 ca        1 OOK     -0.127000
     15 C15        -0.6670    7.6140   -4.8240 c2        1 OOK      0.346000
     16 C16        -1.6910    1.7190    3.0920 ca        1 OOK      0.084000
     17 C17         2.0320   -1.1320   -0.7510 c2        1 OOK     -0.066000
     18 C18        -0.7990    0.8280    3.9110 ca        1 OOK      0.032000
     19 C19        -0.9260    5.1150   -4.5560 c2        1 OOK     -0.232000
     20 C20         1.2670    5.1150   -4.2820 c1        1 OOK      0.174000
     21 O22        -0.8850    7.5190   -6.0590 o         1 OOK     -0.529500
     22 C23        -2.1680   -0.3980   -1.0440 c3        1 OOK     -0.104000
     23 C24         2.8360    0.0750   -4.2770 c1        1 OOK     -0.134000
     24 C25         1.5520   -2.1280   -1.5230 c2        1 OOK     -0.199000
     25 F26        -2.3970    3.4210   -3.6250 f         1 OOK     -0.093000
     26 F27         2.4120    3.1820   -3.4800 f         1 OOK     -0.127000
     27 F28        -2.6030    2.5390    3.6220 f         1 OOK     -0.070000
     28 F29        -1.3080   -0.3960    4.1600 f         1 OOK     -0.090000
     29 O30        -0.4460    8.6750   -4.1840 o         1 OOK     -0.529500
     30 C31         3.0900   -2.4390   -3.5490 c3        1 OOK      0.030000
     31 C32         2.2920   -2.9120   -2.4240 c1        1 OOK     -0.007000
     32 C33         2.9500   -1.0720   -3.9540 c1        1 OOK     -0.249000
     33 Cl34        2.7580   -3.5110   -4.9280 cl        1 OOK     -0.060000
     34 C35        -2.8260   -0.2460   -2.4130 c3        1 OOK     -0.188000
     35 C36        -2.1360   -1.8570   -0.6020 c3        1 OOK     -0.167000
     36 C37        -4.3160   -0.5280   -2.3870 c3        1 OOK     -0.247000
     37 C38        -3.2980   -2.2140    0.2930 c3        1 OOK     -0.215000
     38 C39        -4.7700   -1.8920   -2.5110 c1        1 OOK     -0.067000
     39 HN7         0.8010    1.4090   -2.8590 hn        1 OOK      0.238000
     40 H9         -0.1610   -0.4390   -1.8670 h1        1 OOK      0.127000
     41 H10        -2.1140    1.9670    0.9730 ha        1 OOK      0.200000
     42 H14         1.1460    1.8570    3.8090 ha        1 OOK      0.171000
     43 H19        -1.0610    5.0500   -5.6530 ha        1 OOK      0.185000
     44 H20        -0.6360    6.4720   -2.8980 ha        1 OOK      0.127000
     45 H23        -2.7490    0.2130   -0.2960 hc        1 OOK      0.122000
     46 H24         2.7440    1.1030   -4.5470 ha        1 OOK      0.250000
     47 H25         3.0890   -0.8130   -0.8110 ha        1 OOK      0.157000
     48 H32         0.5110   -2.5000   -1.3890 ha        1 OOK      0.175000
     49 H33         4.1700   -2.6520   -3.2660 h1        1 OOK      0.172000
     50 H35        -2.3220   -0.9260   -3.1490 hc        1 OOK      0.097000
     51 H35A       -2.6850    0.8090   -2.7800 hc        1 OOK      0.097000
     52 H36        -2.1410   -2.5230   -1.5070 hc        1 OOK      0.083500
     53 H36A       -1.1890   -2.0890   -0.0450 hc        1 OOK      0.083500
     54 H37        -4.7790   -0.0750   -1.4630 hc        1 OOK      0.152000
     55 H37A       -4.8110    0.0040   -3.2590 hc        1 OOK      0.152000
     56 H38        -4.2740   -2.0740   -0.2340 hc        1 OOK      0.081000
     57 H38A       -3.3010   -1.5770    1.2100 hc        1 OOK      0.081000
     58 H39        -3.2210   -3.2840    0.6070 hc        1 OOK      0.081000
     59 H39A       -4.0210   -2.6430   -2.8110 ha        1 OOK      0.034000
     60 O21        -1.6520    2.4430   -1.1380 o         1 OOK     -0.335000
@<TRIPOS>BOND
     1    1    2 1   
     2    1    4 1   
     3    1    9 1   
     4    2    3 1   
     5    2   17 1   
     6    3    5 1   
     7    4    5 1   
     8    4   10 1   
     9    5   14 1   
    10    6    7 1   
    11    6    9 1   
    12    6   60 1   
    13    7    8 1   
    14    7   39 1   
    15    8   11 1   
    16    8   12 1   
    17    9   22 1   
    18    9   40 1   
    19   10   16 1   
    20   10   41 1   
    21   11   20 1   
    22   11   26 1   
    23   12   19 1   
    24   12   25 1   
    25   13   15 1   
    26   13   19 1   
    27   13   44 1   
    28   14   18 1   
    29   14   42 1   
    30   15   21 1   
    31   15   29 1   
    32   16   18 1   
    33   16   27 1   
    34   17   24 1   
    35   17   47 1   
    36   18   28 1   
    37   19   43 1   
    38   22   34 1   
    39   22   35 1   
    40   22   45 1   
    41   23   32 1   
    42   23   46 1   
    43   24   31 1   
    44   24   48 1   
    45   30   31 1   
    46   30   32 1   
    47   30   33 1   
    48   30   49 1   
    49   34   36 1   
    50   34   50 1   
    51   34   51 1   
    52   35   37 1   
    53   35   52 1   
    54   35   53 1   
    55   36   38 1   
    56   36   54 1   
    57   36   55 1   
    58   37   56 1   
    59   37   57 1   
    60   37   58 1   
    61   38   59 1   
@<TRIPOS>SUBSTRUCTURE
     1 OOK         1 TEMP              0 ****  ****    0 ROOT
