@<TRIPOS>MOLECULE
OP0
   41    41     1     0     0
SMALL
bcc


@<TRIPOS>ATOM
      1 C1         -1.0710    3.4020    0.4070 c         1 OP0      0.630900
      2 O8         -0.5160    4.4760    0.6400 o         1 OP0     -0.493100
      3 N14        -0.5890    2.1890    0.9590 n         1 OP0     -0.461800
      4 C2         -1.4750    1.0720    1.2020 c3        1 OP0      0.015700
      5 C3         -2.3600    0.6770    0.0250 c         1 OP0      0.570100
      6 N15        -2.5720   -0.8470   -0.0380 n4        1 OP0     -0.457300
      7 O9         -2.9300    1.3320   -0.8250 o         1 OP0     -0.420100
      8 C7          0.4260    2.2550    2.0030 c3        1 OP0      0.055000
      9 C6         -0.0900    1.9070    3.4280 c3        1 OP0      0.097500
     10 C5         -1.6130    2.0130    3.5250 c3        1 OP0     -0.098400
     11 C4         -2.3610    1.2390    2.4540 c3        1 OP0     -0.113400
     12 N16         0.4300    0.5690    3.9380 n4        1 OP0     -0.445500
     13 S17        -0.7440   -1.9540    3.3210 s6        1 OP0      1.749300
     14 O10         0.2740   -0.4140    3.0730 os        1 OP0     -0.454000
     15 O13        -1.3540   -1.4580    4.4430 o         1 OP0     -0.711200
     16 O12        -1.4720   -1.7770    2.1370 o         1 OP0     -0.711200
     17 O11         0.2260   -2.8930    3.3360 o         1 OP0     -0.711200
     18 N21        -4.4280   -2.6090   -3.4950 n4        1 OP0     -0.839600
     19 C22        -4.7210   -1.2640   -2.9290 c3        1 OP0      0.095800
     20 C23        -4.5280   -1.1610   -1.4170 c3        1 OP0      0.080400
     21 O24        -3.0890   -1.2840   -1.2140 os        1 OP0     -0.245100
     22 H1         -1.9210    3.2810   -0.3010 h5        1 OP0      0.062200
     23 H2         -0.7700    0.1870    1.3910 h1        1 OP0      0.153700
     24 H3         -1.6370   -1.3310    0.0580 hn        1 OP0      0.519800
     25 H4          0.8410    3.3070    2.0320 h1        1 OP0      0.116700
     26 H5          1.2600    1.5550    1.7060 h1        1 OP0      0.116700
     27 H6          0.3600    2.6590    4.1500 hx        1 OP0      0.118700
     28 H7         -1.8600    3.1090    3.4440 hc        1 OP0      0.102700
     29 H8         -1.9730    1.6740    4.5350 hc        1 OP0      0.102700
     30 H9         -2.6200    0.2140    2.8370 hc        1 OP0      0.082200
     31 H10        -3.3120    1.7800    2.2120 hc        1 OP0      0.082200
     32 H11         1.4480    0.6690    4.1250 hn        1 OP0      0.461800
     33 H12        -3.4520   -2.8710   -3.3110 hn        1 OP0      0.477800
     34 H13        -4.5800   -2.5930   -4.5140 hn        1 OP0      0.477800
     35 H15        -5.8000   -1.0040   -3.1610 hx        1 OP0      0.149700
     36 H16        -4.0480   -0.5150   -3.4480 hx        1 OP0      0.149700
     37 H17        -4.9010   -0.1530   -1.0850 h1        1 OP0      0.116700
     38 H18        -5.0360   -1.9820   -0.8440 h1        1 OP0      0.116700
     39 H152       -3.1200   -1.1650    0.7900 hn        1 OP0      0.519800
     40 H162       -0.0690    0.3460    4.8290 hn        1 OP0      0.461800
     41 H213       -5.0430   -3.3220   -3.0830 hn        1 OP0      0.477800
@<TRIPOS>BOND
     1    1    2 2   
     2    1    3 1   
     3    1   22 1   
     4    3    4 1   
     5    3    8 1   
     6    4    5 1   
     7    4   11 1   
     8    4   23 1   
     9    5    6 1   
    10    5    7 2   
    11    6   21 1   
    12    6   24 1   
    13    6   39 1   
    14    8    9 1   
    15    8   25 1   
    16    8   26 1   
    17    9   10 1   
    18    9   12 1   
    19    9   27 1   
    20   10   11 1   
    21   10   28 1   
    22   10   29 1   
    23   11   30 1   
    24   11   31 1   
    25   12   14 1   
    26   12   32 1   
    27   12   40 1   
    28   13   14 1   
    29   13   15 1   
    30   13   16 1   
    31   13   17 1   
    32   18   19 1   
    33   18   33 1   
    34   18   34 1   
    35   18   41 1   
    36   19   20 1   
    37   19   35 1   
    38   19   36 1   
    39   20   21 1   
    40   20   37 1   
    41   20   38 1   
@<TRIPOS>SUBSTRUCTURE
     1 OP0         1 TEMP              0 ****  ****    0 ROOT
