@<TRIPOS>MOLECULE
OP0
   41    41     1     0     0
SMALL
bcc


@<TRIPOS>ATOM
      1 C1         -1.1430    3.4310    0.4790 c         1 OP0      0.630900
      2 O8         -0.6100    4.5100    0.7340 o         1 OP0     -0.493100
      3 N14        -0.6300    2.2160    0.9970 n         1 OP0     -0.461800
      4 C2         -1.4900    1.0740    1.2190 c3        1 OP0      0.015700
      5 C3         -2.3760    0.6880    0.0400 c         1 OP0      0.570100
      6 N15        -2.5550   -0.8380   -0.0590 ny        1 OP0     -0.457300
      7 O9         -2.9670    1.3510   -0.7890 o         1 OP0     -0.420100
      8 C7          0.3920    2.2790    2.0340 c3        1 OP0      0.055000
      9 C6         -0.1030    1.8840    3.4540 c3        1 OP0      0.097500
     10 C5         -1.6270    1.9540    3.5660 c3        1 OP0     -0.098400
     11 C4         -2.3680    1.1900    2.4820 c3        1 OP0     -0.113400
     12 N16         0.4500    0.5450    3.9260 ny        1 OP0     -0.445500
     13 S17        -0.6740   -1.9870    3.2570 s6        1 OP0      1.749300
     14 O10         0.3080   -0.4190    3.0390 os        1 OP0     -0.454000
     15 O13        -1.2850   -1.5320    4.3950 o         1 OP0     -0.711200
     16 O12        -1.4160   -1.7970    2.0830 o         1 OP0     -0.711200
     17 O11         0.3160   -2.9040    3.2410 o         1 OP0     -0.711200
     18 N21        -4.4030   -2.5570   -3.5420 nz        1 OP0     -0.839600
     19 C22        -4.7200   -1.2320   -2.9420 c3        1 OP0      0.095800
     20 C23        -4.5160   -1.1620   -1.4290 c3        1 OP0      0.080400
     21 O24        -3.0720   -1.2580   -1.2410 os        1 OP0     -0.245100
     22 H1         -1.9960    3.3090   -0.2250 h5        1 OP0      0.062200
     23 H2         -0.7640    0.2000    1.3800 h1        1 OP0      0.153700
     24 H3         -3.0890   -1.1890    0.7650 hn        1 OP0      0.519800
     25 H4          0.7850    3.3390    2.0860 h1        1 OP0      0.116700
     26 H5          1.2390    1.6040    1.7130 h1        1 OP0      0.116700
     27 H6          0.3360    2.6270    4.1900 hx        1 OP0      0.118700
     28 H7         -1.8990    3.0460    3.5140 hc        1 OP0      0.102700
     29 H8         -1.9720    1.5830    4.5710 hc        1 OP0      0.102700
     30 H9         -3.3320    1.7160    2.2610 hc        1 OP0      0.082200
     31 H10        -2.6010    0.1500    2.8420 hc        1 OP0      0.082200
     32 H11         1.4670    0.6640    4.1070 hn        1 OP0      0.461800
     33 H12        -3.4190   -2.8010   -3.3730 hn        1 OP0      0.477800
     34 H13        -4.5640   -2.5200   -4.5590 hn        1 OP0      0.477800
     35 H15        -4.0670   -0.4560   -3.4480 hx        1 OP0      0.149700
     36 H16        -5.8050   -0.9900   -3.1590 hx        1 OP0      0.149700
     37 H17        -4.9070   -0.1700   -1.0700 h1        1 OP0      0.116700
     38 H18        -5.0010   -2.0060   -0.8720 h1        1 OP0      0.116700
     39 H152       -1.6090   -1.3040    0.0170 hn        1 OP0      0.519800
     40 H162       -0.0360    0.2900    4.8160 hn        1 OP0      0.461800
     41 H213       -4.9990   -3.2920   -3.1430 hn        1 OP0      0.477800
@<TRIPOS>BOND
     1    1    2 2   
     2    1    3 1   
     3    1   22 1   
     4    3    4 1   
     5    3    8 1   
     6    4    5 1   
     7    4   11 1   
     8    4   23 1   
     9    5    6 1   
    10    5    7 2   
    11    6   21 1   
    12    6   24 1   
    13    6   39 1   
    14    8    9 1   
    15    8   25 1   
    16    8   26 1   
    17    9   10 1   
    18    9   12 1   
    19    9   27 1   
    20   10   11 1   
    21   10   28 1   
    22   10   29 1   
    23   11   30 1   
    24   11   31 1   
    25   12   14 1   
    26   12   32 1   
    27   12   40 1   
    28   13   14 1   
    29   13   15 1   
    30   13   16 1   
    31   13   17 1   
    32   18   19 1   
    33   18   33 1   
    34   18   34 1   
    35   18   41 1   
    36   19   20 1   
    37   19   35 1   
    38   19   36 1   
    39   20   21 1   
    40   20   37 1   
    41   20   38 1   
@<TRIPOS>SUBSTRUCTURE
     1 OP0         1 TEMP              0 ****  ****    0 ROOT
