@<TRIPOS>MOLECULE
OP1
   36    36     1     0     0
SMALL
bcc


@<TRIPOS>ATOM
      1 CA          1.0320    0.4250   -0.0200 c3        1 OP1     -0.041300
      2 C           1.4630    0.0050    1.4230 c         1 OP1      0.912600
      3 OXT         0.5620   -0.2210    2.2830 o         1 OP1     -0.847300
      4 CB          2.1020    1.3340   -0.6460 c3        1 OP1     -0.056400
      5 CG          2.0330    1.2550   -2.1540 c3        1 OP1     -0.137400
      6 CD          3.0380    2.1830   -2.8250 c3        1 OP1      0.154800
      7 NE          3.2400    1.9760   -4.2510 nh        1 OP1     -0.828200
      8 CZ          2.0520    2.3040   -5.0520 c2        1 OP1      0.741100
      9 NH2         1.8870    3.4910   -5.5880 n2        1 OP1     -0.896100
     10 NH1         1.1480    1.2460   -5.3380 nh        1 OP1     -0.904800
     11 N          -0.2950    1.0230   -0.1270 n         1 OP1     -0.400800
     12 CAU        -1.2710    0.4240   -1.0520 c3        1 OP1     -0.044300
     13 CAM        -2.3870   -0.2360   -0.2030 c3        1 OP1     -0.097400
     14 CAK        -2.2670    0.4040    1.1720 c3        1 OP1     -0.185400
     15 CAQ        -0.9980    1.2620    1.1000 c         1 OP1      0.740500
     16 OAM        -0.7490    2.1720    1.9040 o         1 OP1     -0.647500
     17 CAS        -0.7730   -0.5180   -2.1750 c         1 OP1      0.922600
     18 OAH        -0.6880   -1.7600   -1.9770 o         1 OP1     -0.858300
     19 OAE        -0.5420    0.0150   -3.3070 o         1 OP1     -0.858300
     20 O           2.6970   -0.1570    1.6500 o         1 OP1     -0.847300
     21 H1          1.0360   -0.5520   -0.5970 h1        1 OP1      0.072700
     22 H3          1.9730    2.3920   -0.3050 hc        1 OP1      0.044200
     23 H4          3.1020    0.9770   -0.2820 hc        1 OP1      0.044200
     24 H5          0.9890    1.5100   -2.4920 hc        1 OP1      0.069700
     25 H6          2.2160    0.1930   -2.4720 hc        1 OP1      0.069700
     26 H7          2.7200    3.2520   -2.6680 h1        1 OP1      0.039200
     27 H8          4.0480    2.0520   -2.3410 h1        1 OP1      0.039200
     28 H9          3.5070    1.0200   -4.4150 hn        1 OP1      0.364800
     29 H10         2.6260    4.1330   -5.3990 hn        1 OP1      0.372400
     30 H12         0.2680    1.5570   -5.6930 hn        1 OP1      0.424300
     31 H13         1.0110    0.6050   -4.5690 hn        1 OP1      0.424300
     32 H14        -1.7240    1.3130   -1.5880 h1        1 OP1      0.028700
     33 H15        -3.3860   -0.0520   -0.6630 hc        1 OP1      0.041200
     34 H16        -2.2110   -1.3400   -0.1600 hc        1 OP1      0.041200
     35 H17        -2.1040   -0.3560    1.9760 hc        1 OP1      0.051200
     36 H18        -3.1510    1.0320    1.4310 hc        1 OP1      0.051200
@<TRIPOS>BOND
     1    1    2 1   
     2    1    4 1   
     3    1   11 1   
     4    1   21 1   
     5    2    3 1   
     6    2   20 1   
     7    4    5 1   
     8    4   22 1   
     9    4   23 1   
    10    5    6 1   
    11    5   24 1   
    12    5   25 1   
    13    6    7 1   
    14    6   26 1   
    15    6   27 1   
    16    7    8 1   
    17    7   28 1   
    18    8    9 2   
    19    8   10 1   
    20    9   29 1   
    21   10   30 1   
    22   10   31 1   
    23   11   12 1   
    24   11   15 1   
    25   12   13 1   
    26   12   17 1   
    27   12   32 1   
    28   13   14 1   
    29   13   33 1   
    30   13   34 1   
    31   14   15 1   
    32   14   35 1   
    33   14   36 1   
    34   15   16 2   
    35   17   18 1   
    36   17   19 1   
@<TRIPOS>SUBSTRUCTURE
     1 OP1         1 TEMP              0 ****  ****    0 ROOT
