@<TRIPOS>MOLECULE
OP1
   38    38     1     0     0
SMALL
bcc


@<TRIPOS>ATOM
      1 CA          1.4650    0.0000    0.0000 c3        1 OP1     -0.037300
      2 C           1.9670    0.0000    1.4210 c         1 OP1      0.951600
      3 OXT         1.1820    0.0010    2.3390 o         1 OP1     -0.676300
      4 CB          1.9750    1.2490   -0.7210 c3        1 OP1     -0.036400
      5 CG          1.5700    1.1870   -2.1960 c3        1 OP1     -0.035400
      6 CD          2.0800    2.4360   -2.9170 c3        1 OP1     -0.070200
      7 NE          1.6920    2.3770   -4.3280 ny        1 OP1      0.197000
      8 CZ          2.0420    3.3970   -5.1810 c2        1 OP1     -0.341900
      9 NH2         1.6790    3.3420   -6.5060 n2        1 OP1     -0.792100
     10 NH1         2.7200    4.4170   -4.7330 nz        1 OP1      0.356400
     11 N           0.0000    0.0000    0.0000 n         1 OP1      0.007200
     12 CAU        -0.8280   -1.0500   -0.6060 c3        1 OP1     -0.077300
     13 CAM        -2.2370   -0.4310   -0.7510 c3        1 OP1     -0.017400
     14 CAK        -2.2250    0.6440    0.3600 c3        1 OP1     -0.115400
     15 CAQ        -0.7590    0.9580    0.5590 c         1 OP1      0.613500
     16 OAM        -0.3300    1.9360    1.1340 o         1 OP1     -0.603500
     17 CAS        -0.8790   -2.2590    0.2930 c         1 OP1      0.937600
     18 OAH        -1.5860   -3.3390   -0.0730 o         1 OP1     -0.702800
     19 OAE        -0.2820   -2.2540    1.3440 o         1 OP1     -0.702800
     20 O           3.2870    0.0010    1.6660 o         1 OP1     -0.676300
     21 H1          1.8260   -0.8850   -0.5110 h1        1 OP1      0.061700
     22 H3          3.0540    1.2950   -0.6450 hc        1 OP1      0.057200
     23 H4          1.5420    2.1310   -0.2650 hc        1 OP1      0.057200
     24 H5          0.4910    1.1410   -2.2720 hc        1 OP1      0.033200
     25 H6          2.0030    0.3050   -2.6520 hc        1 OP1      0.033200
     26 H7          1.6480    3.3180   -2.4600 hx        1 OP1      0.069700
     27 H8          3.1590    2.4820   -2.8400 hx        1 OP1      0.069700
     28 H9          2.0860    1.5370   -4.7040 hn        1 OP1      0.202300
     29 H10         1.1590    2.5600   -6.8510 hn        1 OP1      0.336400
     30 H12         3.5940    4.1000   -4.3640 hn        1 OP1      0.156133
     31 H13         2.1980    4.8740   -4.0120 hn        1 OP1      0.156133
     32 H14        -0.4370   -1.3180   -1.5800 h1        1 OP1      0.044700
     33 H15        -2.3580    0.0250   -1.7270 hc        1 OP1      0.038200
     34 H16        -3.0050   -1.1710   -0.5630 hc        1 OP1      0.038200
     35 H17        -2.7590    1.5280    0.0350 hc        1 OP1      0.053700
     36 H18        -2.6530    0.2480    1.2720 hc        1 OP1      0.053700
     37 HE3         0.6940    2.3070   -4.3540 hn        1 OP1      0.202300
     38 HH13        2.8850    5.0620   -5.4810 hn        1 OP1      0.156133
@<TRIPOS>BOND
     1    1    2 1   
     2    1    4 1   
     3    1   11 1   
     4    1   21 1   
     5    2    3 1   
     6    2   20 1   
     7    4    5 1   
     8    4   22 1   
     9    4   23 1   
    10    5    6 1   
    11    5   24 1   
    12    5   25 1   
    13    6    7 1   
    14    6   26 1   
    15    6   27 1   
    16    7    8 1   
    17    7   28 1   
    18    7   37 1   
    19    8    9 2   
    20    8   10 1   
    21    9   29 1   
    22   10   30 1   
    23   10   31 1   
    24   10   38 1   
    25   11   12 1   
    26   11   15 1   
    27   12   13 1   
    28   12   17 1   
    29   12   32 1   
    30   13   14 1   
    31   13   33 1   
    32   13   34 1   
    33   14   15 1   
    34   14   35 1   
    35   14   36 1   
    36   15   16 2   
    37   17   18 1   
    38   17   19 1   
@<TRIPOS>SUBSTRUCTURE
     1 OP1         1 TEMP              0 ****  ****    0 ROOT
