@<TRIPOS>MOLECULE
OP2
   43    42     1     0     0
SMALL
bcc


@<TRIPOS>ATOM
      1 O6          5.5020    4.6250    2.1800 o         1 OP2     -0.850300
      2 C12         5.6770    3.7900    3.1140 c         1 OP2      0.882600
      3 C11         4.5700    2.7710    3.4120 c3        1 OP2      0.024400
      4 O5          4.8030    1.5040    2.8000 os        1 OP2     -0.441600
      5 C10         5.9770    0.8490    3.2740 c3        1 OP2      0.083400
      6 C9          6.2790   -0.2800    2.2960 c3        1 OP2      0.128400
      7 O4          7.3390    0.0240    1.4010 os        1 OP2     -0.435600
      8 C8          7.1000    1.1470    0.5540 c3        1 OP2      0.093400
      9 C7          8.0320    2.2900    0.9560 c3        1 OP2      0.083400
     10 O3          8.6760    2.8600   -0.1770 os        1 OP2     -0.421600
     11 C6          7.8370    3.6100   -1.0400 c3        1 OP2      0.122400
     12 C5          7.3710    4.9420   -0.4660 c3        1 OP2      0.068400
     13 O2          8.4960    5.8120   -0.3570 os        1 OP2     -0.432600
     14 C4          8.5690    6.5160    0.8760 c3        1 OP2      0.136400
     15 C3          8.7250    5.5660    2.0570 c3        1 OP2      0.064400
     16 O1          9.4210    6.2870    3.0780 os        1 OP2     -0.457600
     17 C2          9.3210    5.6330    4.3430 c3        1 OP2      0.079400
     18 C1          9.8250    6.6320    5.3760 c3        1 OP2      0.133400
     19 OBC         6.7370    3.7610    3.8110 o         1 OP2     -0.850300
     20 OXT         9.0430    7.8110    5.4260 oh        1 OP2     -0.619800
     21 H111        4.4580    2.6350    4.5190 h1        1 OP2      0.032700
     22 H112        3.6000    3.1020    2.9570 h1        1 OP2      0.032700
     23 H101        5.7640    0.4330    4.2950 h1        1 OP2      0.055700
     24 H102        6.8370    1.5710    3.3370 h1        1 OP2      0.055700
     25 H91C        6.6580   -1.1800    2.8490 h1        1 OP2      0.039700
     26 H92C        5.3570   -0.5490    1.7130 h1        1 OP2      0.039700
     27 H81C        7.3450    0.7910   -0.4830 h1        1 OP2      0.050700
     28 H82C        6.0290    1.4750    0.6030 h1        1 OP2      0.050700
     29 H71C        7.4760    3.0720    1.5440 h1        1 OP2      0.083200
     30 H72C        8.8860    1.8980    1.5730 h1        1 OP2      0.083200
     31 H61C        6.9340    3.0060   -1.3260 h1        1 OP2      0.036200
     32 H62C        8.4870    3.7840   -1.9410 h1        1 OP2      0.036200
     33 H51C        6.6670    5.4240   -1.1990 h1        1 OP2      0.072700
     34 H52C        6.8370    4.8030    0.5140 h1        1 OP2      0.072700
     35 H41C        9.4770    7.1660    0.7600 h1        1 OP2      0.041200
     36 H42C        7.6570    7.1540    1.0070 h1        1 OP2      0.041200
     37 H31C        9.3360    4.6710    1.7600 h1        1 OP2      0.083700
     38 H32C        7.7190    5.2170    2.4390 h1        1 OP2      0.083700
     39 H21C        8.2560    5.3250    4.5420 h1        1 OP2      0.068200
     40 H22C        9.9730    4.7210    4.3360 h1        1 OP2      0.068200
     41 H11C        9.7600    6.1860    6.4040 h1        1 OP2      0.031200
     42 H12C       10.8890    6.9170    5.1530 h1        1 OP2      0.031200
     43 HXT         8.7620    8.0010    4.5210 ho        1 OP2      0.419000
@<TRIPOS>BOND
     1    1    2 1   
     2    2    3 1   
     3    2   19 1   
     4    3    4 1   
     5    3   21 1   
     6    3   22 1   
     7    4    5 1   
     8    5    6 1   
     9    5   23 1   
    10    5   24 1   
    11    6    7 1   
    12    6   25 1   
    13    6   26 1   
    14    7    8 1   
    15    8    9 1   
    16    8   27 1   
    17    8   28 1   
    18    9   10 1   
    19    9   29 1   
    20    9   30 1   
    21   10   11 1   
    22   11   12 1   
    23   11   31 1   
    24   11   32 1   
    25   12   13 1   
    26   12   33 1   
    27   12   34 1   
    28   13   14 1   
    29   14   15 1   
    30   14   35 1   
    31   14   36 1   
    32   15   16 1   
    33   15   37 1   
    34   15   38 1   
    35   16   17 1   
    36   17   18 1   
    37   17   39 1   
    38   17   40 1   
    39   18   20 1   
    40   18   41 1   
    41   18   42 1   
    42   20   43 1   
@<TRIPOS>SUBSTRUCTURE
     1 OP2         1 TEMP              0 ****  ****    0 ROOT
