@<TRIPOS>MOLECULE
OP2
   43    42     1     0     0
SMALL
bcc


@<TRIPOS>ATOM
      1 O6         -0.4920    1.9720   -1.2010 o         1 OP2     -0.852800
      2 C12        -0.1460    0.7950   -1.5130 c         1 OP2      0.883600
      3 C11         1.1900    0.6040   -2.2370 c3        1 OP2      0.025400
      4 O5          2.0450   -0.3630   -1.6360 os        1 OP2     -0.442600
      5 C10         1.6000   -1.7070   -1.8080 c3        1 OP2      0.081400
      6 C9          2.5410   -2.5890   -0.9960 c3        1 OP2      0.130400
      7 O4          1.9810   -3.0150    0.2400 os        1 OP2     -0.434600
      8 C8          1.6690   -1.9560    1.1430 c3        1 OP2      0.093400
      9 C7          0.1590   -1.9340    1.3700 c3        1 OP2      0.083400
     10 O3         -0.1740   -1.4190    2.6530 os        1 OP2     -0.425600
     11 C6          0.2320   -0.0840    2.9100 c3        1 OP2      0.126400
     12 C5         -0.3750    0.9680    1.9940 c3        1 OP2      0.079400
     13 O2         -1.6640    1.3110    2.5030 os        1 OP2     -0.436600
     14 C4         -2.5430    1.7990    1.4960 c3        1 OP2      0.099400
     15 C3         -3.2500    0.6390    0.8000 c3        1 OP2      0.085400
     16 O1         -4.2460    1.1430   -0.0850 os        1 OP2     -0.450600
     17 C2         -3.7510    1.4640   -1.3850 c3        1 OP2      0.072400
     18 C1         -3.8850    0.2500   -2.2960 c3        1 OP2      0.096400
     19 OBC        -0.8790   -0.2120   -1.2650 o         1 OP2     -0.852800
     20 OXT        -5.1980   -0.2880   -2.2780 oh        1 OP2     -0.631800
     21 H111        0.9980    0.3310   -3.3070 h1        1 OP2      0.034200
     22 H112        1.7920    1.5500   -2.1850 h1        1 OP2      0.034200
     23 H101        0.5370   -1.8120   -1.4570 h1        1 OP2      0.057700
     24 H102        1.6660   -1.9730   -2.8970 h1        1 OP2      0.057700
     25 H91C        2.7300   -3.5540   -1.5380 h1        1 OP2      0.040200
     26 H92C        3.5120   -2.0590   -0.8080 h1        1 OP2      0.040200
     27 H81C        2.2060   -2.2030    2.0980 h1        1 OP2      0.048200
     28 H82C        2.0220   -0.9660    0.7540 h1        1 OP2      0.048200
     29 H71C       -0.3570   -1.3560    0.5540 h1        1 OP2      0.081200
     30 H72C       -0.2450   -2.9820    1.3980 h1        1 OP2      0.081200
     31 H61C       -0.1050    0.0840    3.9700 h1        1 OP2      0.038200
     32 H62C        1.3510   -0.0130    2.8490 h1        1 OP2      0.038200
     33 H51C        0.2580    1.8970    2.0260 h1        1 OP2      0.067200
     34 H52C       -0.4420    0.6160    0.9280 h1        1 OP2      0.067200
     35 H41C       -3.2790    2.4360    2.0530 h1        1 OP2      0.057700
     36 H42C       -1.9890    2.4170    0.7380 h1        1 OP2      0.057700
     37 H31C       -2.5010    0.0050    0.2480 h1        1 OP2      0.071200
     38 H32C       -3.8180    0.0180    1.5410 h1        1 OP2      0.071200
     39 H21C       -4.4130    2.3000   -1.7320 h1        1 OP2      0.077700
     40 H22C       -2.6720    1.7880   -1.3490 h1        1 OP2      0.077700
     41 H11C       -3.7040    0.5430   -3.3630 h1        1 OP2      0.060700
     42 H12C       -3.1430   -0.5360   -1.9890 h1        1 OP2      0.060700
     43 HXT        -5.4580   -0.3410   -1.3490 ho        1 OP2      0.405000
@<TRIPOS>BOND
     1    1    2 1   
     2    2    3 1   
     3    2   19 1   
     4    3    4 1   
     5    3   21 1   
     6    3   22 1   
     7    4    5 1   
     8    5    6 1   
     9    5   23 1   
    10    5   24 1   
    11    6    7 1   
    12    6   25 1   
    13    6   26 1   
    14    7    8 1   
    15    8    9 1   
    16    8   27 1   
    17    8   28 1   
    18    9   10 1   
    19    9   29 1   
    20    9   30 1   
    21   10   11 1   
    22   11   12 1   
    23   11   31 1   
    24   11   32 1   
    25   12   13 1   
    26   12   33 1   
    27   12   34 1   
    28   13   14 1   
    29   14   15 1   
    30   14   35 1   
    31   14   36 1   
    32   15   16 1   
    33   15   37 1   
    34   15   38 1   
    35   16   17 1   
    36   17   18 1   
    37   17   39 1   
    38   17   40 1   
    39   18   20 1   
    40   18   41 1   
    41   18   42 1   
    42   20   43 1   
@<TRIPOS>SUBSTRUCTURE
     1 OP2         1 TEMP              0 ****  ****    0 ROOT
