@<TRIPOS>MOLECULE
OP2
   43    42     1     0     0
SMALL
bcc


@<TRIPOS>ATOM
      1 O6         -0.8140   -0.8290   -9.1690 o         1 OP2     -0.831300
      2 C12        -0.7450    0.4150   -9.1550 c         1 OP2      0.924600
      3 C11         0.0770    1.1110   -8.0910 c3        1 OP2      0.004400
      4 O5         -0.6950    1.2150   -6.8760 os        1 OP2     -0.399600
      5 C10         0.0250    1.7770   -5.7890 c3        1 OP2      0.128400
      6 C9         -0.9120    1.9710   -4.6000 c3        1 OP2      0.126400
      7 O4         -0.1550    1.9820   -3.4000 os        1 OP2     -0.435600
      8 C8         -0.9470    2.1330   -2.2250 c3        1 OP2      0.133400
      9 C7         -0.0400    2.1790   -0.9940 c3        1 OP2      0.127400
     10 O3         -0.6620    1.5130    0.0720 os        1 OP2     -0.430600
     11 C6          0.0620    1.5970    1.3020 c3        1 OP2      0.131400
     12 C5         -0.6940    0.8280    2.4040 c3        1 OP2      0.128400
     13 O2          0.2540    0.2770    3.3540 os        1 OP2     -0.430600
     14 C4         -0.3620   -0.5240    4.3950 c3        1 OP2      0.130400
     15 C3          0.7310   -1.1760    5.2630 c3        1 OP2      0.129400
     16 O1          0.3170   -2.4770    5.6530 os        1 OP2     -0.431600
     17 C2          1.3320   -3.2230    6.3760 c3        1 OP2      0.130400
     18 C1          0.7560   -4.5470    6.8480 c3        1 OP2      0.126400
     19 OBC        -1.4400    1.0920   -9.9550 o         1 OP2     -0.831300
     20 OXT         1.7940   -5.5300    6.8930 oh        1 OP2     -0.603800
     21 H111        0.3200    2.0120   -8.4030 h1        1 OP2      0.004700
     22 H112        0.9040    0.5860   -7.9150 h1        1 OP2      0.004700
     23 H101        0.3870    2.6270   -6.0530 h1        1 OP2      0.021700
     24 H102        0.7560    1.1730   -5.5340 h1        1 OP2      0.021700
     25 H91C       -1.5520    1.2470   -4.5690 h1        1 OP2      0.040700
     26 H92C       -1.3930    2.8340   -4.6960 h1        1 OP2      0.040700
     27 H81C       -1.4620    2.9690   -2.2830 h1        1 OP2      0.036700
     28 H82C       -1.5740    1.3610   -2.1460 h1        1 OP2      0.036700
     29 H71C        0.1230    3.1140   -0.7430 h1        1 OP2      0.039700
     30 H72C        0.8070    1.7450   -1.1960 h1        1 OP2      0.039700
     31 H61C        0.9750    1.1980    1.1800 h1        1 OP2      0.038700
     32 H62C        0.1510    2.5590    1.5700 h1        1 OP2      0.038700
     33 H51C       -1.2200    0.0850    1.9910 h1        1 OP2      0.041700
     34 H52C       -1.3060    1.4440    2.8730 h1        1 OP2      0.041700
     35 H41C       -0.9300    0.0510    4.9600 h1        1 OP2      0.040700
     36 H42C       -0.9160   -1.2270    3.9830 h1        1 OP2      0.040700
     37 H31C        1.5710   -1.2390    4.7440 h1        1 OP2      0.041700
     38 H32C        0.8830   -0.6290    6.0640 h1        1 OP2      0.041700
     39 H21C        2.0970   -3.3920    5.7830 h1        1 OP2      0.041700
     40 H22C        1.6340   -2.6940    7.1630 h1        1 OP2      0.041700
     41 H11C        0.0580   -4.8390    6.2280 h1        1 OP2      0.035700
     42 H12C        0.3730   -4.4350    7.7440 h1        1 OP2      0.035700
     43 HXT         1.4350   -6.3340    6.9480 ho        1 OP2      0.403000
@<TRIPOS>BOND
     1    1    2 1   
     2    2    3 1   
     3    2   19 1   
     4    3    4 1   
     5    3   21 1   
     6    3   22 1   
     7    4    5 1   
     8    5    6 1   
     9    5   23 1   
    10    5   24 1   
    11    6    7 1   
    12    6   25 1   
    13    6   26 1   
    14    7    8 1   
    15    8    9 1   
    16    8   27 1   
    17    8   28 1   
    18    9   10 1   
    19    9   29 1   
    20    9   30 1   
    21   10   11 1   
    22   11   12 1   
    23   11   31 1   
    24   11   32 1   
    25   12   13 1   
    26   12   33 1   
    27   12   34 1   
    28   13   14 1   
    29   14   15 1   
    30   14   35 1   
    31   14   36 1   
    32   15   16 1   
    33   15   37 1   
    34   15   38 1   
    35   16   17 1   
    36   17   18 1   
    37   17   39 1   
    38   17   40 1   
    39   18   20 1   
    40   18   41 1   
    41   18   42 1   
    42   20   43 1   
@<TRIPOS>SUBSTRUCTURE
     1 OP2         1 TEMP              0 ****  ****    0 ROOT
