@<TRIPOS>MOLECULE
OP2
   43    42     1     0     0
SMALL
bcc


@<TRIPOS>ATOM
      1 O6          5.7650    5.1020    3.1320 o         1 OP2     -0.852800
      2 C12         6.1820    3.9270    3.3530 c         1 OP2      0.883600
      3 C11         5.1490    2.8480    3.6900 c3        1 OP2      0.025400
      4 O5          5.2530    1.6730    2.8910 os        1 OP2     -0.442600
      5 C10         6.3940    0.8740    3.1940 c3        1 OP2      0.081400
      6 C9          6.4260   -0.2530    2.1680 c3        1 OP2      0.130400
      7 O4          7.3810   -0.0420    1.1360 os        1 OP2     -0.434600
      8 C8          7.1430    1.1150    0.3380 c3        1 OP2      0.093400
      9 C7          8.3030    2.0900    0.5280 c3        1 OP2      0.083400
     10 O3          8.5060    2.9000   -0.6220 os        1 OP2     -0.425600
     11 C6          7.4180    3.7310   -0.9960 c3        1 OP2      0.126400
     12 C5          7.0060    4.7690    0.0380 c3        1 OP2      0.079400
     13 O2          7.8610    5.9030   -0.1070 os        1 OP2     -0.436600
     14 C4          7.9890    6.6550    1.0950 c3        1 OP2      0.099400
     15 C3          9.0950    6.0720    1.9700 c3        1 OP2      0.085400
     16 O1          9.3270    6.9280    3.0860 os        1 OP2     -0.450600
     17 C2          8.4730    6.6640    4.1980 c3        1 OP2      0.072400
     18 C1          9.1400    5.6570    5.1280 c3        1 OP2      0.096400
     19 OBC         7.4160    3.6330    3.3250 o         1 OP2     -0.852800
     20 OXT        10.4610    6.0420    5.4720 oh        1 OP2     -0.631800
     21 H111        5.2310    2.5800    4.7750 h1        1 OP2      0.034200
     22 H112        4.1150    3.2230    3.4640 h1        1 OP2      0.034200
     23 H101        6.2750    0.4510    4.2270 h1        1 OP2      0.057700
     24 H102        7.3290    1.4970    3.1460 h1        1 OP2      0.057700
     25 H91C        6.7760   -1.2050    2.6510 h1        1 OP2      0.040200
     26 H92C        5.4090   -0.4030    1.7170 h1        1 OP2      0.040200
     27 H81C        7.1070    0.7510   -0.7240 h1        1 OP2      0.048200
     28 H82C        6.1700    1.6060    0.6050 h1        1 OP2      0.048200
     29 H71C        8.1450    2.7220    1.4470 h1        1 OP2      0.081200
     30 H72C        9.2710    1.5280    0.6240 h1        1 OP2      0.081200
     31 H61C        6.5260    3.0930   -1.2410 h1        1 OP2      0.038200
     32 H62C        7.7940    4.2380   -1.9260 h1        1 OP2      0.038200
     33 H51C        5.9560    5.1090   -0.1760 h1        1 OP2      0.067200
     34 H52C        7.0460    4.3630    1.0860 h1        1 OP2      0.067200
     35 H41C        8.2570    7.6880    0.7500 h1        1 OP2      0.057700
     36 H42C        7.0210    6.6730    1.6670 h1        1 OP2      0.057700
     37 H31C       10.0710    6.0570    1.4180 h1        1 OP2      0.071200
     38 H32C        8.8170    5.0340    2.3060 h1        1 OP2      0.071200
     39 H21C        8.3630    7.6600    4.7020 h1        1 OP2      0.077700
     40 H22C        7.4720    6.2640    3.8670 h1        1 OP2      0.077700
     41 H11C        8.5880    5.6010    6.1010 h1        1 OP2      0.060700
     42 H12C        9.1490    4.6440    4.6390 h1        1 OP2      0.060700
     43 HXT        10.8900    6.3100    4.6490 ho        1 OP2      0.405000
@<TRIPOS>BOND
     1    1    2 1   
     2    2    3 1   
     3    2   19 1   
     4    3    4 1   
     5    3   21 1   
     6    3   22 1   
     7    4    5 1   
     8    5    6 1   
     9    5   23 1   
    10    5   24 1   
    11    6    7 1   
    12    6   25 1   
    13    6   26 1   
    14    7    8 1   
    15    8    9 1   
    16    8   27 1   
    17    8   28 1   
    18    9   10 1   
    19    9   29 1   
    20    9   30 1   
    21   10   11 1   
    22   11   12 1   
    23   11   31 1   
    24   11   32 1   
    25   12   13 1   
    26   12   33 1   
    27   12   34 1   
    28   13   14 1   
    29   14   15 1   
    30   14   35 1   
    31   14   36 1   
    32   15   16 1   
    33   15   37 1   
    34   15   38 1   
    35   16   17 1   
    36   17   18 1   
    37   17   39 1   
    38   17   40 1   
    39   18   20 1   
    40   18   41 1   
    41   18   42 1   
    42   20   43 1   
@<TRIPOS>SUBSTRUCTURE
     1 OP2         1 TEMP              0 ****  ****    0 ROOT
