@<TRIPOS>MOLECULE
OPA
   25    26     1     0     0
SMALL
bcc


@<TRIPOS>ATOM
      1 O1          0.0990    0.2290   -0.0470 os        1 OPA     -0.452600
      2 C2          1.4760   -0.1190    0.1220 c3        1 OPA      0.249700
      3 C3          1.9350   -0.0950    1.5180 cc        1 OPA     -0.303400
      4 C4          1.1660    0.4240    2.5480 cd        1 OPA     -0.015300
      5 C5         -0.1850    0.9580    2.2880 c3        1 OPA     -0.049100
      6 C6         -0.3530    1.2730    0.8100 c3        1 OPA      0.139400
      7 S13         3.4140   -0.6510    2.0700 ss        1 OPA     -0.018800
      8 C14         3.0810   -0.2120    3.7010 cc        1 OPA      0.137500
      9 C15         1.8110    0.3710    3.8180 cd        1 OPA     -0.239600
     10 C16         1.2060    0.8920    5.0910 c         1 OPA      0.934200
     11 O17         0.0720    1.4610    5.0460 o         1 OPA     -0.854300
     12 O18         1.8440    0.7560    6.1780 o         1 OPA     -0.854300
     13 N19         3.9840   -0.4260    4.7210 n         1 OPA     -0.426100
     14 C20         5.2360   -1.0020    4.5340 c         1 OPA      0.538100
     15 C21         6.1630   -1.1830    5.7740 c         1 OPA      0.895600
     16 O22         6.9520   -0.2400    6.0300 o         1 OPA     -0.806800
     17 O23         6.0700   -2.2720    6.3930 o         1 OPA     -0.806800
     18 O24         5.5860   -1.3590    3.3850 o         1 OPA     -0.671100
     19 H21         1.5420   -1.1500   -0.3250 h1        1 OPA      0.015700
     20 H22A        2.0840    0.5910   -0.5090 h1        1 OPA      0.015700
     21 H51        -0.3580    1.8770    2.9130 hc        1 OPA      0.079200
     22 H52        -0.9450    0.1970    2.6110 hc        1 OPA      0.079200
     23 H61        -1.4380    1.3820    0.5420 h1        1 OPA      0.017700
     24 H62         0.1920    2.2190    0.5480 h1        1 OPA      0.017700
     25 H19         3.6830   -0.1350    5.6370 hn        1 OPA      0.377500
@<TRIPOS>BOND
     1    1    2 1   
     2    1    6 1   
     3    2    3 1   
     4    2   19 1   
     5    2   20 1   
     6    3    4 2   
     7    3    7 1   
     8    4    5 1   
     9    4    9 1   
    10    5    6 1   
    11    5   21 1   
    12    5   22 1   
    13    6   23 1   
    14    6   24 1   
    15    7    8 1   
    16    8    9 2   
    17    8   13 1   
    18    9   10 1   
    19   10   11 1   
    20   10   12 1   
    21   13   14 1   
    22   13   25 1   
    23   14   15 1   
    24   14   18 2   
    25   15   16 1   
    26   15   17 1   
@<TRIPOS>SUBSTRUCTURE
     1 OPA         1 TEMP              0 ****  ****    0 ROOT
