@<TRIPOS>MOLECULE
OPA
   25    23     1     0     0
SMALL
bcc


@<TRIPOS>ATOM
      1 O1         -2.3260   -0.0400   -2.9600 os        1 OPA     -0.309000
      2 C2         -0.9760    0.0530   -2.9290 c3        1 OPA      0.092000
      3 C3         -0.3170   -0.0510   -1.5370 c2        1 OPA     -0.566000
      4 C4         -1.2160   -0.0660   -0.3460 c1        1 OPA     -0.008000
      5 C5         -2.6630    0.1810   -0.5790 c2        1 OPA     -0.135000
      6 C6         -3.0450    0.5490   -1.9260 c3        1 OPA     -0.011000
      7 S13         1.1510   -0.2250   -1.0350 ss        1 OPA      0.521000
      8 C14         1.1080   -0.3470    0.5350 c1        1 OPA     -0.125000
      9 C15        -0.3130   -0.2530    0.9620 c1        1 OPA     -0.219000
     10 C16        -0.8100   -0.2650    2.3800 c1        1 OPA      0.383000
     11 O17        -0.8220    0.8070    3.0490 o         1 OPA     -0.589000
     12 O18        -1.3670   -1.3100    2.8470 o         1 OPA     -0.589000
     13 N19         2.2290   -0.6370    1.3870 n2        1 OPA     -0.280000
     14 C20         3.4010    0.1910    1.3370 c2        1 OPA      0.232000
     15 C21         4.5730   -0.1250    2.2000 c2        1 OPA      0.365000
     16 O22         4.6300    0.3320    3.3900 o         1 OPA     -0.541500
     17 O23         5.5150   -0.8340    1.7490 o         1 OPA     -0.541500
     18 O24         3.4460    1.1330    0.5760 o         1 OPA     -0.432000
     19 H21        -0.6490   -0.6430   -3.4320 h1        1 OPA      0.055000
     20 H22A       -0.7520    0.8990   -3.2730 h1        1 OPA      0.055000
     21 H51        -3.1690   -0.6600   -0.3290 ha        1 OPA      0.118500
     22 H52        -2.9530    0.9180    0.0380 ha        1 OPA      0.118500
     23 H61        -2.9110    1.5140   -2.0020 h1        1 OPA      0.057000
     24 H62        -3.9820    0.2780   -2.0410 h1        1 OPA      0.057000
     25 H19         2.2170   -1.3980    1.9370 hn        1 OPA      0.291000
@<TRIPOS>BOND
     1    1    2 1   
     2    1    6 1   
     3    2    3 1   
     4    2   19 1   
     5    2   20 1   
     6    3    4 1   
     7    3    7 1   
     8    4    9 1   
     9    5    6 1   
    10    5   21 1   
    11    5   22 1   
    12    6   23 1   
    13    6   24 1   
    14    7    8 1   
    15    8    9 1   
    16   10   11 1   
    17   10   12 1   
    18   13   14 1   
    19   13   25 1   
    20   14   15 1   
    21   14   18 1   
    22   15   16 1   
    23   15   17 1   
@<TRIPOS>SUBSTRUCTURE
     1 OPA         1 TEMP              0 ****  ****    0 ROOT
