@<TRIPOS>MOLECULE
OPA
   26    27     1     0     0
SMALL
bcc


@<TRIPOS>ATOM
      1 O1          0.5310    0.3140   -0.1090 os        1 OPA     -0.422600
      2 C2          1.9210    0.3220    0.2020 c3        1 OPA      0.215700
      3 C3          2.1910    0.1970    1.6500 cc        1 OPA     -0.181400
      4 C4          1.1920    0.3760    2.5980 cd        1 OPA     -0.055300
      5 C5         -0.2010    0.6600    2.2090 c3        1 OPA     -0.052100
      6 C6         -0.2660    1.1160    0.7600 c3        1 OPA      0.129400
      7 S13         3.6660   -0.1390    2.3430 ss        1 OPA      0.058200
      8 C14         3.0440   -0.0550    3.9220 cc        1 OPA     -0.045500
      9 C15         1.6790    0.2390    3.9340 cd        1 OPA     -0.102600
     10 C16         0.8400    0.4150    5.1830 c         1 OPA      0.927200
     11 O17        -0.3630    0.7520    5.0610 o         1 OPA     -0.806800
     12 O18         1.4120    0.2220    6.3020 o         1 OPA     -0.806800
     13 N19         3.8250   -0.2470    5.1110 n4        1 OPA     -0.539200
     14 C20         4.8680   -1.3520    5.0130 c         1 OPA      0.386100
     15 C21         6.3530   -0.8170    4.7450 c         1 OPA      0.907600
     16 O22         7.0430   -1.5740    4.0480 o         1 OPA     -0.726300
     17 O23         6.5910    0.2870    5.2750 o         1 OPA     -0.726300
     18 O24         4.4840   -2.4910    5.2150 o         1 OPA     -0.471100
     19 H21         2.3290   -0.5530   -0.3760 h1        1 OPA      0.047700
     20 H22A        2.3700    1.2770   -0.1920 h1        1 OPA      0.047700
     21 H51        -0.8120   -0.2730    2.3530 hc        1 OPA      0.090700
     22 H52        -0.6390    1.4400    2.8920 hc        1 OPA      0.090700
     23 H61        -1.3030    0.9980    0.3480 h1        1 OPA      0.040200
     24 H62         0.0570    2.1880    0.6710 h1        1 OPA      0.040200
     25 H19         4.3370    0.6230    5.3180 hn        1 OPA      0.478300
     26 H192        3.1470   -0.4240    5.8970 hn        1 OPA      0.478300
@<TRIPOS>BOND
     1    1    2 1   
     2    1    6 1   
     3    2    3 1   
     4    2   19 1   
     5    2   20 1   
     6    3    4 2   
     7    3    7 1   
     8    4    5 1   
     9    4    9 1   
    10    5    6 1   
    11    5   21 1   
    12    5   22 1   
    13    6   23 1   
    14    6   24 1   
    15    7    8 1   
    16    8    9 2   
    17    8   13 1   
    18    9   10 1   
    19   10   11 1   
    20   10   12 1   
    21   13   14 1   
    22   13   25 1   
    23   13   26 1   
    24   14   15 1   
    25   14   18 2   
    26   15   16 1   
    27   15   17 1   
@<TRIPOS>SUBSTRUCTURE
     1 OPA         1 TEMP              0 ****  ****    0 ROOT
