@<TRIPOS>MOLECULE
OPA
   25    26     1     0     0
SMALL
bcc


@<TRIPOS>ATOM
      1 O1          0.2600    0.4360   -0.1380 os        1 OPA     -0.452600
      2 C2          1.6660    0.2830    0.0730 c3        1 OPA      0.249700
      3 C3          2.0490    0.1350    1.4850 cc        1 OPA     -0.303400
      4 C4          1.1570    0.3410    2.5260 cd        1 OPA     -0.015300
      5 C5         -0.2490    0.6960    2.2570 c3        1 OPA     -0.049100
      6 C6         -0.3980    1.2320    0.8420 c3        1 OPA      0.139400
      7 S13         3.5720   -0.2710    2.0460 ss        1 OPA     -0.018800
      8 C14         3.0960   -0.1800    3.6970 cc        1 OPA      0.137500
      9 C15         1.7430    0.1700    3.8150 cd        1 OPA     -0.239600
     10 C16         1.0010    0.3610    5.1070 c         1 OPA      0.934200
     11 O17        -0.2080    0.7460    5.0720 o         1 OPA     -0.854300
     12 O18         1.6010    0.1390    6.2010 o         1 OPA     -0.854300
     13 N19         3.9740   -0.4250    4.7320 ns        1 OPA     -0.426100
     14 C20         5.3110   -0.7580    4.5470 c         1 OPA      0.538100
     15 C21         6.1960   -1.0050    5.8060 c         1 OPA      0.895600
     16 O22         6.2560   -2.1860    6.2300 o         1 OPA     -0.806800
     17 O23         6.8040   -0.0100    6.2710 o         1 OPA     -0.806800
     18 O24         5.7680   -0.8500    3.3840 o         1 OPA     -0.671100
     19 H21         1.9230   -0.6320   -0.5300 h1        1 OPA      0.015700
     20 H22A        2.1770    1.1770   -0.3870 h1        1 OPA      0.015700
     21 H51        -0.6020    1.4540    3.0100 hc        1 OPA      0.079200
     22 H52        -0.8870   -0.2180    2.3940 hc        1 OPA      0.079200
     23 H61        -1.4730    1.2160    0.5160 h1        1 OPA      0.017700
     24 H62        -0.0060    2.2830    0.7800 h1        1 OPA      0.017700
     25 H19         3.5850   -0.3480    5.6590 hn        1 OPA      0.377500
@<TRIPOS>BOND
     1    1    2 1   
     2    1    6 1   
     3    2    3 1   
     4    2   19 1   
     5    2   20 1   
     6    3    4 2   
     7    3    7 1   
     8    4    5 1   
     9    4    9 1   
    10    5    6 1   
    11    5   21 1   
    12    5   22 1   
    13    6   23 1   
    14    6   24 1   
    15    7    8 1   
    16    8    9 2   
    17    8   13 1   
    18    9   10 1   
    19   10   11 1   
    20   10   12 1   
    21   13   14 1   
    22   13   25 1   
    23   14   15 1   
    24   14   18 2   
    25   15   16 1   
    26   15   17 1   
@<TRIPOS>SUBSTRUCTURE
     1 OPA         1 TEMP              0 ****  ****    0 ROOT
