@<TRIPOS>MOLECULE
OPA
   25    26     1     0     0
SMALL
bcc


@<TRIPOS>ATOM
      1 O1         -1.4160    0.0330   -4.2770 os        1 OPA     -0.452600
      2 C2         -2.0530   -0.2090   -3.0200 c3        1 OPA      0.249700
      3 C3         -1.1550   -0.0990   -1.8600 cc        1 OPA     -0.303400
      4 C4          0.2200    0.0150   -1.9890 cd        1 OPA     -0.015300
      5 C5          0.8540    0.0610   -3.3210 c3        1 OPA     -0.049100
      6 C6         -0.0930   -0.4880   -4.3760 c3        1 OPA      0.139400
      7 S13        -1.6280   -0.1130   -0.2550 ss        1 OPA     -0.018800
      8 C14        -0.0120    0.0260    0.3240 cc        1 OPA      0.137500
      9 C15         0.9020    0.0840   -0.7390 cd        1 OPA     -0.239600
     10 C16         2.3940    0.1830   -0.5990 c         1 OPA      0.934200
     11 O17         3.1140    0.1570   -1.6450 o         1 OPA     -0.854300
     12 O18         2.9000    0.2850    0.5590 o         1 OPA     -0.854300
     13 N19         0.2880    0.0680    1.6690 n         1 OPA     -0.426100
     14 C20        -0.6690   -0.0040    2.6750 c         1 OPA      0.538100
     15 C21        -0.1930    0.0510    4.1580 c         1 OPA      0.895600
     16 O22        -0.1330    1.1870    4.6890 o         1 OPA     -0.806800
     17 O23         0.0560   -1.0500    4.7100 o         1 OPA     -0.806800
     18 O24        -1.8790   -0.1100    2.3690 o         1 OPA     -0.671100
     19 H21        -2.5160   -1.2360   -3.0680 h1        1 OPA      0.015700
     20 H22A       -2.8730    0.5610   -2.9910 h1        1 OPA      0.015700
     21 H51         1.8150   -0.5220   -3.3060 hc        1 OPA      0.079200
     22 H52         1.1230    1.1250   -3.5580 hc        1 OPA      0.079200
     23 H61        -0.1380   -1.6080   -4.3140 h1        1 OPA      0.017700
     24 H62         0.2330   -0.1840   -5.4070 h1        1 OPA      0.017700
     25 H19         1.2660    0.1570    1.8930 hn        1 OPA      0.377500
@<TRIPOS>BOND
     1    1    2 1   
     2    1    6 1   
     3    2    3 1   
     4    2   19 1   
     5    2   20 1   
     6    3    4 2   
     7    3    7 1   
     8    4    5 1   
     9    4    9 1   
    10    5    6 1   
    11    5   21 1   
    12    5   22 1   
    13    6   23 1   
    14    6   24 1   
    15    7    8 1   
    16    8    9 2   
    17    8   13 1   
    18    9   10 1   
    19   10   11 1   
    20   10   12 1   
    21   13   14 1   
    22   13   25 1   
    23   14   15 1   
    24   14   18 2   
    25   15   16 1   
    26   15   17 1   
@<TRIPOS>SUBSTRUCTURE
     1 OPA         1 TEMP              0 ****  ****    0 ROOT
