@<TRIPOS>MOLECULE
OPB
   44    46     1     0     0
SMALL
bcc


@<TRIPOS>ATOM
      1 C16        -4.2040   -0.0760   -0.6590 ca        1 OPB     -0.121500
      2 C17        -2.9910   -0.5720   -0.1930 ca        1 OPB     -0.125000
      3 C12        -1.8060    0.1720   -0.3830 ca        1 OPB      0.017600
      4 C13        -1.8740    1.4170   -1.0380 ca        1 OPB     -0.125000
      5 C14        -3.0980    1.8910   -1.5030 ca        1 OPB     -0.121500
      6 C15        -4.2640    1.1510   -1.3190 ca        1 OPB     -0.133000
      7 C8          0.9430   -1.4200   -3.7830 ca        1 OPB     -0.178500
      8 C9          1.9380   -0.5970   -4.3320 ca        1 OPB      0.122100
      9 C10         2.5040    0.4390   -3.5770 ca        1 OPB     -0.178500
     10 C11         2.0700    0.6600   -2.2750 ca        1 OPB     -0.086500
     11 C6          1.0670   -0.1570   -1.7100 ca        1 OPB     -0.020400
     12 C7          0.5170   -1.2040   -2.4780 ca        1 OPB     -0.086500
     13 C21         0.3060    0.3040    6.8410 c3        1 OPB     -0.093100
     14 C20         0.6750    0.9290    5.5210 c3        1 OPB     -0.077400
     15 C18         1.0500    0.5390    3.0850 c3        1 OPB     -0.062400
     16 N2         -0.5720   -0.4190    0.0700 n         1 OPB     -0.229600
     17 C3         -0.4690   -0.7160    1.4870 c         1 OPB      0.678500
     18 C4          0.9650   -0.4570    1.9480 c3        1 OPB     -0.226700
     19 C5          1.6250    0.0710    0.6740 c         1 OPB      0.674500
     20 N1          0.6290    0.1630   -0.3750 n         1 OPB     -0.222600
     21 O3         -1.3860   -1.1880    2.1570 o         1 OPB     -0.550500
     22 O5          2.7920    0.4410    0.5510 o         1 OPB     -0.553500
     23 O9          2.3150   -0.8670   -5.6270 oh        1 OPB     -0.495100
     24 H16        -5.1220   -0.6630   -0.5040 ha        1 OPB      0.136000
     25 H17        -2.9640   -1.5360    0.3410 ha        1 OPB      0.153500
     26 H13        -0.9720    2.0280   -1.1980 ha        1 OPB      0.153500
     27 H14        -3.1390    2.8620   -2.0190 ha        1 OPB      0.136000
     28 H15        -5.2270    1.5340   -1.6880 ha        1 OPB      0.135000
     29 H8          0.5130   -2.2300   -4.3880 ha        1 OPB      0.147000
     30 H10         3.2890    1.0760   -4.0080 ha        1 OPB      0.147000
     31 H11         2.5320    1.4650   -1.6800 ha        1 OPB      0.156000
     32 H7         -0.2630   -1.8630   -2.0650 ha        1 OPB      0.156000
     33 H211        0.3170    1.0740    7.6500 hc        1 OPB      0.035367
     34 H212       -0.7170   -0.1430    6.7930 hc        1 OPB      0.035367
     35 H213        1.0280   -0.5030    7.1120 hc        1 OPB      0.035367
     36 H201       -0.0450    1.7560    5.2810 hc        1 OPB      0.040200
     37 H202        1.6960    1.3890    5.5930 hc        1 OPB      0.040200
     38 H191        1.3680   -0.9280    4.6480 hc        1 OPB      0.054200
     39 H192       -0.3670   -0.5430    4.3140 hc        1 OPB      0.054200
     40 H181        0.3850    1.4170    2.8730 hc        1 OPB      0.063700
     41 H182        2.1060    0.9200    3.1410 hc        1 OPB      0.063700
     42 H4          1.4500   -1.4280    2.2390 hc        1 OPB      0.121700
     43 H9          3.0060   -0.2340   -5.8750 ho        1 OPB      0.420000
     44 C19         0.6590   -0.0940    4.4040 c3        1 OPB     -0.088400
@<TRIPOS>BOND
     1    1    2 ar  
     2    1    6 ar  
     3    1   24 1   
     4    2    3 ar  
     5    2   25 1   
     6    3    4 ar  
     7    3   16 1   
     8    4    5 ar  
     9    4   26 1   
    10    5    6 ar  
    11    5   27 1   
    12    6   28 1   
    13    7    8 ar  
    14    7   12 ar  
    15    7   29 1   
    16    8    9 ar  
    17    8   23 1   
    18    9   10 ar  
    19    9   30 1   
    20   10   11 ar  
    21   10   31 1   
    22   11   12 ar  
    23   11   20 1   
    24   12   32 1   
    25   13   14 1   
    26   13   33 1   
    27   13   34 1   
    28   13   35 1   
    29   14   36 1   
    30   14   37 1   
    31   14   44 1   
    32   15   18 1   
    33   15   40 1   
    34   15   41 1   
    35   15   44 1   
    36   16   17 1   
    37   16   20 1   
    38   17   18 1   
    39   17   21 2   
    40   18   19 1   
    41   18   42 1   
    42   19   20 1   
    43   19   22 2   
    44   23   43 1   
    45   38   44 1   
    46   39   44 1   
@<TRIPOS>SUBSTRUCTURE
     1 OPB         1 TEMP              0 ****  ****    0 ROOT
