@<TRIPOS>MOLECULE
OPB
   44    46     1     0     0
SMALL
bcc


@<TRIPOS>ATOM
      1 C16         0.4900    0.8180    1.0720 ce        1 OPB     -0.095500
      2 C17         1.2970   -0.0440    0.4390 c2        1 OPB     -0.172200
      3 C12         2.3260   -0.8520    1.1920 c3        1 OPB      0.135100
      4 C13         1.8870   -1.0650    2.6180 c2        1 OPB     -0.172200
      5 C14         1.0960   -0.1800    3.2400 ce        1 OPB     -0.095500
      6 C15         0.6530    1.0150    2.5170 ce        1 OPB     -0.076100
      7 C8          0.5840    3.4180    3.5370 ce        1 OPB     -0.122100
      8 C9          1.7360    4.3150    3.5220 ce        1 OPB      0.127100
      9 C10         3.0520    4.0530    3.3510 cf        1 OPB     -0.212000
     10 C11         3.7090    2.7780    3.1810 cf        1 OPB     -0.150000
     11 C6          3.4720    1.9250    2.1620 c2        1 OPB     -0.030400
     12 C7          0.5870    2.2060    3.0590 c1        1 OPB      0.012200
     13 C21         6.9410   -5.9280   -0.2600 c3        1 OPB     -0.097100
     14 C20         6.1470   -5.2290    0.8040 c3        1 OPB     -0.097100
     15 C18         7.0370   -1.6310    1.9940 cx        1 OPB     -0.064400
     16 N2          3.6700   -0.2270    1.0430 n         1 OPB     -0.274400
     17 C3          4.7510   -1.1590    0.7760 c         1 OPB      0.700500
     18 C4          5.9830   -0.6780    1.4880 cx        1 OPB     -0.335000
     19 C5          5.5070    0.5060    2.2860 c         1 OPB      0.721500
     20 N1          4.0930    0.6510    2.0600 n         1 OPB     -0.262600
     21 O3          4.6440   -2.1370    0.0330 o         1 OPB     -0.570500
     22 O5          6.1720    1.2060    3.0520 o         1 OPB     -0.572500
     23 O9          1.2980    5.6120    3.7530 oh        1 OPB     -0.514100
     24 H16         1.2540   -0.2120   -0.6460 ha        1 OPB      0.142000
     25 H17        -0.2840    1.4050    0.5570 ha        1 OPB      0.145000
     26 H13         2.4030   -1.8650    0.6830 h1        1 OPB      0.096700
     27 H14         2.2580   -1.9740    3.1100 ha        1 OPB      0.142000
     28 H15         0.7640   -0.3010    4.2810 ha        1 OPB      0.145000
     29 H8         -0.3360    3.8560    3.9730 ha        1 OPB      0.166000
     30 H10         3.7650    4.8990    3.4110 ha        1 OPB      0.129000
     31 H11         4.4900    2.5710    3.9380 ha        1 OPB      0.158000
     32 H7          2.7150    2.1450    1.3830 h4        1 OPB      0.158000
     33 H211        5.7210   -4.2700    0.4150 hc        1 OPB      0.032700
     34 H212        7.3630   -6.8880    0.1260 hc        1 OPB      0.032700
     35 H213        6.2980   -6.1590   -1.1440 hc        1 OPB      0.032700
     36 H201        7.7900   -5.2880   -0.6050 hc        1 OPB      0.032700
     37 H202        5.3010   -5.8710    1.1490 hc        1 OPB      0.032700
     38 H191        6.7900   -4.9980    1.6880 hc        1 OPB      0.032700
     39 H192        8.0200    0.1530    1.0320 hc        1 OPB      0.096450
     40 H181        7.4410   -1.1250   -0.1640 hc        1 OPB      0.096450
     41 H182        7.4730   -1.4320    2.9910 hc        1 OPB      0.096450
     42 H4          6.8910   -2.7100    1.7920 hc        1 OPB      0.096450
     43 H9          2.0660    6.2010    3.7600 ho        1 OPB      0.419000
     44 C19         7.3540   -0.7140    0.8590 cx        1 OPB     -0.064400
@<TRIPOS>BOND
     1    1    2 2   
     2    1    6 1   
     3    1   25 1   
     4    2    3 1   
     5    2   24 1   
     6    3    4 1   
     7    3   16 1   
     8    3   26 1   
     9    4    5 2   
    10    4   27 1   
    11    5    6 1   
    12    5   28 1   
    13    6   12 2   
    14    7    8 1   
    15    7   12 2   
    16    7   29 1   
    17    8    9 2   
    18    8   23 1   
    19    9   10 1   
    20    9   30 1   
    21   10   11 2   
    22   10   31 1   
    23   11   20 1   
    24   11   32 1   
    25   13   14 1   
    26   13   34 1   
    27   13   35 1   
    28   13   36 1   
    29   14   33 1   
    30   14   37 1   
    31   14   38 1   
    32   15   18 1   
    33   15   41 1   
    34   15   42 1   
    35   15   44 1   
    36   16   17 1   
    37   16   20 1   
    38   17   18 1   
    39   17   21 2   
    40   18   19 1   
    41   18   44 1   
    42   19   20 1   
    43   19   22 2   
    44   23   43 1   
    45   39   44 1   
    46   40   44 1   
@<TRIPOS>SUBSTRUCTURE
     1 OPB         1 TEMP              0 ****  ****    0 ROOT
