@<TRIPOS>MOLECULE
OPB
   44    40     1     0     0
SMALL
bcc


@<TRIPOS>ATOM
      1 C16        -4.4160   -0.1800   -1.7740 c1        1 OPB     -0.068333
      2 C17        -3.0360   -0.1330   -1.6650 c1        1 OPB     -0.040000
      3 C12        -2.4310   -0.3000   -0.4290 c1        1 OPB      0.012200
      4 C13        -3.2090   -0.5140    0.6980 c1        1 OPB     -0.068333
      5 C14        -4.5890   -0.5600    0.5890 c1        1 OPB     -0.068333
      6 C15        -5.1930   -0.3930   -0.6470 c1        1 OPB     -0.068333
      7 C8         -1.0720    3.6430    2.0730 c1        1 OPB     -0.148500
      8 C9         -1.0770    4.6310    1.1010 c1        1 OPB      0.105600
      9 C10        -0.8220    4.3040   -0.2210 c1        1 OPB     -0.068333
     10 C11        -0.5600    2.9880   -0.5720 c1        1 OPB     -0.068333
     11 C6         -0.5550    2.0000    0.4000 c1        1 OPB      0.012200
     12 C7         -0.8110    2.3280    1.7230 c1        1 OPB     -0.040000
     13 C21         5.6230   -3.1400   -0.3260 c3        1 OPB     -0.093100
     14 C20         4.2360   -3.1430    0.2810 c3        1 OPB     -0.077400
     15 C19         3.2820   -2.4080   -0.6370 c3        1 OPB     -0.088400
     16 C18         1.9960   -2.1120    0.1050 c3        1 OPB     -0.062400
     17 N2         -1.0180   -0.3720   -0.3370 n         1 OPB     -0.240200
     18 C3         -0.2030   -1.4930   -0.7210 c         1 OPB      0.676500
     19 C4          1.2150   -1.0750   -0.6430 c3        1 OPB     -0.226700
     20 C5          1.1620    0.1600    0.1510 c         1 OPB      0.676500
     21 N1         -0.1570    0.6800    0.0630 n         1 OPB     -0.240200
     22 O3         -0.6060   -2.6050   -1.0000 o         1 OPB     -0.552000
     23 O5          2.0960    0.6770    0.7300 o         1 OPB     -0.552000
     24 O9         -1.2730    5.9760    1.4670 oh        1 OPB     -0.478600
     25 H16        -4.8410   -0.0620   -2.6450 ha        1 OPB      0.086833
     26 H17        -2.4880    0.0170   -2.4600 ha        1 OPB      0.100000
     27 H13        -2.7840   -0.6310    1.5690 ha        1 OPB      0.086833
     28 H14        -5.1370   -0.7100    1.3830 ha        1 OPB      0.086833
     29 H15        -6.1650   -0.4260   -0.7240 ha        1 OPB      0.086833
     30 H8         -1.2520    3.8740    3.0040 ha        1 OPB      0.081500
     31 H10        -0.8260    5.0000   -0.9050 ha        1 OPB      0.086833
     32 H11        -0.3800    2.7580   -1.5030 ha        1 OPB      0.086833
     33 H7         -0.8070    1.6320    2.4070 ha        1 OPB      0.100000
     34 H211        6.2760   -3.4160    0.3510 hc        1 OPB      0.035033
     35 H212        5.8400   -2.2380   -0.6410 hc        1 OPB      0.035033
     36 H213        5.6510   -3.7650   -1.0810 hc        1 OPB      0.035033
     37 H201        4.2600   -2.6970    1.1510 hc        1 OPB      0.040200
     38 H202        3.9320   -4.0660    0.3950 hc        1 OPB      0.040200
     39 H191        3.6910   -1.5680   -0.9280 hc        1 OPB      0.054200
     40 H192        3.0870   -2.9640   -1.4180 hc        1 OPB      0.054200
     41 H181        2.2050   -1.7780    1.0000 hc        1 OPB      0.063200
     42 H182        1.4650   -2.9300    0.1770 hc        1 OPB      0.063200
     43 H4          1.7130   -1.0410   -1.4840 hc        1 OPB      0.121700
     44 H9         -2.0200    6.0480    1.9440 ho        1 OPB      0.420000
@<TRIPOS>BOND
     1    1    6 3   
     2    1   25 1   
     3    2    3 3   
     4    2   26 1   
     5    3   17 1   
     6    4    5 3   
     7    4   27 1   
     8    5   28 1   
     9    6   29 1   
    10    7    8 3   
    11    7   30 1   
    12    8   24 1   
    13    9   10 3   
    14    9   31 1   
    15   10   32 1   
    16   11   12 3   
    17   11   21 1   
    18   12   33 1   
    19   13   14 1   
    20   13   34 1   
    21   13   35 1   
    22   13   36 1   
    23   14   15 1   
    24   14   37 1   
    25   14   38 1   
    26   15   16 1   
    27   15   39 1   
    28   15   40 1   
    29   16   19 1   
    30   16   41 1   
    31   16   42 1   
    32   17   18 1   
    33   17   21 1   
    34   18   19 1   
    35   18   22 2   
    36   19   20 1   
    37   19   43 1   
    38   20   21 1   
    39   20   23 2   
    40   24   44 1   
@<TRIPOS>SUBSTRUCTURE
     1 OPB         1 TEMP              0 ****  ****    0 ROOT
