@<TRIPOS>MOLECULE
OPB
   44    44     1     0     0
SMALL
bcc


@<TRIPOS>ATOM
      1 C16        -1.3310    0.4900    2.1160 c1        1 OPB     -0.195000
      2 C17         1.7950    0.6350    0.3570 c2        1 OPB     -0.201000
      3 C12         2.3470   -0.3050    1.1480 c2        1 OPB     -0.008000
      4 C13         1.5970   -1.5010    1.5580 c2        1 OPB     -0.098000
      5 C14         0.3030   -1.5220    1.9170 c2        1 OPB     -0.056000
      6 C15        -0.5610   -0.4220    2.0120 c1        1 OPB     -0.140000
      7 C8          2.1550    4.5070    2.3300 c2        1 OPB     -0.441000
      8 C9          2.2090    4.2710    3.7620 c2        1 OPB      0.139000
      9 C10         2.5880    3.0950    4.3180 c2        1 OPB     -0.271000
     10 C11         2.9780    1.9540    3.5230 c2        1 OPB     -0.129000
     11 C6          3.9430    2.0240    2.5780 c2        1 OPB     -0.047000
     12 C7          2.6780    3.7280    1.3970 c1        1 OPB      0.196000
     13 C21         6.7020   -6.1710    1.4540 c3        1 OPB     -0.215000
     14 C20         6.4430   -4.9690    2.3140 c3        1 OPB     -0.215000
     15 C18         7.2640   -1.2900    1.3390 cx        1 OPB     -0.141500
     16 N2          3.6900   -0.2430    1.6920 n         1 OPB     -0.143000
     17 C3          4.6290   -1.2370    1.1860 c2        1 OPB      0.319000
     18 C4          5.9720   -0.5790    1.0170 cx        1 OPB     -0.238000
     19 C5          5.7370    0.8550    1.3930 c2        1 OPB      0.332000
     20 N1          4.3240    1.0140    1.6610 n         1 OPB     -0.182000
     21 O3          4.3660   -2.4280    1.0180 o         1 OPB     -0.287000
     22 O5          6.5520    1.7760    1.4280 o         1 OPB     -0.288000
     23 O9          1.8050    5.3660    4.4930 oh        1 OPB     -0.254000
     24 H16         0.7490    0.5390    0.0320 ha        1 OPB      0.144500
     25 H17        -2.0090    1.3000    2.2080 ha        1 OPB      0.225000
     26 H13         2.3130    1.5450    0.0200 ha        1 OPB      0.144500
     27 H14         2.1690   -2.4490    1.5510 ha        1 OPB      0.162000
     28 H15        -0.1650   -2.4920    2.1780 ha        1 OPB      0.143000
     29 H8          1.6140    5.4260    2.0190 ha        1 OPB      0.206000
     30 H10         2.5580    2.9430    5.4070 ha        1 OPB      0.146000
     31 H11         2.4210    1.0230    3.7310 ha        1 OPB      0.155000
     32 H7          4.5910    2.9200    2.4450 h4        1 OPB      0.182000
     33 H211        5.9570   -5.2690    3.2740 hc        1 OPB      0.071833
     34 H212        5.7450   -6.6930    1.2100 hc        1 OPB      0.071833
     35 H213        7.3720   -6.8960    1.9760 hc        1 OPB      0.071833
     36 H201        7.1900   -5.8730    0.4940 hc        1 OPB      0.071833
     37 H202        5.7680   -4.2450    1.7920 hc        1 OPB      0.071833
     38 H191        7.4000   -4.4460    2.5580 hc        1 OPB      0.071833
     39 H192        6.6150   -1.8030   -0.7560 hc        1 OPB      0.136750
     40 H181        7.4710   -0.1770   -0.6080 hc        1 OPB      0.136750
     41 H182        7.1950   -2.3360    1.6980 hc        1 OPB      0.136750
     42 H4          8.0580   -0.7110    1.8460 hc        1 OPB      0.136750
     43 H9          1.9070    5.1580    5.4330 ho        1 OPB      0.221000
     44 C19         6.9250   -0.9820   -0.0820 cx        1 OPB     -0.141500
@<TRIPOS>BOND
     1    1    6 1   
     2    1   25 1   
     3    2    3 1   
     4    2   24 1   
     5    2   26 1   
     6    3    4 1   
     7    3   16 1   
     8    4    5 1   
     9    4   27 1   
    10    5    6 1   
    11    5   28 1   
    12    7    8 1   
    13    7   12 1   
    14    7   29 1   
    15    8    9 1   
    16    8   23 1   
    17    9   10 1   
    18    9   30 1   
    19   10   11 1   
    20   10   31 1   
    21   11   20 1   
    22   11   32 1   
    23   13   14 1   
    24   13   34 1   
    25   13   35 1   
    26   13   36 1   
    27   14   33 1   
    28   14   37 1   
    29   14   38 1   
    30   15   18 1   
    31   15   41 1   
    32   15   42 1   
    33   15   44 1   
    34   16   17 1   
    35   16   20 1   
    36   17   18 1   
    37   17   21 1   
    38   18   19 1   
    39   18   44 1   
    40   19   20 1   
    41   19   22 1   
    42   23   43 1   
    43   39   44 1   
    44   40   44 1   
@<TRIPOS>SUBSTRUCTURE
     1 OPB         1 TEMP              0 ****  ****    0 ROOT
