@<TRIPOS>MOLECULE
OPB
   44    42     1     0     0
SMALL
bcc


@<TRIPOS>ATOM
      1 C16        -0.5040   -1.2950   -0.4830 c1        1 OPB     -0.198000
      2 C17         1.4990    0.9690    1.3740 c2        1 OPB     -0.209000
      3 C12         2.3490    0.0400    1.8540 c2        1 OPB     -0.005000
      4 C13         1.9050   -1.3210    2.1830 c2        1 OPB     -0.091000
      5 C14         0.9310   -2.0080    1.5650 c2        1 OPB     -0.055000
      6 C15         0.1660   -1.5970    0.4640 c1        1 OPB     -0.136000
      7 C8          1.8830    4.8870    3.2470 c2        1 OPB     -0.441000
      8 C9          2.2920    4.6500    4.6190 c2        1 OPB      0.141000
      9 C10         2.9060    3.5190    5.0420 c2        1 OPB     -0.272000
     10 C11         3.2240    2.4230    4.1570 c2        1 OPB     -0.130000
     11 C6          3.9230    2.5910    3.0100 c2        1 OPB     -0.053000
     12 C7          2.2520    4.1770    2.1920 c1        1 OPB      0.198000
     13 C21         5.2530   -6.7490    2.0330 c3        1 OPB     -0.269000
     14 C20         7.1390   -3.8840    0.5870 c2        1 OPB     -0.228500
     15 C18         6.9970   -0.2620    0.5750 c2        1 OPB     -0.037000
     16 N2          3.7360    0.2970    2.1930 n         1 OPB     -0.153000
     17 C3          4.7080   -0.6140    1.5950 c2        1 OPB      0.321000
     18 C4          5.8850    0.1890    1.1500 c2        1 OPB     -0.243000
     19 C5          5.5520    1.6010    1.4870 c2        1 OPB      0.330000
     20 N1          4.2000    1.6170    2.0180 n         1 OPB     -0.174000
     21 O3          4.5860   -1.8390    1.5610 o         1 OPB     -0.281000
     22 O5          6.2370    2.6110    1.3220 o         1 OPB     -0.283000
     23 O9          1.9590    5.6930    5.4540 oh        1 OPB     -0.254000
     24 H16         1.7800    2.0050    1.1320 ha        1 OPB      0.146000
     25 H17        -1.0940   -1.0250   -1.3210 ha        1 OPB      0.225000
     26 H13         0.4400    0.7210    1.2180 ha        1 OPB      0.146000
     27 H14         2.4460   -1.8110    3.0150 ha        1 OPB      0.149000
     28 H15         0.6830   -3.0250    1.9310 ha        1 OPB      0.143000
     29 H8          1.1910    5.7430    3.0980 ha        1 OPB      0.207000
     30 H10         3.1410    3.3650    6.1060 ha        1 OPB      0.146000
     31 H11         2.8480    1.4360    4.4780 ha        1 OPB      0.152000
     32 H7          4.4080    3.5560    2.7360 h4        1 OPB      0.183000
     33 H211        4.3130   -6.4240    2.5290 hc        1 OPB      0.067000
     34 H212        5.9070   -7.2560    2.7750 hc        1 OPB      0.067000
     35 H213        5.0110   -7.4540    1.2080 hc        1 OPB      0.067000
     36 H201        5.7790   -5.8600    1.6190 hc        1 OPB      0.067000
     37 H202        7.7060   -4.3990    1.3750 ha        1 OPB      0.115250
     38 H191        6.1430   -3.5310    0.8960 ha        1 OPB      0.115250
     39 H192        8.6100   -4.0640   -0.9460 ha        1 OPB      0.115250
     40 H181        7.0480   -3.2010   -1.4290 ha        1 OPB      0.115250
     41 H182        7.1520   -1.3390    0.3790 ha        1 OPB      0.150500
     42 H4          7.8060    0.4190    0.2690 ha        1 OPB      0.150500
     43 H9          2.2930    5.4920    6.3400 ho        1 OPB      0.222000
     44 C19         7.6180   -3.7070   -0.6370 c2        1 OPB     -0.228500
@<TRIPOS>BOND
     1    1    6 1   
     2    1   25 1   
     3    2    3 1   
     4    2   24 1   
     5    2   26 1   
     6    3    4 1   
     7    3   16 1   
     8    4    5 1   
     9    4   27 1   
    10    5    6 1   
    11    5   28 1   
    12    7    8 1   
    13    7   12 1   
    14    7   29 1   
    15    8    9 1   
    16    8   23 1   
    17    9   10 1   
    18    9   30 1   
    19   10   11 1   
    20   10   31 1   
    21   11   20 1   
    22   11   32 1   
    23   13   33 1   
    24   13   34 1   
    25   13   35 1   
    26   13   36 1   
    27   14   37 1   
    28   14   38 1   
    29   14   44 1   
    30   15   18 1   
    31   15   41 1   
    32   15   42 1   
    33   16   17 1   
    34   16   20 1   
    35   17   18 1   
    36   17   21 1   
    37   18   19 1   
    38   19   20 1   
    39   19   22 1   
    40   23   43 1   
    41   39   44 1   
    42   40   44 1   
@<TRIPOS>SUBSTRUCTURE
     1 OPB         1 TEMP              0 ****  ****    0 ROOT
