@<TRIPOS>MOLECULE
OPC
  141   140     1     0     0
SMALL
bcc


@<TRIPOS>ATOM
      1 CBF       -21.2420    5.0430   -1.5950 c3        1 OPC     -0.092100
      2 CBE       -20.0810    4.1260   -1.8840 c3        1 OPC     -0.080400
      3 CBD       -19.3670    3.7160   -0.6140 c3        1 OPC     -0.079400
      4 CBC       -18.2020    2.7960   -0.9080 c3        1 OPC     -0.079400
      5 CBB       -17.4900    2.3870    0.3630 c3        1 OPC     -0.078400
      6 CBA       -16.3250    1.4660    0.0680 c3        1 OPC     -0.079400
      7 CAZ       -15.6120    1.0570    1.3390 c3        1 OPC     -0.079400
      8 CAY       -14.4470    0.1370    1.0420 c3        1 OPC     -0.076400
      9 CAX       -13.7360   -0.2730    2.3180 c3        1 OPC     -0.048200
     10 CAW       -12.6030   -1.1870    2.0400 c2        1 OPC     -0.171200
     11 CAV       -11.3990   -1.0650    2.6050 c2        1 OPC     -0.170200
     12 CAU       -10.2790   -2.0060    2.3610 c3        1 OPC     -0.048200
     13 CAT        -8.9750   -1.2690    2.1220 c3        1 OPC     -0.075400
     14 CAS        -7.8350   -2.2390    1.8960 c3        1 OPC     -0.079400
     15 CAR        -6.5330   -1.5060    1.6550 c3        1 OPC     -0.078400
     16 CAQ        -5.3950   -2.4780    1.4290 c3        1 OPC     -0.079400
     17 CAP        -4.0930   -1.7400    1.2040 c3        1 OPC     -0.129400
     18 CAO        -2.9890   -2.6880    0.8400 c         1 OPC      0.661100
     19 OAD        -3.0670   -3.7480    0.2180 o         1 OPC     -0.548000
     20 OAN        -1.7820   -2.2530    1.3130 os        1 OPC     -0.438900
     21 CAM        -0.5620   -2.8660    0.8510 c3        1 OPC      0.148800
     22 CAL        -0.4570   -2.8180   -0.6860 c3        1 OPC      0.159400
     23 OAK        -0.9640   -1.6180   -1.1980 os        1 OPC     -0.559200
     24 PAJ         0.0540   -0.6800   -2.0520 p5        1 OPC      1.439800
     25 OBH        -0.1730   -0.6930   -3.5020 o         1 OPC     -0.833000
     26 OAB         1.4110   -0.7460   -1.4520 o         1 OPC     -0.833000
     27 OAI        -0.4940    0.8070   -1.5230 os        1 OPC     -0.565200
     28 CAH        -0.3850    1.8500   -2.4230 c3        1 OPC      0.182400
     29 CAG         0.3890    3.0300   -1.8010 c3        1 OPC      0.088800
     30 NAF         1.7870    2.7420   -1.3250 n4        1 OPC     -0.584800
     31 CAE         2.5480    1.9720   -2.3500 c3        1 OPC      0.081767
     32 CBG         2.4750    4.0430   -1.0830 c3        1 OPC      0.081767
     33 CAA         1.7560    1.9690   -0.0440 c3        1 OPC      0.081767
     34 CAC        -0.4490   -4.3030    1.3350 c3        1 OPC     -0.121100
     35 CBI         0.5210   -2.0030    1.5390 c3        1 OPC      0.146400
     36 OBJ         1.7810   -2.4050    0.9940 os        1 OPC     -0.440900
     37 CBK         2.7130   -1.4320    0.7510 c         1 OPC      0.704100
     38 OCC         2.5670   -0.3270    1.2840 o         1 OPC     -0.603000
     39 CBL         3.8170   -1.9140   -0.1340 c3        1 OPC     -0.137400
     40 CBM         5.1420   -1.2850    0.2350 c3        1 OPC     -0.073400
     41 CBN         6.2070   -1.6410   -0.7800 c3        1 OPC     -0.080400
     42 CBO         7.5410   -1.0290   -0.4110 c3        1 OPC     -0.078400
     43 CBP         8.6020   -1.3670   -1.4360 c3        1 OPC     -0.078400
     44 CBQ         9.9380   -0.7590   -1.0620 c3        1 OPC     -0.048200
     45 CBR        10.9930   -1.0630   -2.0570 c2        1 OPC     -0.175200
     46 CBS        12.2590   -0.6470   -1.9470 c2        1 OPC     -0.173200
     47 CBT        12.7630    0.1680   -0.8160 c3        1 OPC     -0.049200
     48 CBU        14.2290    0.5150   -0.9660 c3        1 OPC     -0.077400
     49 CBV        14.7160    1.3470    0.2020 c3        1 OPC     -0.079400
     50 CBW        16.1820    1.6950    0.0540 c3        1 OPC     -0.079400
     51 CBX        16.6690    2.5270    1.2210 c3        1 OPC     -0.078400
     52 CBY        18.1340    2.8750    1.0730 c3        1 OPC     -0.079400
     53 CBZ        18.6220    3.7070    2.2400 c3        1 OPC     -0.079400
     54 CCA        20.0880    4.0560    2.0940 c3        1 OPC     -0.080400
     55 CCB        20.5780    4.8840    3.2540 c3        1 OPC     -0.092100
     56 HBF1      -21.9870    4.5390   -0.9330 hc        1 OPC      0.032367
     57 HBF2      -20.8920    5.9730   -1.0850 hc        1 OPC      0.032367
     58 HBF3      -21.7530    5.3320   -2.5450 hc        1 OPC      0.032367
     59 HBE1      -19.3570    4.6400   -2.5700 hc        1 OPC      0.038700
     60 HBE2      -20.4480    3.2100   -2.4180 hc        1 OPC      0.038700
     61 HBD1      -20.0900    3.2010    0.0730 hc        1 OPC      0.039200
     62 HBD2      -18.9980    4.6310   -0.0790 hc        1 OPC      0.039200
     63 HBC1      -17.4800    3.3110   -1.5950 hc        1 OPC      0.039700
     64 HBC2      -18.5720    1.8810   -1.4440 hc        1 OPC      0.039700
     65 HBB1      -18.2120    1.8710    1.0500 hc        1 OPC      0.039200
     66 HBB2      -17.1200    3.3010    0.8980 hc        1 OPC      0.039200
     67 HBA1      -15.6030    1.9820   -0.6190 hc        1 OPC      0.039700
     68 HBA2      -16.6940    0.5520   -0.4680 hc        1 OPC      0.039700
     69 HAZ1      -16.3340    0.5410    2.0250 hc        1 OPC      0.039200
     70 HAZ2      -15.2430    1.9720    1.8740 hc        1 OPC      0.039200
     71 HAY1      -13.7230    0.6530    0.3590 hc        1 OPC      0.042200
     72 HAY2      -14.8150   -0.7770    0.5060 hc        1 OPC      0.042200
     73 HAX1      -14.4640   -0.7970    2.9960 hc        1 OPC      0.044700
     74 HAX2      -13.3840    0.6450    2.8600 hc        1 OPC      0.044700
     75 HAW       -12.8210   -2.0020    1.3300 ha        1 OPC      0.121000
     76 HAV       -11.1780   -0.2450    3.3080 ha        1 OPC      0.119000
     77 HAU1      -10.5000   -2.6690    1.4820 hc        1 OPC      0.046700
     78 HAU2      -10.1680   -2.6750    3.2580 hc        1 OPC      0.046700
     79 HAT1       -8.7450   -0.6150    3.0030 hc        1 OPC      0.041200
     80 HAT2       -9.0820   -0.5980    1.2300 hc        1 OPC      0.041200
     81 HAS1       -8.0660   -2.8930    1.0140 hc        1 OPC      0.042700
     82 HAS2       -7.7300   -2.9110    2.7880 hc        1 OPC      0.042700
     83 HAR1       -6.3010   -0.8510    2.5360 hc        1 OPC      0.039200
     84 HAR2       -6.6380   -0.8350    0.7620 hc        1 OPC      0.039200
     85 HAQ1       -5.6140   -3.1280    0.5400 hc        1 OPC      0.056200
     86 HAQ2       -5.2940   -3.1580    2.3160 hc        1 OPC      0.056200
     87 HAP1       -3.8050   -1.1560    2.1160 hc        1 OPC      0.078200
     88 HAP2       -4.1930   -1.0160    0.3500 hc        1 OPC      0.078200
     89 HAL1        0.6220   -2.9500   -0.9740 h1        1 OPC      0.063200
     90 HAL2       -1.0870   -3.6550   -1.1070 h1        1 OPC      0.063200
     91 HAH1        0.0930    1.5150   -3.3870 h1        1 OPC      0.065200
     92 HAH2       -1.4130    2.2630   -2.6460 h1        1 OPC      0.065200
     93 HAG1        0.4540    3.8440   -2.5750 hx        1 OPC      0.078200
     94 HAG2       -0.1880    3.4020   -0.9080 hx        1 OPC      0.078200
     95 HAE1        2.4300    2.4640   -3.3490 hx        1 OPC      0.100478
     96 HAE2        3.6290    1.9390   -2.0580 hx        1 OPC      0.100478
     97 HAE3        2.1490    0.9080   -2.3810 hx        1 OPC      0.100478
     98 HBG1        1.8740    4.6510   -0.3580 hx        1 OPC      0.100478
     99 HBG2        3.4920    3.8500   -0.6520 hx        1 OPC      0.100478
    100 HBG3        2.5780    4.6010   -2.0500 hx        1 OPC      0.100478
    101 HAA1        1.2810    0.9520   -0.2330 hx        1 OPC      0.100478
    102 HAA2        2.8050    1.8010    0.3170 hx        1 OPC      0.100478
    103 HAA3        1.1640    2.5360    0.7160 hx        1 OPC      0.100478
    104 HAC1       -0.6550   -4.3530    2.4300 hc        1 OPC      0.054367
    105 HAC2       -1.1810   -4.9570    0.8030 hc        1 OPC      0.054367
    106 HAC3        0.5880   -4.6690    1.1410 hc        1 OPC      0.054367
    107 HBI1        0.5480   -2.2170    2.6390 h1        1 OPC      0.064200
    108 HBI2        0.3290   -0.9130    1.3670 h1        1 OPC      0.064200
    109 HBL1        3.5050   -1.6270   -1.1810 hc        1 OPC      0.098200
    110 HBL2        3.8820   -3.0320   -0.0870 hc        1 OPC      0.098200
    111 HBM1        5.4580   -1.6330    1.2530 hc        1 OPC      0.044200
    112 HBM2        5.0230   -0.1700    0.2910 hc        1 OPC      0.044200
    113 HBN1        5.8950   -1.2820   -1.7960 hc        1 OPC      0.043200
    114 HBN2        6.3090   -2.7570   -0.8420 hc        1 OPC      0.043200
    115 HBO1        7.8600   -1.4030    0.5980 hc        1 OPC      0.037700
    116 HBO2        7.4360    0.0850   -0.3310 hc        1 OPC      0.037700
    117 HBP1        8.2860   -0.9900   -2.4440 hc        1 OPC      0.042700
    118 HBP2        8.7060   -2.4810   -1.5170 hc        1 OPC      0.042700
    119 HBQ1       10.2550   -1.1400   -0.0520 hc        1 OPC      0.046700
    120 HBQ2        9.8290    0.3570   -0.9630 hc        1 OPC      0.046700
    121 HBR        10.6800   -1.6700   -2.9220 ha        1 OPC      0.123000
    122 HBS        12.9990   -0.9080   -2.7210 ha        1 OPC      0.123000
    123 HBT1       12.6050   -0.3930    0.1460 hc        1 OPC      0.046700
    124 HBT2       12.1590    1.1130   -0.7390 hc        1 OPC      0.046700
    125 HBU1       14.3870    1.0800   -1.9220 hc        1 OPC      0.042200
    126 HBU2       14.8340   -0.4280   -1.0340 hc        1 OPC      0.042200
    127 HBV1       14.5580    0.7810    1.1580 hc        1 OPC      0.039200
    128 HBV2       14.1110    2.2890    0.2710 hc        1 OPC      0.039200
    129 HBW1       16.3400    2.2600   -0.9020 hc        1 OPC      0.040200
    130 HBW2       16.7870    0.7530   -0.0150 hc        1 OPC      0.040200
    131 HBX1       16.5110    1.9620    2.1780 hc        1 OPC      0.039200
    132 HBX2       16.0630    3.4690    1.2910 hc        1 OPC      0.039200
    133 HBY1       18.2920    3.4410    0.1170 hc        1 OPC      0.039700
    134 HBY2       18.7400    1.9330    1.0040 hc        1 OPC      0.039700
    135 HBZ1       18.4650    3.1420    3.1970 hc        1 OPC      0.039200
    136 HBZ2       18.0170    4.6490    2.3100 hc        1 OPC      0.039200
    137 HCA1       20.2430    4.6200    1.1360 hc        1 OPC      0.038700
    138 HCA2       20.6910    3.1130    2.0230 hc        1 OPC      0.038700
    139 HCB1       21.6590    5.1300    3.1260 hc        1 OPC      0.032367
    140 HCB2       20.0040    5.8400    3.3260 hc        1 OPC      0.032367
    141 HCB3       20.4540    4.3290    4.2150 hc        1 OPC      0.032367
@<TRIPOS>BOND
     1    1    2 1   
     2    1   56 1   
     3    1   57 1   
     4    1   58 1   
     5    2    3 1   
     6    2   59 1   
     7    2   60 1   
     8    3    4 1   
     9    3   61 1   
    10    3   62 1   
    11    4    5 1   
    12    4   63 1   
    13    4   64 1   
    14    5    6 1   
    15    5   65 1   
    16    5   66 1   
    17    6    7 1   
    18    6   67 1   
    19    6   68 1   
    20    7    8 1   
    21    7   69 1   
    22    7   70 1   
    23    8    9 1   
    24    8   71 1   
    25    8   72 1   
    26    9   10 1   
    27    9   73 1   
    28    9   74 1   
    29   10   11 2   
    30   10   75 1   
    31   11   12 1   
    32   11   76 1   
    33   12   13 1   
    34   12   77 1   
    35   12   78 1   
    36   13   14 1   
    37   13   79 1   
    38   13   80 1   
    39   14   15 1   
    40   14   81 1   
    41   14   82 1   
    42   15   16 1   
    43   15   83 1   
    44   15   84 1   
    45   16   17 1   
    46   16   85 1   
    47   16   86 1   
    48   17   18 1   
    49   17   87 1   
    50   17   88 1   
    51   18   19 2   
    52   18   20 1   
    53   20   21 1   
    54   21   22 1   
    55   21   34 1   
    56   21   35 1   
    57   22   23 1   
    58   22   89 1   
    59   22   90 1   
    60   23   24 1   
    61   24   25 1   
    62   24   26 1   
    63   24   27 1   
    64   27   28 1   
    65   28   29 1   
    66   28   91 1   
    67   28   92 1   
    68   29   30 1   
    69   29   93 1   
    70   29   94 1   
    71   30   31 1   
    72   30   32 1   
    73   30   33 1   
    74   31   95 1   
    75   31   96 1   
    76   31   97 1   
    77   32   98 1   
    78   32   99 1   
    79   32  100 1   
    80   33  101 1   
    81   33  102 1   
    82   33  103 1   
    83   34  104 1   
    84   34  105 1   
    85   34  106 1   
    86   35   36 1   
    87   35  107 1   
    88   35  108 1   
    89   36   37 1   
    90   37   38 2   
    91   37   39 1   
    92   39   40 1   
    93   39  109 1   
    94   39  110 1   
    95   40   41 1   
    96   40  111 1   
    97   40  112 1   
    98   41   42 1   
    99   41  113 1   
   100   41  114 1   
   101   42   43 1   
   102   42  115 1   
   103   42  116 1   
   104   43   44 1   
   105   43  117 1   
   106   43  118 1   
   107   44   45 1   
   108   44  119 1   
   109   44  120 1   
   110   45   46 2   
   111   45  121 1   
   112   46   47 1   
   113   46  122 1   
   114   47   48 1   
   115   47  123 1   
   116   47  124 1   
   117   48   49 1   
   118   48  125 1   
   119   48  126 1   
   120   49   50 1   
   121   49  127 1   
   122   49  128 1   
   123   50   51 1   
   124   50  129 1   
   125   50  130 1   
   126   51   52 1   
   127   51  131 1   
   128   51  132 1   
   129   52   53 1   
   130   52  133 1   
   131   52  134 1   
   132   53   54 1   
   133   53  135 1   
   134   53  136 1   
   135   54   55 1   
   136   54  137 1   
   137   54  138 1   
   138   55  139 1   
   139   55  140 1   
   140   55  141 1   
@<TRIPOS>SUBSTRUCTURE
     1 OPC         1 TEMP              0 ****  ****    0 ROOT
