@<TRIPOS>MOLECULE
OPC
  141   140     1     0     0
SMALL
bcc


@<TRIPOS>ATOM
      1 CBF         0.2350   -0.3870   -0.6970 c3        1 OPC     -0.092100
      2 CBE         1.7390   -0.2940   -0.6870 c3        1 OPC     -0.080400
      3 CBD         2.2880   -0.3120    0.7240 c3        1 OPC     -0.079400
      4 CBC         3.7990   -0.2190    0.7280 c3        1 OPC     -0.079400
      5 CBB         4.3460   -0.2370    2.1390 c3        1 OPC     -0.079400
      6 CBA         5.8570   -0.1450    2.1440 c3        1 OPC     -0.078400
      7 CAZ         6.4040   -0.1630    3.5550 c3        1 OPC     -0.079400
      8 CAY         7.9150   -0.0720    3.5590 c3        1 OPC     -0.076400
      9 CAX         8.4600   -0.0940    4.9730 c3        1 OPC     -0.048200
     10 CAW         9.9410   -0.0230    4.9880 c2        1 OPC     -0.172200
     11 CAV        10.6360    0.7580    5.8200 c2        1 OPC     -0.171200
     12 CAU        12.1170    0.7950    5.8670 c3        1 OPC     -0.049200
     13 CAT        12.6370    2.2170    5.9490 c3        1 OPC     -0.075400
     14 CAS        14.1490    2.2410    6.0100 c3        1 OPC     -0.080400
     15 CAR        14.6710    3.6590    6.0950 c3        1 OPC     -0.077400
     16 CAQ        16.1840    3.6780    6.1550 c3        1 OPC     -0.080400
     17 CAP        16.7010    5.1000    6.2250 c3        1 OPC     -0.127400
     18 CAO        18.1910    5.1110    6.4120 c         1 OPC      0.649100
     19 OAD        18.8500    4.4710    7.2320 o         1 OPC     -0.544000
     20 OAN        18.7980    5.9810    5.5570 os        1 OPC     -0.445900
     21 CAM        20.2410    6.0930    5.5080 c3        1 OPC      0.153800
     22 CAL        20.8760    4.7760    5.0260 c3        1 OPC      0.169400
     23 OAK        20.5710    4.5290    3.6840 os        1 OPC     -0.577200
     24 PAJ        21.8370    4.0550    2.7510 p5        1 OPC      1.446800
     25 OBH        22.5700    2.9400    3.3460 o         1 OPC     -0.828500
     26 OAB        22.4160    5.3180    2.2220 o         1 OPC     -0.828500
     27 OAI        20.9070    3.5590    1.4570 os        1 OPC     -0.559200
     28 CAH        21.4140    3.8080    0.1950 c3        1 OPC      0.191400
     29 CAG        20.4010    4.5950   -0.6580 c3        1 OPC      0.092800
     30 NAF        20.2290    6.0580   -0.3510 n4        1 OPC     -0.579800
     31 CAE        21.5360    6.7770   -0.3860 c3        1 OPC      0.083100
     32 CBG        19.3330    6.6430   -1.3930 c3        1 OPC      0.083100
     33 CAA        19.5900    6.2460    0.9850 c3        1 OPC      0.083100
     34 CAC        20.8120    6.4810    6.8620 c3        1 OPC     -0.123100
     35 CBI        20.4200    7.2480    4.5000 c3        1 OPC      0.148400
     36 OBJ        21.8240    7.4440    4.3090 os        1 OPC     -0.434900
     37 CBK        22.2530    7.8230    3.0660 c         1 OPC      0.709100
     38 OCC        21.4080    8.1270    2.2140 o         1 OPC     -0.625000
     39 CBL        23.7440    7.8350    2.9550 c3        1 OPC     -0.138400
     40 CBM        24.2290    9.0310    2.1650 c3        1 OPC     -0.073400
     41 CBN        25.7200    8.9430    1.9210 c3        1 OPC     -0.080400
     42 CBO        26.2190   10.1450    1.1470 c3        1 OPC     -0.078400
     43 CBP        27.7080   10.0500    0.8900 c3        1 OPC     -0.078400
     44 CBQ        28.2080   11.2560    0.1210 c3        1 OPC     -0.048200
     45 CBR        29.6620   11.1860   -0.1500 c2        1 OPC     -0.174200
     46 CBS        30.3500   12.1530   -0.7680 c2        1 OPC     -0.174200
     47 CBT        29.7410   13.4150   -1.2520 c3        1 OPC     -0.049200
     48 CBU        30.7420   14.2980   -1.9680 c3        1 OPC     -0.077400
     49 CBV        30.0940   15.5780   -2.4510 c3        1 OPC     -0.079400
     50 CBW        31.0930   16.4620   -3.1670 c3        1 OPC     -0.079400
     51 CBX        30.4450   17.7420   -3.6500 c3        1 OPC     -0.078400
     52 CBY        31.4440   18.6270   -4.3650 c3        1 OPC     -0.079400
     53 CBZ        30.7970   19.9070   -4.8480 c3        1 OPC     -0.079400
     54 CCA        31.7940   20.7930   -5.5630 c3        1 OPC     -0.080400
     55 CCB        31.1550   22.0690   -6.0460 c3        1 OPC     -0.092100
     56 HBF1       -0.1480   -0.3730   -1.7450 hc        1 OPC      0.032700
     57 HBF2       -0.2170    0.4720   -0.1440 hc        1 OPC      0.032700
     58 HBF3       -0.1050   -1.3330   -0.2100 hc        1 OPC      0.032700
     59 HBE1        2.1730   -1.1510   -1.2670 hc        1 OPC      0.038200
     60 HBE2        2.0620    0.6490   -1.2020 hc        1 OPC      0.038200
     61 HBD1        1.9670   -1.2550    1.2400 hc        1 OPC      0.039700
     62 HBD2        1.8570    0.5450    1.3050 hc        1 OPC      0.039700
     63 HBC1        4.2300   -1.0760    0.1470 hc        1 OPC      0.039200
     64 HBC2        4.1190    0.7240    0.2120 hc        1 OPC      0.039200
     65 HBB1        4.0250   -1.1800    2.6550 hc        1 OPC      0.039700
     66 HBB2        3.9160    0.6210    2.7210 hc        1 OPC      0.039700
     67 HBA1        6.2880   -1.0020    1.5620 hc        1 OPC      0.039700
     68 HBA2        6.1780    0.7990    1.6280 hc        1 OPC      0.039700
     69 HAZ1        6.0830   -1.1060    4.0710 hc        1 OPC      0.039700
     70 HAZ2        5.9740    0.6940    4.1360 hc        1 OPC      0.039700
     71 HAY1        8.3460   -0.9280    2.9750 hc        1 OPC      0.041200
     72 HAY2        8.2370    0.8730    3.0470 hc        1 OPC      0.041200
     73 HAX1        8.0150    0.7550    5.5590 hc        1 OPC      0.045700
     74 HAX2        8.1400   -1.0460    5.4790 hc        1 OPC      0.045700
     75 HAW        10.4500   -0.6800    4.2630 ha        1 OPC      0.120000
     76 HAV        10.1270    1.4210    6.5400 ha        1 OPC      0.120000
     77 HAU1       12.4630    0.2210    6.7700 hc        1 OPC      0.047200
     78 HAU2       12.5560    0.2870    4.9670 hc        1 OPC      0.047200
     79 HAT1       12.2860    2.7970    5.0550 hc        1 OPC      0.040700
     80 HAT2       12.2150    2.7210    6.8580 hc        1 OPC      0.040700
     81 HAS1       14.5710    1.7380    5.0990 hc        1 OPC      0.043700
     82 HAS2       14.5000    1.6570    6.9010 hc        1 OPC      0.043700
     83 HAR1       14.3210    4.2430    5.2040 hc        1 OPC      0.038200
     84 HAR2       14.2510    4.1600    7.0060 hc        1 OPC      0.038200
     85 HAQ1       16.5400    3.1080    7.0540 hc        1 OPC      0.061200
     86 HAQ2       16.6070    3.1690    5.2500 hc        1 OPC      0.061200
     87 HAP1       16.2490    5.6370    7.1010 hc        1 OPC      0.071200
     88 HAP2       16.4290    5.6630    5.2940 hc        1 OPC      0.071200
     89 HAL1       21.9910    4.8490    5.1650 h1        1 OPC      0.057200
     90 HAL2       20.4690    3.9360    5.6590 h1        1 OPC      0.057200
     91 HAH1       22.4030    4.3430    0.2390 h1        1 OPC      0.057700
     92 HAH2       21.5370    2.8220   -0.3470 h1        1 OPC      0.057700
     93 HAG1       19.3910    4.1120   -0.5280 hx        1 OPC      0.079200
     94 HAG2       20.7220    4.5210   -1.7340 hx        1 OPC      0.079200
     95 HAE1       22.0680    6.5240   -1.3360 hx        1 OPC      0.100367
     96 HAE2       22.1580    6.4850    0.5160 hx        1 OPC      0.100367
     97 HAE3       21.3450    7.8810   -0.3160 hx        1 OPC      0.100367
     98 HBG1       19.8230    6.5640   -2.3970 hx        1 OPC      0.100367
     99 HBG2       18.3600    6.0870   -1.4020 hx        1 OPC      0.100367
    100 HBG3       19.1440    7.7220   -1.1530 hx        1 OPC      0.100367
    101 HAA1       18.6110    5.7040    1.0080 hx        1 OPC      0.100367
    102 HAA2       19.4540    7.3430    1.1780 hx        1 OPC      0.100367
    103 HAA3       20.2830    5.8240    1.7760 hx        1 OPC      0.100367
    104 HAC1       21.8470    6.8770    6.7200 hc        1 OPC      0.056700
    105 HAC2       20.8450    5.5970    7.5430 hc        1 OPC      0.056700
    106 HAC3       20.1800    7.2730    7.3300 hc        1 OPC      0.056700
    107 HBI1       19.9090    6.9940    3.5360 h1        1 OPC      0.060200
    108 HBI2       20.0030    8.1990    4.9220 h1        1 OPC      0.060200
    109 HBL1       24.0190    6.8690    2.4390 hc        1 OPC      0.103700
    110 HBL2       24.2030    7.8220    3.9770 hc        1 OPC      0.103700
    111 HBM1       23.6830    9.0780    1.1860 hc        1 OPC      0.043200
    112 HBM2       23.9920    9.9760    2.7210 hc        1 OPC      0.043200
    113 HBN1       25.9540    8.0040    1.3540 hc        1 OPC      0.045200
    114 HBN2       26.2590    8.8780    2.9030 hc        1 OPC      0.045200
    115 HBO1       25.6720   10.2170    0.1700 hc        1 OPC      0.038200
    116 HBO2       25.9950   11.0820    1.7210 hc        1 OPC      0.038200
    117 HBP1       28.2550    9.9740    1.8670 hc        1 OPC      0.043200
    118 HBP2       27.9320    9.1160    0.3120 hc        1 OPC      0.043200
    119 HBQ1       27.9800   12.1930    0.7020 hc        1 OPC      0.046700
    120 HBQ2       27.6510   11.3390   -0.8530 hc        1 OPC      0.046700
    121 HBR        30.1740   10.2710    0.1900 ha        1 OPC      0.123000
    122 HBS        31.4320   12.0410   -0.9420 ha        1 OPC      0.122000
    123 HBT1       29.3020   13.9740   -0.3810 hc        1 OPC      0.046700
    124 HBT2       28.8870   13.1770   -1.9440 hc        1 OPC      0.046700
    125 HBU1       31.5900   14.5440   -1.2750 hc        1 OPC      0.041700
    126 HBU2       31.1770   13.7430   -2.8400 hc        1 OPC      0.041700
    127 HBV1       29.6580   16.1320   -1.5790 hc        1 OPC      0.039200
    128 HBV2       29.2460   15.3320   -3.1440 hc        1 OPC      0.039200
    129 HBW1       31.5290   15.9080   -4.0390 hc        1 OPC      0.040200
    130 HBW2       31.9410   16.7080   -2.4740 hc        1 OPC      0.040200
    131 HBX1       30.0100   18.2970   -2.7770 hc        1 OPC      0.039200
    132 HBX2       29.5970   17.4970   -4.3420 hc        1 OPC      0.039200
    133 HBY1       32.2920   18.8720   -3.6730 hc        1 OPC      0.039700
    134 HBY2       31.8790   18.0730   -5.2380 hc        1 OPC      0.039700
    135 HBZ1       29.9480   19.6630   -5.5400 hc        1 OPC      0.039200
    136 HBZ2       30.3610   20.4620   -3.9750 hc        1 OPC      0.039200
    137 HCA1       32.2300   20.2370   -6.4350 hc        1 OPC      0.038700
    138 HCA2       32.6430   21.0360   -4.8700 hc        1 OPC      0.038700
    139 HCB1       31.9070   22.7070   -6.5700 hc        1 OPC      0.032367
    140 HCB2       30.3230   21.8490   -6.7570 hc        1 OPC      0.032367
    141 HCB3       30.7370   22.6500   -5.1880 hc        1 OPC      0.032367
@<TRIPOS>BOND
     1    1    2 1   
     2    1   56 1   
     3    1   57 1   
     4    1   58 1   
     5    2    3 1   
     6    2   59 1   
     7    2   60 1   
     8    3    4 1   
     9    3   61 1   
    10    3   62 1   
    11    4    5 1   
    12    4   63 1   
    13    4   64 1   
    14    5    6 1   
    15    5   65 1   
    16    5   66 1   
    17    6    7 1   
    18    6   67 1   
    19    6   68 1   
    20    7    8 1   
    21    7   69 1   
    22    7   70 1   
    23    8    9 1   
    24    8   71 1   
    25    8   72 1   
    26    9   10 1   
    27    9   73 1   
    28    9   74 1   
    29   10   11 2   
    30   10   75 1   
    31   11   12 1   
    32   11   76 1   
    33   12   13 1   
    34   12   77 1   
    35   12   78 1   
    36   13   14 1   
    37   13   79 1   
    38   13   80 1   
    39   14   15 1   
    40   14   81 1   
    41   14   82 1   
    42   15   16 1   
    43   15   83 1   
    44   15   84 1   
    45   16   17 1   
    46   16   85 1   
    47   16   86 1   
    48   17   18 1   
    49   17   87 1   
    50   17   88 1   
    51   18   19 2   
    52   18   20 1   
    53   20   21 1   
    54   21   22 1   
    55   21   34 1   
    56   21   35 1   
    57   22   23 1   
    58   22   89 1   
    59   22   90 1   
    60   23   24 1   
    61   24   25 1   
    62   24   26 1   
    63   24   27 1   
    64   27   28 1   
    65   28   29 1   
    66   28   91 1   
    67   28   92 1   
    68   29   30 1   
    69   29   93 1   
    70   29   94 1   
    71   30   31 1   
    72   30   32 1   
    73   30   33 1   
    74   31   95 1   
    75   31   96 1   
    76   31   97 1   
    77   32   98 1   
    78   32   99 1   
    79   32  100 1   
    80   33  101 1   
    81   33  102 1   
    82   33  103 1   
    83   34  104 1   
    84   34  105 1   
    85   34  106 1   
    86   35   36 1   
    87   35  107 1   
    88   35  108 1   
    89   36   37 1   
    90   37   38 2   
    91   37   39 1   
    92   39   40 1   
    93   39  109 1   
    94   39  110 1   
    95   40   41 1   
    96   40  111 1   
    97   40  112 1   
    98   41   42 1   
    99   41  113 1   
   100   41  114 1   
   101   42   43 1   
   102   42  115 1   
   103   42  116 1   
   104   43   44 1   
   105   43  117 1   
   106   43  118 1   
   107   44   45 1   
   108   44  119 1   
   109   44  120 1   
   110   45   46 2   
   111   45  121 1   
   112   46   47 1   
   113   46  122 1   
   114   47   48 1   
   115   47  123 1   
   116   47  124 1   
   117   48   49 1   
   118   48  125 1   
   119   48  126 1   
   120   49   50 1   
   121   49  127 1   
   122   49  128 1   
   123   50   51 1   
   124   50  129 1   
   125   50  130 1   
   126   51   52 1   
   127   51  131 1   
   128   51  132 1   
   129   52   53 1   
   130   52  133 1   
   131   52  134 1   
   132   53   54 1   
   133   53  135 1   
   134   53  136 1   
   135   54   55 1   
   136   54  137 1   
   137   54  138 1   
   138   55  139 1   
   139   55  140 1   
   140   55  141 1   
@<TRIPOS>SUBSTRUCTURE
     1 OPC         1 TEMP              0 ****  ****    0 ROOT
