@<TRIPOS>MOLECULE
OPC
  141   138     1     0     0
SMALL
bcc


@<TRIPOS>ATOM
      1 CBF       -16.4550    5.7790   -5.0610 c3        1 OPC     -0.210000
      2 CBE       -15.6930    4.9480   -6.0930 c3        1 OPC     -0.159000
      3 CBD       -14.5060    4.2450   -5.4090 c3        1 OPC     -0.158000
      4 CBC       -13.7560    3.3810   -6.4400 c3        1 OPC     -0.158000
      5 CBB       -12.4610    2.8390   -5.8130 c3        1 OPC     -0.158000
      6 CBA       -11.7870    1.8570   -6.7920 c3        1 OPC     -0.157000
      7 CAZ       -10.4360    1.4110   -6.2230 c3        1 OPC     -0.158000
      8 CAY        -9.8920    0.2460   -7.0520 c3        1 OPC     -0.155000
      9 CAX        -8.5070   -0.1690   -6.5110 c3        1 OPC     -0.131000
     10 CAW        -8.0900   -1.4900   -7.1440 c2        1 OPC     -0.174000
     11 CAV        -6.8110   -1.9760   -6.9520 c1        1 OPC     -0.166000
     12 CAU        -5.8040   -1.1830   -6.0980 c2        1 OPC     -0.133000
     13 CAT        -4.7430   -2.1530   -5.5170 c3        1 OPC     -0.156000
     14 CAS        -3.3630   -1.4470   -5.4730 c3        1 OPC     -0.158000
     15 CAR        -2.2760   -2.4650   -5.0520 c3        1 OPC     -0.157000
     16 CAQ        -0.9760   -1.7180   -4.6980 c3        1 OPC     -0.153000
     17 CAP         0.1670   -2.7440   -4.4970 c3        1 OPC     -0.171000
     18 CAO         1.3930   -2.0390   -3.9110 c2        1 OPC      0.346000
     19 OAD         1.9560   -1.1660   -4.5510 o         1 OPC     -0.386000
     20 OAN         1.9460   -2.4860   -2.6840 os        1 OPC     -0.283000
     21 CAM         3.2780   -2.0170   -2.4460 c3        1 OPC      0.062000
     22 CAL         4.2080   -2.5480   -3.5390 c3        1 OPC      0.013000
     23 OAK         4.9970   -3.6220   -3.0120 os        1 OPC     -0.736000
     24 PAJ         6.0000   -4.3810   -3.9900 p5        1 OPC      1.920000
     25 OBH         5.2210   -5.0160   -5.1170 o         1 OPC     -0.825500
     26 OAB         6.9930   -3.3940   -4.5580 o         1 OPC     -0.825500
     27 OAI         6.7890   -5.5290   -3.1660 os        1 OPC     -0.736000
     28 CAH         7.6090   -6.4660   -3.8980 c3        1 OPC      0.050000
     29 CAG         8.6080   -7.1650   -2.9140 c3        1 OPC     -0.146000
     30 NAF         9.2160   -8.3360   -3.5740 n4        1 OPC      0.051000
     31 CAE        10.2630   -8.8710   -2.7350 c3        1 OPC     -0.197000
     32 CBG         9.7670   -7.9420   -4.8310 c3        1 OPC     -0.197000
     33 CAA         8.2200   -9.3330   -3.7850 c3        1 OPC     -0.197000
     34 CAC         3.7520   -2.5070   -1.1010 c3        1 OPC     -0.200000
     35 CBI         3.2880   -0.5080   -2.4630 c3        1 OPC     -0.044000
     36 OBJ         3.8860   -0.0160   -1.2390 os        1 OPC     -0.280000
     37 CBK         3.3190    1.2090   -0.7690 c2        1 OPC      0.302000
     38 OCC         2.1760    1.5000   -1.0630 o         1 OPC     -0.352000
     39 CBL         4.1980    2.2190    0.0110 c3        1 OPC     -0.156000
     40 CBM         3.6770    2.3430    1.4670 c3        1 OPC     -0.156000
     41 CBN         3.6360    3.8330    1.8720 c3        1 OPC     -0.161000
     42 CBO         3.8730    3.9600    3.3950 c3        1 OPC     -0.157000
     43 CBP         2.8760    4.9730    3.9880 c3        1 OPC     -0.156000
     44 CBQ         3.1010    5.0850    5.5180 c3        1 OPC     -0.132000
     45 CBR         1.7830    4.7840    6.2530 c2        1 OPC     -0.169000
     46 CBS         1.7080    4.9180    7.6400 c1        1 OPC     -0.171000
     47 CBT         2.9450    5.3670    8.4380 c2        1 OPC     -0.132000
     48 CBU         2.6140    5.3640    9.9540 c3        1 OPC     -0.156000
     49 CBV         3.8370    4.8610   10.7460 c3        1 OPC     -0.158000
     50 CBW         3.3650    4.2150   12.0700 c3        1 OPC     -0.158000
     51 CBX         4.5050    3.3590   12.6610 c3        1 OPC     -0.158000
     52 CBY         3.9290    2.3900   13.7090 c3        1 OPC     -0.158000
     53 CBZ         4.8580    1.1780   13.8520 c3        1 OPC     -0.158000
     54 CCA         4.2070    0.1450   14.7680 c3        1 OPC     -0.159000
     55 CCB         4.8090   -1.2250   14.4980 c3        1 OPC     -0.210000
     56 HBF1      -16.8280    5.1880   -4.3780 hc        1 OPC      0.071667
     57 HBF2      -15.8440    6.4160   -4.6430 hc        1 OPC      0.071667
     58 HBF3      -17.1840    6.2680   -5.5070 hc        1 OPC      0.071667
     59 HBE1      -16.2920    4.2750   -6.4770 hc        1 OPC      0.077500
     60 HBE2      -15.3600    5.5340   -6.8050 hc        1 OPC      0.077500
     61 HBD1      -13.8950    4.9180   -5.0410 hc        1 OPC      0.079000
     62 HBD2      -14.8400    3.6710   -4.6790 hc        1 OPC      0.079000
     63 HBC1      -14.3210    2.6360   -6.7120 hc        1 OPC      0.078000
     64 HBC2      -13.5350    3.9260   -7.2230 hc        1 OPC      0.078000
     65 HBB1      -11.8560    3.5790   -5.6270 hc        1 OPC      0.079000
     66 HBB2      -12.6720    2.3750   -4.9800 hc        1 OPC      0.079000
     67 HBA1      -12.3630    1.0750   -6.9170 hc        1 OPC      0.079000
     68 HBA2      -11.6480    2.2970   -7.6480 hc        1 OPC      0.079000
     69 HAZ1      -10.5510    1.1260   -5.3000 hc        1 OPC      0.079000
     70 HAZ2       -9.8050    2.1580   -6.2580 hc        1 OPC      0.079000
     71 HAY1       -9.8080    0.5210   -7.9820 hc        1 OPC      0.080000
     72 HAY2      -10.5110   -0.5180   -6.9910 hc        1 OPC      0.080000
     73 HAX1       -8.5540   -0.2720   -5.5430 hc        1 OPC      0.087000
     74 HAX2       -7.8520    0.5190   -6.7330 hc        1 OPC      0.087000
     75 HAW        -8.7290   -1.9950   -7.6870 ha        1 OPC      0.120000
     76 HAV        -6.5440   -2.8300   -7.3610 ha        1 OPC      0.121000
     77 HAU1       -5.3640   -0.5150   -6.6520 ha        1 OPC      0.087000
     78 HAU2       -6.2760   -0.7390   -5.3650 ha        1 OPC      0.087000
     79 HAT1       -4.6840   -2.9450   -6.0810 hc        1 OPC      0.080500
     80 HAT2       -5.0030   -2.4170   -4.6120 hc        1 OPC      0.080500
     81 HAS1       -3.3920   -0.7080   -4.8210 hc        1 OPC      0.079000
     82 HAS2       -3.1510   -1.0930   -6.3560 hc        1 OPC      0.079000
     83 HAR1       -2.5870   -2.9710   -4.2660 hc        1 OPC      0.081500
     84 HAR2       -2.1060   -3.0850   -5.7910 hc        1 OPC      0.081500
     85 HAQ1       -0.7430   -1.1100   -5.4230 hc        1 OPC      0.089000
     86 HAQ2       -1.1060   -1.2060   -3.8710 hc        1 OPC      0.089000
     87 HAP1       -0.1290   -3.4460   -3.8820 hc        1 OPC      0.144500
     88 HAP2        0.4000   -3.1400   -5.3510 hc        1 OPC      0.144500
     89 HAL1        3.6780   -2.8710   -4.2860 h1        1 OPC      0.095500
     90 HAL2        4.8000   -1.8260   -3.8460 h1        1 OPC      0.095500
     91 HAH1        8.1150   -5.9870   -4.5940 h1        1 OPC      0.093500
     92 HAH2        7.0370   -7.1430   -4.3180 h1        1 OPC      0.093500
     93 HAG1        8.1230   -7.4570   -2.1080 hx        1 OPC      0.119000
     94 HAG2        9.3080   -6.5340   -2.6600 hx        1 OPC      0.119000
     95 HAE1       10.9630   -8.1980   -2.6170 hx        1 OPC      0.139222
     96 HAE2        9.8910   -9.1120   -1.8620 hx        1 OPC      0.139222
     97 HAE3       10.6480   -9.6740   -3.1610 hx        1 OPC      0.139222
     98 HBG1       10.3100   -8.6770   -5.1970 hx        1 OPC      0.139222
     99 HBG2        9.0420   -7.7310   -5.4530 hx        1 OPC      0.139222
    100 HBG3       10.3310   -7.1490   -4.7070 hx        1 OPC      0.139222
    101 HAA1        8.6560  -10.1930   -3.9940 hx        1 OPC      0.139222
    102 HAA2        7.6460   -9.0680   -4.5330 hx        1 OPC      0.139222
    103 HAA3        7.6770   -9.4300   -2.9740 hx        1 OPC      0.139222
    104 HAC1        3.7190   -3.4910   -1.0800 hc        1 OPC      0.090333
    105 HAC2        3.1740   -2.1460   -0.3990 hc        1 OPC      0.090333
    106 HAC3        4.6720   -2.2090   -0.9510 hc        1 OPC      0.090333
    107 HBI1        2.3750   -0.1790   -2.5330 h1        1 OPC      0.129500
    108 HBI2        3.8080   -0.1930   -3.2300 h1        1 OPC      0.129500
    109 HBL1        4.1550    3.0950   -0.4270 hc        1 OPC      0.113500
    110 HBL2        5.1220    1.9060    0.0210 hc        1 OPC      0.113500
    111 HBM1        4.2760    1.8560    2.0710 hc        1 OPC      0.095000
    112 HBM2        2.7770    1.9650    1.5250 hc        1 OPC      0.095000
    113 HBN1        4.3390    4.3230    1.3890 hc        1 OPC      0.084000
    114 HBN2        2.7660    4.2060    1.6470 hc        1 OPC      0.084000
    115 HBO1        3.7430    3.0930    3.8170 hc        1 OPC      0.080000
    116 HBO2        4.7890    4.2680    3.5590 hc        1 OPC      0.080000
    117 HBP1        3.0140    5.8480    3.5730 hc        1 OPC      0.082500
    118 HBP2        1.9650    4.6710    3.8160 hc        1 OPC      0.082500
    119 HBQ1        3.3990    5.9930    5.7400 hc        1 OPC      0.087000
    120 HBQ2        3.7800    4.4440    5.7940 hc        1 OPC      0.087000
    121 HBR         1.0040    4.5010    5.7520 ha        1 OPC      0.122000
    122 HBS         0.8700    4.7260    8.1050 ha        1 OPC      0.121000
    123 HBT1        3.2020    6.2730    8.1610 ha        1 OPC      0.086500
    124 HBT2        3.6850    4.7530    8.2650 ha        1 OPC      0.086500
    125 HBU1        2.3900    6.2730   10.2420 hc        1 OPC      0.080500
    126 HBU2        1.8550    4.7750   10.1200 hc        1 OPC      0.080500
    127 HBV1        4.4300    5.6150   10.9440 hc        1 OPC      0.078500
    128 HBV2        4.3170    4.2020   10.2170 hc        1 OPC      0.078500
    129 HBW1        3.1210    4.9160   12.7050 hc        1 OPC      0.079000
    130 HBW2        2.5900    3.6490   11.8970 hc        1 OPC      0.079000
    131 HBX1        5.1680    3.9460   13.0860 hc        1 OPC      0.078500
    132 HBX2        4.9320    2.8500   11.9480 hc        1 OPC      0.078500
    133 HBY1        3.0410    2.0890   13.4230 hc        1 OPC      0.078500
    134 HBY2        3.8550    2.8500   14.5740 hc        1 OPC      0.078500
    135 HBZ1        5.7150    1.4650   14.2400 hc        1 OPC      0.078500
    136 HBZ2        5.0140    0.7820   12.9750 hc        1 OPC      0.078500
    137 HCA1        3.2470    0.1170   14.5970 hc        1 OPC      0.077500
    138 HCA2        4.3650    0.3920   15.7030 hc        1 OPC      0.077500
    139 HCB1        4.5330   -1.5330   13.6110 hc        1 OPC      0.071667
    140 HCB2        4.4950   -1.8610   15.1780 hc        1 OPC      0.071667
    141 HCB3        5.7870   -1.1650   14.5330 hc        1 OPC      0.071667
@<TRIPOS>BOND
     1    1    2 1   
     2    1   56 1   
     3    1   57 1   
     4    1   58 1   
     5    2    3 1   
     6    2   59 1   
     7    2   60 1   
     8    3    4 1   
     9    3   61 1   
    10    3   62 1   
    11    4    5 1   
    12    4   63 1   
    13    4   64 1   
    14    5    6 1   
    15    5   65 1   
    16    5   66 1   
    17    6    7 1   
    18    6   67 1   
    19    6   68 1   
    20    7    8 1   
    21    7   69 1   
    22    7   70 1   
    23    8    9 1   
    24    8   71 1   
    25    8   72 1   
    26    9   10 1   
    27    9   73 1   
    28    9   74 1   
    29   10   11 1   
    30   10   75 1   
    31   11   76 1   
    32   12   13 1   
    33   12   77 1   
    34   12   78 1   
    35   13   14 1   
    36   13   79 1   
    37   13   80 1   
    38   14   15 1   
    39   14   81 1   
    40   14   82 1   
    41   15   16 1   
    42   15   83 1   
    43   15   84 1   
    44   16   17 1   
    45   16   85 1   
    46   16   86 1   
    47   17   18 1   
    48   17   87 1   
    49   17   88 1   
    50   18   19 1   
    51   18   20 1   
    52   20   21 1   
    53   21   22 1   
    54   21   34 1   
    55   21   35 1   
    56   22   23 1   
    57   22   89 1   
    58   22   90 1   
    59   23   24 1   
    60   24   25 1   
    61   24   26 1   
    62   24   27 1   
    63   27   28 1   
    64   28   29 1   
    65   28   91 1   
    66   28   92 1   
    67   29   30 1   
    68   29   93 1   
    69   29   94 1   
    70   30   31 1   
    71   30   32 1   
    72   30   33 1   
    73   31   95 1   
    74   31   96 1   
    75   31   97 1   
    76   32   98 1   
    77   32   99 1   
    78   32  100 1   
    79   33  101 1   
    80   33  102 1   
    81   33  103 1   
    82   34  104 1   
    83   34  105 1   
    84   34  106 1   
    85   35   36 1   
    86   35  107 1   
    87   35  108 1   
    88   36   37 1   
    89   37   38 1   
    90   37   39 1   
    91   39   40 1   
    92   39  109 1   
    93   39  110 1   
    94   40   41 1   
    95   40  111 1   
    96   40  112 1   
    97   41   42 1   
    98   41  113 1   
    99   41  114 1   
   100   42   43 1   
   101   42  115 1   
   102   42  116 1   
   103   43   44 1   
   104   43  117 1   
   105   43  118 1   
   106   44   45 1   
   107   44  119 1   
   108   44  120 1   
   109   45   46 1   
   110   45  121 1   
   111   46  122 1   
   112   47   48 1   
   113   47  123 1   
   114   47  124 1   
   115   48   49 1   
   116   48  125 1   
   117   48  126 1   
   118   49   50 1   
   119   49  127 1   
   120   49  128 1   
   121   50   51 1   
   122   50  129 1   
   123   50  130 1   
   124   51   52 1   
   125   51  131 1   
   126   51  132 1   
   127   52   53 1   
   128   52  133 1   
   129   52  134 1   
   130   53   54 1   
   131   53  135 1   
   132   53  136 1   
   133   54   55 1   
   134   54  137 1   
   135   54  138 1   
   136   55  139 1   
   137   55  140 1   
   138   55  141 1   
@<TRIPOS>SUBSTRUCTURE
     1 OPC         1 TEMP              0 ****  ****    0 ROOT
