@<TRIPOS>MOLECULE
OPC
  141   140     1     0     0
SMALL
bcc


@<TRIPOS>ATOM
      1 CBF         2.2370   -5.4520    0.7480 c3        1 OPC     -0.092100
      2 CBE         3.0810   -5.0960    1.9440 c3        1 OPC     -0.080400
      3 CBD         3.8310   -3.7990    1.7290 c3        1 OPC     -0.079400
      4 CBC         4.6770   -3.4460    2.9340 c3        1 OPC     -0.079400
      5 CBB         5.4260   -2.1480    2.7170 c3        1 OPC     -0.078400
      6 CBA         6.2720   -1.7950    3.9220 c3        1 OPC     -0.079400
      7 CAZ         7.0210   -0.4980    3.7060 c3        1 OPC     -0.079400
      8 CAY         7.8670   -0.1450    4.9110 c3        1 OPC     -0.077400
      9 CAX         8.6160    1.1530    4.6920 c3        1 OPC     -0.049200
     10 CAW         9.4500    1.5240    5.8590 c2        1 OPC     -0.173200
     11 CAV        10.1330    2.6700    5.9500 c2        1 OPC     -0.174200
     12 CAU        10.1310    3.7150    4.8990 c3        1 OPC     -0.048200
     13 CAT        11.0810    4.8580    5.1910 c3        1 OPC     -0.075400
     14 CAS        12.5300    4.4430    5.0530 c3        1 OPC     -0.080400
     15 CAR        13.4630    5.5910    5.3780 c3        1 OPC     -0.077400
     16 CAQ        14.9100    5.1730    5.2320 c3        1 OPC     -0.080400
     17 CAP        15.8370    6.3290    5.5460 c3        1 OPC     -0.127400
     18 CAO        17.2700    5.8780    5.5290 c         1 OPC      0.648100
     19 OAD        17.7500    4.8780    6.0620 o         1 OPC     -0.544000
     20 OAN        18.0630    6.7560    4.8510 os        1 OPC     -0.446900
     21 CAM        19.4700    6.4820    4.6460 c3        1 OPC      0.153800
     22 CAL        19.6620    5.2350    3.7630 c3        1 OPC      0.169400
     23 OAK        19.2420    5.4750    2.4510 os        1 OPC     -0.577200
     24 PAJ        20.2700    4.9610    1.2770 p5        1 OPC      1.447800
     25 OBH        20.6690    3.5690    1.4700 o         1 OPC     -0.828500
     26 OAB        21.1700    6.1180    1.0240 o         1 OPC     -0.828500
     27 OAI        19.1790    5.1220    0.0250 os        1 OPC     -0.559200
     28 CAH        19.6790    5.5720   -1.1820 c3        1 OPC      0.191400
     29 CAG        18.9040    6.8100   -1.6700 c3        1 OPC      0.092800
     30 NAF        19.1830    8.1160   -0.9760 n4        1 OPC     -0.579800
     31 CAE        20.6400    8.4370   -0.9860 c3        1 OPC      0.083100
     32 CBG        18.4520    9.1910   -1.7120 c3        1 OPC      0.083100
     33 CAA        18.6870    8.0820    0.4310 c3        1 OPC      0.083100
     34 CAC        20.1970    6.3000    5.9680 c3        1 OPC     -0.123100
     35 CBI        19.9330    7.7830    3.9560 c3        1 OPC      0.148400
     36 OBJ        21.3220    7.6410    3.6470 os        1 OPC     -0.434900
     37 CBK        21.7850    8.2280    2.5010 c         1 OPC      0.709100
     38 OCC        21.0270    8.9760    1.8700 o         1 OPC     -0.625000
     39 CBL        23.2080    7.8710    2.2110 c3        1 OPC     -0.138400
     40 CBM        23.9820    9.0640    1.6940 c3        1 OPC     -0.073400
     41 CBN        25.3690    8.6520    1.2500 c3        1 OPC     -0.080400
     42 CBO        26.1570    9.8410    0.7450 c3        1 OPC     -0.078400
     43 CBP        27.5390    9.4280    0.2870 c3        1 OPC     -0.078400
     44 CBQ        28.3290   10.6200   -0.2140 c3        1 OPC     -0.048200
     45 CBR        29.6850   10.2410   -0.6760 c2        1 OPC     -0.174200
     46 CBS        30.5790   11.1170   -1.1480 c2        1 OPC     -0.174200
     47 CBT        30.3250   12.5720   -1.2640 c3        1 OPC     -0.049200
     48 CBU        31.5030   13.3160   -1.8560 c3        1 OPC     -0.077400
     49 CBV        31.2150   14.7990   -1.9640 c3        1 OPC     -0.079400
     50 CBW        32.3920   15.5450   -2.5550 c3        1 OPC     -0.079400
     51 CBX        32.1040   17.0270   -2.6640 c3        1 OPC     -0.078400
     52 CBY        33.2810   17.7730   -3.2550 c3        1 OPC     -0.079400
     53 CBZ        32.9940   19.2550   -3.3630 c3        1 OPC     -0.079400
     54 CCA        34.1700   20.0030   -3.9550 c3        1 OPC     -0.080400
     55 CCB        33.8890   21.4790   -4.0650 c3        1 OPC     -0.092100
     56 HBF1        2.8730   -5.5730   -0.1620 hc        1 OPC      0.032367
     57 HBF2        1.4840   -4.6520    0.5440 hc        1 OPC      0.032367
     58 HBF3        1.6930   -6.4110    0.9270 hc        1 OPC      0.032367
     59 HBE1        2.4280   -5.0040    2.8520 hc        1 OPC      0.038700
     60 HBE2        3.8130   -5.9220    2.1480 hc        1 OPC      0.038700
     61 HBD1        4.4860   -3.8900    0.8230 hc        1 OPC      0.039200
     62 HBD2        3.1000   -2.9720    1.5270 hc        1 OPC      0.039200
     63 HBC1        4.0220   -3.3550    3.8400 hc        1 OPC      0.039700
     64 HBC2        5.4070   -4.2730    3.1360 hc        1 OPC      0.039700
     65 HBB1        6.0810   -2.2390    1.8110 hc        1 OPC      0.039200
     66 HBB2        4.6960   -1.3210    2.5150 hc        1 OPC      0.039200
     67 HBA1        5.6170   -1.7040    4.8280 hc        1 OPC      0.040200
     68 HBA2        7.0030   -2.6220    4.1240 hc        1 OPC      0.040200
     69 HAZ1        7.6770   -0.5890    2.8000 hc        1 OPC      0.039200
     70 HAZ2        6.2910    0.3290    3.5030 hc        1 OPC      0.039200
     71 HAY1        8.5970   -0.9720    5.1130 hc        1 OPC      0.042200
     72 HAY2        7.2120   -0.0530    5.8170 hc        1 OPC      0.042200
     73 HAX1        7.8830    1.9790    4.4760 hc        1 OPC      0.047200
     74 HAX2        9.2720    1.0590    3.7820 hc        1 OPC      0.047200
     75 HAW         9.4890    0.7870    6.6780 ha        1 OPC      0.123000
     76 HAV        10.7410    2.8860    6.8450 ha        1 OPC      0.123000
     77 HAU1        9.0880    4.1240    4.7960 hc        1 OPC      0.047200
     78 HAU2       10.3960    3.2510    3.9090 hc        1 OPC      0.047200
     79 HAT1       10.8670    5.7000    4.4810 hc        1 OPC      0.038700
     80 HAT2       10.8980    5.2450    6.2290 hc        1 OPC      0.038700
     81 HAS1       12.7410    3.5800    5.7380 hc        1 OPC      0.046200
     82 HAS2       12.7220    4.0880    4.0060 hc        1 OPC      0.046200
     83 HAR1       13.2750    5.9430    6.4260 hc        1 OPC      0.037700
     84 HAR2       13.2480    6.4550    4.6950 hc        1 OPC      0.037700
     85 HAQ1       15.1350    4.3170    5.9220 hc        1 OPC      0.061700
     86 HAQ2       15.0990    4.8140    4.1860 hc        1 OPC      0.061700
     87 HAP1       15.6250    6.7320    6.5720 hc        1 OPC      0.071200
     88 HAP2       15.6910    7.1610    4.8090 hc        1 OPC      0.071200
     89 HAL1       19.0490    4.3960    4.2000 h1        1 OPC      0.057200
     90 HAL2       20.7530    4.9560    3.7770 h1        1 OPC      0.057200
     91 HAH1       20.7820    5.7850   -1.1240 h1        1 OPC      0.057700
     92 HAH2       19.4840    4.7850   -1.9710 h1        1 OPC      0.057700
     93 HAG1       17.8040    6.6010   -1.5450 hx        1 OPC      0.079200
     94 HAG2       19.1420    6.9610   -2.7600 hx        1 OPC      0.079200
     95 HAE1       21.0320    8.3310   -2.0280 hx        1 OPC      0.100367
     96 HAE2       20.7850    9.4840   -0.6090 hx        1 OPC      0.100367
     97 HAE3       21.1890    7.7440   -0.2750 hx        1 OPC      0.100367
     98 HBG1       18.8520    9.2710   -2.7560 hx        1 OPC      0.100367
     99 HBG2       17.3590    8.9440   -1.7440 hx        1 OPC      0.100367
    100 HBG3       18.5990   10.1680   -1.1800 hx        1 OPC      0.100367
    101 HAA1       17.5950    7.8400    0.4350 hx        1 OPC      0.100367
    102 HAA2       19.2610    7.2840    0.9940 hx        1 OPC      0.100367
    103 HAA3       18.8870    9.0740    0.9170 hx        1 OPC      0.100367
    104 HAC1       19.8510    7.0640    6.7030 hc        1 OPC      0.057033
    105 HAC2       20.0020    5.2830    6.3870 hc        1 OPC      0.057033
    106 HAC3       21.2950    6.4250    5.8010 hc        1 OPC      0.057033
    107 HBI1       19.3260    7.9590    3.0310 h1        1 OPC      0.059700
    108 HBI2       19.8320    8.6510    4.6570 h1        1 OPC      0.059700
    109 HBL1       23.6920    7.4520    3.1310 hc        1 OPC      0.103700
    110 HBL2       23.1640    7.0490    1.4370 hc        1 OPC      0.103700
    111 HBM1       24.0580    9.8450    2.4960 hc        1 OPC      0.043200
    112 HBM2       23.4260    9.5250    0.8350 hc        1 OPC      0.043200
    113 HBN1       25.9130    8.1770    2.1090 hc        1 OPC      0.045200
    114 HBN2       25.2910    7.8790    0.4410 hc        1 OPC      0.045200
    115 HBO1       25.6080   10.3230   -0.1060 hc        1 OPC      0.038200
    116 HBO2       26.2440   10.6090    1.5590 hc        1 OPC      0.038200
    117 HBP1       28.0880    8.9440    1.1380 hc        1 OPC      0.043200
    118 HBP2       27.4530    8.6630   -0.5290 hc        1 OPC      0.043200
    119 HBQ1       28.4130   11.3860    0.6050 hc        1 OPC      0.046200
    120 HBQ2       27.7710   11.1120   -1.0580 hc        1 OPC      0.046200
    121 HBR        29.9360    9.1700   -0.6120 ha        1 OPC      0.123000
    122 HBS        31.5740   10.7730   -1.4770 ha        1 OPC      0.122000
    123 HBT1       30.0870   12.9910   -0.2480 hc        1 OPC      0.046700
    124 HBT2       29.4140   12.7420   -1.9020 hc        1 OPC      0.046700
    125 HBU1       31.7370   12.9030   -2.8730 hc        1 OPC      0.042200
    126 HBU2       32.4100   13.1550   -1.2160 hc        1 OPC      0.042200
    127 HBV1       30.9810   15.2110   -0.9470 hc        1 OPC      0.039200
    128 HBV2       30.3080   14.9600   -2.6040 hc        1 OPC      0.039200
    129 HBW1       32.6270   15.1320   -3.5720 hc        1 OPC      0.040200
    130 HBW2       33.2990   15.3830   -1.9160 hc        1 OPC      0.040200
    131 HBX1       31.1970   17.1880   -3.3030 hc        1 OPC      0.039200
    132 HBX2       31.8700   17.4400   -1.6470 hc        1 OPC      0.039200
    133 HBY1       33.5160   17.3600   -4.2710 hc        1 OPC      0.039700
    134 HBY2       34.1890   17.6120   -2.6150 hc        1 OPC      0.039700
    135 HBZ1       32.7590   19.6680   -2.3470 hc        1 OPC      0.039200
    136 HBZ2       32.0860   19.4170   -4.0030 hc        1 OPC      0.039200
    137 HCA1       34.4040   19.5870   -4.9700 hc        1 OPC      0.038700
    138 HCA2       35.0770   19.8390   -3.3140 hc        1 OPC      0.038700
    139 HCB1       33.6770   21.9160   -3.0590 hc        1 OPC      0.032367
    140 HCB2       34.7680   22.0100   -4.5020 hc        1 OPC      0.032367
    141 HCB3       33.0030   21.6640   -4.7190 hc        1 OPC      0.032367
@<TRIPOS>BOND
     1    1    2 1   
     2    1   56 1   
     3    1   57 1   
     4    1   58 1   
     5    2    3 1   
     6    2   59 1   
     7    2   60 1   
     8    3    4 1   
     9    3   61 1   
    10    3   62 1   
    11    4    5 1   
    12    4   63 1   
    13    4   64 1   
    14    5    6 1   
    15    5   65 1   
    16    5   66 1   
    17    6    7 1   
    18    6   67 1   
    19    6   68 1   
    20    7    8 1   
    21    7   69 1   
    22    7   70 1   
    23    8    9 1   
    24    8   71 1   
    25    8   72 1   
    26    9   10 1   
    27    9   73 1   
    28    9   74 1   
    29   10   11 2   
    30   10   75 1   
    31   11   12 1   
    32   11   76 1   
    33   12   13 1   
    34   12   77 1   
    35   12   78 1   
    36   13   14 1   
    37   13   79 1   
    38   13   80 1   
    39   14   15 1   
    40   14   81 1   
    41   14   82 1   
    42   15   16 1   
    43   15   83 1   
    44   15   84 1   
    45   16   17 1   
    46   16   85 1   
    47   16   86 1   
    48   17   18 1   
    49   17   87 1   
    50   17   88 1   
    51   18   19 2   
    52   18   20 1   
    53   20   21 1   
    54   21   22 1   
    55   21   34 1   
    56   21   35 1   
    57   22   23 1   
    58   22   89 1   
    59   22   90 1   
    60   23   24 1   
    61   24   25 1   
    62   24   26 1   
    63   24   27 1   
    64   27   28 1   
    65   28   29 1   
    66   28   91 1   
    67   28   92 1   
    68   29   30 1   
    69   29   93 1   
    70   29   94 1   
    71   30   31 1   
    72   30   32 1   
    73   30   33 1   
    74   31   95 1   
    75   31   96 1   
    76   31   97 1   
    77   32   98 1   
    78   32   99 1   
    79   32  100 1   
    80   33  101 1   
    81   33  102 1   
    82   33  103 1   
    83   34  104 1   
    84   34  105 1   
    85   34  106 1   
    86   35   36 1   
    87   35  107 1   
    88   35  108 1   
    89   36   37 1   
    90   37   38 2   
    91   37   39 1   
    92   39   40 1   
    93   39  109 1   
    94   39  110 1   
    95   40   41 1   
    96   40  111 1   
    97   40  112 1   
    98   41   42 1   
    99   41  113 1   
   100   41  114 1   
   101   42   43 1   
   102   42  115 1   
   103   42  116 1   
   104   43   44 1   
   105   43  117 1   
   106   43  118 1   
   107   44   45 1   
   108   44  119 1   
   109   44  120 1   
   110   45   46 2   
   111   45  121 1   
   112   46   47 1   
   113   46  122 1   
   114   47   48 1   
   115   47  123 1   
   116   47  124 1   
   117   48   49 1   
   118   48  125 1   
   119   48  126 1   
   120   49   50 1   
   121   49  127 1   
   122   49  128 1   
   123   50   51 1   
   124   50  129 1   
   125   50  130 1   
   126   51   52 1   
   127   51  131 1   
   128   51  132 1   
   129   52   53 1   
   130   52  133 1   
   131   52  134 1   
   132   53   54 1   
   133   53  135 1   
   134   53  136 1   
   135   54   55 1   
   136   54  137 1   
   137   54  138 1   
   138   55  139 1   
   139   55  140 1   
   140   55  141 1   
@<TRIPOS>SUBSTRUCTURE
     1 OPC         1 TEMP              0 ****  ****    0 ROOT
