@<TRIPOS>MOLECULE
OPC
  141   140     1     0     0
SMALL
bcc


@<TRIPOS>ATOM
      1 CBF         2.1300   -5.2250    0.5220 c3        1 OPC     -0.092100
      2 CBE         2.9980   -4.9370    1.7200 c3        1 OPC     -0.080400
      3 CBD         3.7610   -3.6400    1.5540 c3        1 OPC     -0.079400
      4 CBC         4.6310   -3.3540    2.7590 c3        1 OPC     -0.079400
      5 CBB         5.3940   -2.0580    2.5920 c3        1 OPC     -0.078400
      6 CBA         6.2640   -1.7730    3.7970 c3        1 OPC     -0.079400
      7 CAZ         7.0260   -0.4750    3.6300 c3        1 OPC     -0.079400
      8 CAY         7.8970   -0.1910    4.8350 c3        1 OPC     -0.077400
      9 CAX         8.6580    1.1070    4.6660 c3        1 OPC     -0.049200
     10 CAW         9.5170    1.4120    5.8340 c2        1 OPC     -0.173200
     11 CAV        10.2180    2.5440    5.9660 c2        1 OPC     -0.174200
     12 CAU        10.2130    3.6360    4.9640 c3        1 OPC     -0.048200
     13 CAT        11.1720    4.7590    5.3010 c3        1 OPC     -0.075400
     14 CAS        12.6180    4.3430    5.1280 c3        1 OPC     -0.080400
     15 CAR        13.5600    5.4700    5.4960 c3        1 OPC     -0.077400
     16 CAQ        15.0040    5.0530    5.3160 c3        1 OPC     -0.080400
     17 CAP        15.9390    6.1880    5.6740 c3        1 OPC     -0.127400
     18 CAO        17.3700    5.7320    5.6200 c         1 OPC      0.649100
     19 OAD        17.8520    4.7110    6.1100 o         1 OPC     -0.544000
     20 OAN        18.1570    6.6300    4.9640 os        1 OPC     -0.446900
     21 CAM        19.5600    6.3580    4.7290 c3        1 OPC      0.153800
     22 CAL        19.7350    5.1440    3.7990 c3        1 OPC      0.169400
     23 OAK        19.2980    5.4320    2.5030 os        1 OPC     -0.577200
     24 PAJ        20.3080    4.9560    1.2980 p5        1 OPC      1.446800
     25 OBH        20.7040    3.5560    1.4350 o         1 OPC     -0.828500
     26 OAB        21.2100    6.1170    1.0740 o         1 OPC     -0.828500
     27 OAI        19.2020    5.1650    0.0660 os        1 OPC     -0.559200
     28 CAH        19.6880    5.6560   -1.1310 c3        1 OPC      0.191400
     29 CAG        18.9130    6.9140   -1.5640 c3        1 OPC      0.092800
     30 NAF        19.2060    8.1930   -0.8280 n4        1 OPC     -0.579800
     31 CAE        20.6640    8.5080   -0.8450 c3        1 OPC      0.083100
     32 CBG        18.4700    9.2960   -1.5150 c3        1 OPC      0.083100
     33 CAA        18.7280    8.1110    0.5840 c3        1 OPC      0.083100
     34 CAC        20.3050    6.1260    6.0330 c3        1 OPC     -0.123100
     35 CBI        20.0190    7.6820    4.0800 c3        1 OPC      0.148400
     36 OBJ        21.4030    7.5460    3.7470 os        1 OPC     -0.434900
     37 CBK        21.8530    8.1720    2.6160 c         1 OPC      0.709100
     38 OCC        21.0890    8.9440    2.0230 o         1 OPC     -0.625000
     39 CBL        23.2700    7.8220    2.2940 c3        1 OPC     -0.138400
     40 CBM        24.0380    9.0290    1.8000 c3        1 OPC     -0.073400
     41 CBN        25.4180    8.6280    1.3240 c3        1 OPC     -0.080400
     42 CBO        26.1980    9.8300    0.8370 c3        1 OPC     -0.078400
     43 CBP        27.5730    9.4290    0.3480 c3        1 OPC     -0.078400
     44 CBQ        28.3530   10.6330   -0.1390 c3        1 OPC     -0.048200
     45 CBR        29.7020   10.2680   -0.6320 c2        1 OPC     -0.174200
     46 CBS        30.5630   11.1460   -1.1580 c2        1 OPC     -0.174200
     47 CBT        30.2730   12.5900   -1.3140 c3        1 OPC     -0.049200
     48 CBU        31.4420   13.3510   -1.9050 c3        1 OPC     -0.077400
     49 CBV        31.1180   14.8220   -2.0530 c3        1 OPC     -0.079400
     50 CBW        32.2850   15.5840   -2.6440 c3        1 OPC     -0.079400
     51 CBX        31.9610   17.0550   -2.7940 c3        1 OPC     -0.078400
     52 CBY        33.1280   17.8170   -3.3850 c3        1 OPC     -0.079400
     53 CBZ        32.8040   19.2880   -3.5370 c3        1 OPC     -0.079400
     54 CCA        33.9700   20.0510   -4.1270 c3        1 OPC     -0.080400
     55 CCB        33.6520   21.5160   -4.2800 c3        1 OPC     -0.092100
     56 HBF1        2.7510   -5.3100   -0.4030 hc        1 OPC      0.032367
     57 HBF2        1.3850   -4.4070    0.3690 hc        1 OPC      0.032367
     58 HBF3        1.5770   -6.1840    0.6650 hc        1 OPC      0.032367
     59 HBE1        2.3610   -4.8800    2.6420 hc        1 OPC      0.038700
     60 HBE2        3.7230   -5.7800    1.8720 hc        1 OPC      0.038700
     61 HBD1        4.4000   -3.6960    0.6330 hc        1 OPC      0.039200
     62 HBD2        3.0380   -2.7950    1.4030 hc        1 OPC      0.039200
     63 HBC1        3.9920   -3.2990    3.6800 hc        1 OPC      0.039700
     64 HBC2        5.3540   -4.1990    2.9090 hc        1 OPC      0.039700
     65 HBB1        6.0330   -2.1130    1.6710 hc        1 OPC      0.039200
     66 HBB2        4.6710   -1.2130    2.4420 hc        1 OPC      0.039200
     67 HBA1        5.6260   -1.7180    4.7180 hc        1 OPC      0.040200
     68 HBA2        6.9880   -2.6170    3.9460 hc        1 OPC      0.040200
     69 HAZ1        7.6650   -0.5300    2.7090 hc        1 OPC      0.039200
     70 HAZ2        6.3030    0.3690    3.4810 hc        1 OPC      0.039200
     71 HAY1        8.6210   -1.0350    4.9840 hc        1 OPC      0.042200
     72 HAY2        7.2590   -0.1360    5.7560 hc        1 OPC      0.042200
     73 HAX1        7.9310    1.9510    4.5030 hc        1 OPC      0.047200
     74 HAX2        9.2960    1.0500    3.7410 hc        1 OPC      0.047200
     75 HAW         9.5590    0.6380    6.6170 ha        1 OPC      0.123000
     76 HAV        10.8430    2.7090    6.8590 ha        1 OPC      0.123000
     77 HAU1        9.1710    4.0550    4.8890 hc        1 OPC      0.047200
     78 HAU2       10.4670    3.2160    3.9520 hc        1 OPC      0.047200
     79 HAT1       10.9560    5.6340    4.6330 hc        1 OPC      0.038700
     80 HAT2       11.0020    5.0970    6.3570 hc        1 OPC      0.038700
     81 HAS1       12.8310    3.4480    5.7700 hc        1 OPC      0.046200
     82 HAS2       12.7970    4.0360    4.0640 hc        1 OPC      0.046200
     83 HAR1       13.3840    5.7740    6.5620 hc        1 OPC      0.037700
     84 HAR2       13.3430    6.3660    4.8570 hc        1 OPC      0.037700
     85 HAQ1       15.2310    4.1650    5.9650 hc        1 OPC      0.061700
     86 HAQ2       15.1800    4.7400    4.2530 hc        1 OPC      0.061700
     87 HAP1       15.7400    6.5440    6.7200 hc        1 OPC      0.071200
     88 HAP2       15.7890    7.0540    4.9780 hc        1 OPC      0.071200
     89 HAL1       19.1240    4.2920    4.2150 h1        1 OPC      0.057200
     90 HAL2       20.8240    4.8590    3.7890 h1        1 OPC      0.057200
     91 HAH1       20.7930    5.8620   -1.0800 h1        1 OPC      0.057700
     92 HAH2       19.4790    4.8980   -1.9440 h1        1 OPC      0.057700
     93 HAG1       17.8130    6.7050   -1.4330 hx        1 OPC      0.079200
     94 HAG2       19.1380    7.1030   -2.6510 hx        1 OPC      0.079200
     95 HAE1       21.0420    8.4380   -1.8950 hx        1 OPC      0.100367
     96 HAE2       20.8180    9.5410   -0.4320 hx        1 OPC      0.100367
     97 HAE3       21.2200    7.7890   -0.1660 hx        1 OPC      0.100367
     98 HBG1       18.8570    9.4120   -2.5600 hx        1 OPC      0.100367
     99 HBG2       17.3760    9.0550   -1.5410 hx        1 OPC      0.100367
    100 HBG3       18.6280   10.2530   -0.9510 hx        1 OPC      0.100367
    101 HAA1       17.6340    7.8720    0.5940 hx        1 OPC      0.100367
    102 HAA2       19.3060    7.2920    1.1110 hx        1 OPC      0.100367
    103 HAA3       18.9370    9.0840    1.1020 hx        1 OPC      0.100367
    104 HAC1       19.9720    6.8650    6.8000 hc        1 OPC      0.057033
    105 HAC2       20.1110    5.0960    6.4190 hc        1 OPC      0.057033
    106 HAC3       21.4000    6.2530    5.8550 hc        1 OPC      0.057033
    107 HBI1       19.4000    7.8930    3.1700 h1        1 OPC      0.059700
    108 HBI2       19.9310    8.5240    4.8130 h1        1 OPC      0.059700
    109 HBL1       23.7680    7.3760    3.1940 hc        1 OPC      0.103700
    110 HBL2       23.2130    7.0230    1.4980 hc        1 OPC      0.103700
    111 HBM1       24.1270    9.7860    2.6230 hc        1 OPC      0.043200
    112 HBM2       23.4700    9.5150    0.9630 hc        1 OPC      0.043200
    113 HBN1       25.9750    8.1310    2.1610 hc        1 OPC      0.045200
    114 HBN2       25.3260    7.8760    0.4960 hc        1 OPC      0.045200
    115 HBO1       25.6350   10.3330    0.0060 hc        1 OPC      0.038200
    116 HBO2       26.2970   10.5770    1.6680 hc        1 OPC      0.038200
    117 HBP1       28.1360    8.9270    1.1780 hc        1 OPC      0.043700
    118 HBP2       27.4750    8.6830   -0.4840 hc        1 OPC      0.043700
    119 HBQ1       28.4520   11.3800    0.6970 hc        1 OPC      0.046200
    120 HBQ2       27.7800   11.1460   -0.9600 hc        1 OPC      0.046200
    121 HBR        29.9770    9.2040   -0.5430 ha        1 OPC      0.123000
    122 HBS        31.5540   10.8120   -1.5060 ha        1 OPC      0.122000
    123 HBT1       30.0070   13.0290   -0.3120 hc        1 OPC      0.046700
    124 HBT2       29.3700   12.7200   -1.9710 hc        1 OPC      0.046700
    125 HBU1       31.7040   12.9200   -2.9070 hc        1 OPC      0.042200
    126 HBU2       32.3420   13.2280   -1.2460 hc        1 OPC      0.042200
    127 HBV1       30.8570   15.2530   -1.0510 hc        1 OPC      0.039200
    128 HBV2       30.2180   14.9440   -2.7110 hc        1 OPC      0.039200
    129 HBW1       32.5480   15.1520   -3.6460 hc        1 OPC      0.040200
    130 HBW2       33.1860   15.4630   -1.9860 hc        1 OPC      0.040200
    131 HBX1       31.0610   17.1770   -3.4520 hc        1 OPC      0.039200
    132 HBX2       31.6990   17.4870   -1.7920 hc        1 OPC      0.039200
    133 HBY1       33.3910   17.3850   -4.3870 hc        1 OPC      0.039700
    134 HBY2       34.0280   17.6960   -2.7270 hc        1 OPC      0.039700
    135 HBZ1       32.5410   19.7200   -2.5350 hc        1 OPC      0.039200
    136 HBZ2       31.9040   19.4090   -4.1950 hc        1 OPC      0.039200
    137 HCA1       34.2330   19.6160   -5.1280 hc        1 OPC      0.038700
    138 HCA2       34.8700   19.9280   -3.4680 hc        1 OPC      0.038700
    139 HCB1       33.4110   21.9730   -3.2900 hc        1 OPC      0.032367
    140 HCB2       34.5250   22.0590   -4.7170 hc        1 OPC      0.032367
    141 HCB3       32.7740   21.6600   -4.9550 hc        1 OPC      0.032367
@<TRIPOS>BOND
     1    1    2 1   
     2    1   56 1   
     3    1   57 1   
     4    1   58 1   
     5    2    3 1   
     6    2   59 1   
     7    2   60 1   
     8    3    4 1   
     9    3   61 1   
    10    3   62 1   
    11    4    5 1   
    12    4   63 1   
    13    4   64 1   
    14    5    6 1   
    15    5   65 1   
    16    5   66 1   
    17    6    7 1   
    18    6   67 1   
    19    6   68 1   
    20    7    8 1   
    21    7   69 1   
    22    7   70 1   
    23    8    9 1   
    24    8   71 1   
    25    8   72 1   
    26    9   10 1   
    27    9   73 1   
    28    9   74 1   
    29   10   11 2   
    30   10   75 1   
    31   11   12 1   
    32   11   76 1   
    33   12   13 1   
    34   12   77 1   
    35   12   78 1   
    36   13   14 1   
    37   13   79 1   
    38   13   80 1   
    39   14   15 1   
    40   14   81 1   
    41   14   82 1   
    42   15   16 1   
    43   15   83 1   
    44   15   84 1   
    45   16   17 1   
    46   16   85 1   
    47   16   86 1   
    48   17   18 1   
    49   17   87 1   
    50   17   88 1   
    51   18   19 2   
    52   18   20 1   
    53   20   21 1   
    54   21   22 1   
    55   21   34 1   
    56   21   35 1   
    57   22   23 1   
    58   22   89 1   
    59   22   90 1   
    60   23   24 1   
    61   24   25 1   
    62   24   26 1   
    63   24   27 1   
    64   27   28 1   
    65   28   29 1   
    66   28   91 1   
    67   28   92 1   
    68   29   30 1   
    69   29   93 1   
    70   29   94 1   
    71   30   31 1   
    72   30   32 1   
    73   30   33 1   
    74   31   95 1   
    75   31   96 1   
    76   31   97 1   
    77   32   98 1   
    78   32   99 1   
    79   32  100 1   
    80   33  101 1   
    81   33  102 1   
    82   33  103 1   
    83   34  104 1   
    84   34  105 1   
    85   34  106 1   
    86   35   36 1   
    87   35  107 1   
    88   35  108 1   
    89   36   37 1   
    90   37   38 2   
    91   37   39 1   
    92   39   40 1   
    93   39  109 1   
    94   39  110 1   
    95   40   41 1   
    96   40  111 1   
    97   40  112 1   
    98   41   42 1   
    99   41  113 1   
   100   41  114 1   
   101   42   43 1   
   102   42  115 1   
   103   42  116 1   
   104   43   44 1   
   105   43  117 1   
   106   43  118 1   
   107   44   45 1   
   108   44  119 1   
   109   44  120 1   
   110   45   46 2   
   111   45  121 1   
   112   46   47 1   
   113   46  122 1   
   114   47   48 1   
   115   47  123 1   
   116   47  124 1   
   117   48   49 1   
   118   48  125 1   
   119   48  126 1   
   120   49   50 1   
   121   49  127 1   
   122   49  128 1   
   123   50   51 1   
   124   50  129 1   
   125   50  130 1   
   126   51   52 1   
   127   51  131 1   
   128   51  132 1   
   129   52   53 1   
   130   52  133 1   
   131   52  134 1   
   132   53   54 1   
   133   53  135 1   
   134   53  136 1   
   135   54   55 1   
   136   54  137 1   
   137   54  138 1   
   138   55  139 1   
   139   55  140 1   
   140   55  141 1   
@<TRIPOS>SUBSTRUCTURE
     1 OPC         1 TEMP              0 ****  ****    0 ROOT
