@<TRIPOS>MOLECULE
OPD
   48    48     1     0     0
SMALL
bcc


@<TRIPOS>ATOM
      1 C8         -3.1960    1.1690   -1.2860 c2        1 OPD     -0.175200
      2 C7         -2.0420    0.5300   -1.4990 c2        1 OPD     -0.176200
      3 C5         -0.0610   -0.4530   -0.3540 c3        1 OPD     -0.164700
      4 C1          0.5350   -1.1490   -1.5790 c         1 OPD      0.566300
      5 O6         -0.0950   -1.5910   -2.5400 o         1 OPD     -0.536100
      6 C2          2.0010   -1.2340   -1.3770 ce        1 OPD     -0.273200
      7 C3          2.3390   -0.7230   -0.1790 c2        1 OPD     -0.090200
      8 C4          1.1440   -0.2370    0.6010 c3        1 OPD     -0.050500
      9 C11         1.3240    1.1770    1.1130 c3        1 OPD     -0.070400
     10 C12         2.4800    1.2880    2.0880 c3        1 OPD     -0.081400
     11 C13         2.5390    2.6670    2.7100 c3        1 OPD     -0.079400
     12 C14         3.7040    2.7870    3.6690 c3        1 OPD     -0.079400
     13 C15         3.7610    4.1600    4.3050 c3        1 OPD     -0.078400
     14 C16         4.9190    4.2700    5.2750 c3        1 OPD     -0.065400
     15 C17         4.9940    5.6370    5.9110 c3        1 OPD     -0.194400
     16 C18         6.0440    5.6720    7.0360 c         1 OPD      0.907600
     17 O20         6.8260    6.6650    7.0790 o         1 OPD     -0.852300
     18 O19         6.0660    4.7220    7.8710 o         1 OPD     -0.852300
     19 C6         -0.8040    0.8160   -0.7310 c3        1 OPD     -0.031200
     20 C9         -4.4360    0.8960   -2.0530 c3        1 OPD     -0.047200
     21 C10        -5.1270    2.1700   -2.4740 c3        1 OPD     -0.089100
     22 H81        -3.2900    1.9430   -0.5060 ha        1 OPD      0.118000
     23 H71        -1.9450   -0.2450   -2.2800 ha        1 OPD      0.146000
     24 H51        -0.7870   -1.1620    0.1290 hc        1 OPD      0.078700
     25 H21         2.6550   -1.6640   -2.1360 ha        1 OPD      0.158000
     26 H31         3.3420   -0.6480    0.2480 ha        1 OPD      0.152000
     27 H41         1.0110   -0.9160    1.4920 hc        1 OPD      0.067700
     28 H111        1.4880    1.8790    0.2550 hc        1 OPD      0.047700
     29 H112        0.3840    1.4970    1.6380 hc        1 OPD      0.047700
     30 H121        3.4470    1.0790    1.5600 hc        1 OPD      0.038200
     31 H122        2.3700    0.5180    2.8960 hc        1 OPD      0.038200
     32 H131        1.5810    2.8770    3.2550 hc        1 OPD      0.036200
     33 H132        2.6350    3.4400    1.9020 hc        1 OPD      0.036200
     34 H141        3.6120    2.0080    4.4720 hc        1 OPD      0.037200
     35 H142        4.6630    2.5870    3.1240 hc        1 OPD      0.037200
     36 H151        3.8620    4.9400    3.5060 hc        1 OPD      0.026700
     37 H152        2.7990    4.3630    4.8440 hc        1 OPD      0.026700
     38 H161        5.8790    4.0560    4.7370 hc        1 OPD      0.044200
     39 H162        4.8170    3.5020    6.0880 hc        1 OPD      0.044200
     40 H171        4.0040    5.9050    6.3590 hc        1 OPD      0.019200
     41 H172        5.2450    6.4110    5.1440 hc        1 OPD      0.019200
     42 H61        -0.1360    1.4730   -1.3520 hc        1 OPD      0.055200
     43 H62        -1.0580    1.3860    0.2030 hc        1 OPD      0.055200
     44 H91        -4.2090    0.2750   -2.9610 hc        1 OPD      0.044700
     45 H92        -5.1300    0.2910   -1.4070 hc        1 OPD      0.044700
     46 H101       -4.4630    2.7780   -3.1340 hc        1 OPD      0.032367
     47 H102       -6.0630    1.9330   -3.0350 hc        1 OPD      0.032367
     48 H103       -5.3950    2.7870   -1.5830 hc        1 OPD      0.032367
@<TRIPOS>BOND
     1    1    2 2   
     2    1   20 1   
     3    1   22 1   
     4    2   19 1   
     5    2   23 1   
     6    3    4 1   
     7    3    8 1   
     8    3   19 1   
     9    3   24 1   
    10    4    5 2   
    11    4    6 1   
    12    6    7 2   
    13    6   25 1   
    14    7    8 1   
    15    7   26 1   
    16    8    9 1   
    17    8   27 1   
    18    9   10 1   
    19    9   28 1   
    20    9   29 1   
    21   10   11 1   
    22   10   30 1   
    23   10   31 1   
    24   11   12 1   
    25   11   32 1   
    26   11   33 1   
    27   12   13 1   
    28   12   34 1   
    29   12   35 1   
    30   13   14 1   
    31   13   36 1   
    32   13   37 1   
    33   14   15 1   
    34   14   38 1   
    35   14   39 1   
    36   15   16 1   
    37   15   40 1   
    38   15   41 1   
    39   16   17 1   
    40   16   18 1   
    41   19   42 1   
    42   19   43 1   
    43   20   21 1   
    44   20   44 1   
    45   20   45 1   
    46   21   46 1   
    47   21   47 1   
    48   21   48 1   
@<TRIPOS>SUBSTRUCTURE
     1 OPD         1 TEMP              0 ****  ****    0 ROOT
