@<TRIPOS>MOLECULE
OPD
   48    48     1     0     0
SMALL
bcc


@<TRIPOS>ATOM
      1 C8          0.4800    0.5970   -0.4060 c2        1 OPD     -0.177200
      2 C7          1.4490    1.4490   -0.0550 c2        1 OPD     -0.179200
      3 C5          3.4850    2.1270    1.2260 c3        1 OPD     -0.164700
      4 C1          3.3180    3.6310    1.0010 c         1 OPD      0.566300
      5 O6          2.8490    4.1650   -0.0040 o         1 OPD     -0.535100
      6 C2          3.8700    4.3240    2.1880 ce        1 OPD     -0.272200
      7 C3          4.4030    3.4340    3.0450 c2        1 OPD     -0.091200
      8 C4          4.2980    2.0160    2.5430 c3        1 OPD     -0.050500
      9 C11         3.7280    1.0740    3.5840 c3        1 OPD     -0.071400
     10 C12         4.6390    0.9360    4.7870 c3        1 OPD     -0.081400
     11 C13         4.1120   -0.1050    5.7530 c3        1 OPD     -0.079400
     12 C14         5.0110   -0.2350    6.9640 c3        1 OPD     -0.079400
     13 C15         4.4950   -1.2810    7.9290 c3        1 OPD     -0.078400
     14 C16         5.4040   -1.4180    9.1330 c3        1 OPD     -0.065400
     15 C17         4.8970   -2.4510   10.1080 c3        1 OPD     -0.194400
     16 C18         5.9270   -2.7220   11.2200 c         1 OPD      0.907600
     17 O20         5.5030   -2.7870   12.4100 o         1 OPD     -0.852300
     18 O19         7.1390   -2.8840   10.8940 o         1 OPD     -0.852300
     19 C6          2.1500    1.4070    1.2520 c3        1 OPD     -0.033200
     20 C9         -0.0070   -0.5110    0.4500 c3        1 OPD     -0.051200
     21 C10        -1.2230   -1.1920   -0.1250 c3        1 OPD     -0.089100
     22 H81        -0.0090    0.6930   -1.3890 ha        1 OPD      0.120000
     23 H71         1.7610    2.2570   -0.7400 ha        1 OPD      0.146000
     24 H51         4.0980    1.7130    0.3800 hc        1 OPD      0.077700
     25 H21         3.8210    5.4100    2.2880 ha        1 OPD      0.158000
     26 H31         4.8840    3.6440    4.0040 ha        1 OPD      0.152000
     27 H41         5.3370    1.6610    2.2850 hc        1 OPD      0.067700
     28 H111        3.5910    0.0600    3.1220 hc        1 OPD      0.046700
     29 H112        2.7190    1.4330    3.9160 hc        1 OPD      0.046700
     30 H121        5.6690    0.6460    4.4520 hc        1 OPD      0.038700
     31 H122        4.7270    1.9210    5.3160 hc        1 OPD      0.038700
     32 H131        4.0360   -1.0960    5.2340 hc        1 OPD      0.036200
     33 H132        3.0770    0.1770    6.0820 hc        1 OPD      0.036200
     34 H141        6.0480   -0.5100    6.6350 hc        1 OPD      0.037200
     35 H142        5.0830    0.7540    7.4880 hc        1 OPD      0.037200
     36 H151        4.4170   -2.2690    7.4040 hc        1 OPD      0.026700
     37 H152        3.4620   -1.0040    8.2660 hc        1 OPD      0.026700
     38 H161        6.4380   -1.7110    8.8050 hc        1 OPD      0.044200
     39 H162        5.4910   -0.4270    9.6500 hc        1 OPD      0.044200
     40 H171        4.7060   -3.4180    9.5770 hc        1 OPD      0.019200
     41 H172        3.9340   -2.1150   10.5670 hc        1 OPD      0.019200
     42 H61         1.4870    1.8630    2.0380 hc        1 OPD      0.056700
     43 H62         2.3180    0.3340    1.5450 hc        1 OPD      0.056700
     44 H91         0.8170   -1.2660    0.5820 hc        1 OPD      0.047700
     45 H92        -0.2480   -0.1150    1.4750 hc        1 OPD      0.047700
     46 H101       -2.0640   -0.4660   -0.2410 hc        1 OPD      0.032033
     47 H102       -0.9950   -1.6270   -1.1280 hc        1 OPD      0.032033
     48 H103       -1.5590   -2.0160    0.5500 hc        1 OPD      0.032033
@<TRIPOS>BOND
     1    1    2 2   
     2    1   20 1   
     3    1   22 1   
     4    2   19 1   
     5    2   23 1   
     6    3    4 1   
     7    3    8 1   
     8    3   19 1   
     9    3   24 1   
    10    4    5 2   
    11    4    6 1   
    12    6    7 2   
    13    6   25 1   
    14    7    8 1   
    15    7   26 1   
    16    8    9 1   
    17    8   27 1   
    18    9   10 1   
    19    9   28 1   
    20    9   29 1   
    21   10   11 1   
    22   10   30 1   
    23   10   31 1   
    24   11   12 1   
    25   11   32 1   
    26   11   33 1   
    27   12   13 1   
    28   12   34 1   
    29   12   35 1   
    30   13   14 1   
    31   13   36 1   
    32   13   37 1   
    33   14   15 1   
    34   14   38 1   
    35   14   39 1   
    36   15   16 1   
    37   15   40 1   
    38   15   41 1   
    39   16   17 1   
    40   16   18 1   
    41   19   42 1   
    42   19   43 1   
    43   20   21 1   
    44   20   44 1   
    45   20   45 1   
    46   21   46 1   
    47   21   47 1   
    48   21   48 1   
@<TRIPOS>SUBSTRUCTURE
     1 OPD         1 TEMP              0 ****  ****    0 ROOT
