@<TRIPOS>MOLECULE
OPD
   48    45     1     0     0
SMALL
bcc


@<TRIPOS>ATOM
      1 C8         -4.5570    2.3470   -3.0050 c1        1 OPD     -0.172000
      2 C7         -3.1670    2.2880   -3.0100 c1        1 OPD     -0.172000
      3 C5         -1.0350    2.2200   -1.9410 c3        1 OPD     -0.160000
      4 C1         -0.4800    3.6680   -2.2630 c2        1 OPD      0.259000
      5 O6         -1.1100    4.5830   -2.8160 o         1 OPD     -0.295000
      6 C2          0.6360    3.8300   -1.3920 c2        1 OPD     -0.253000
      7 C3          0.9060    2.7810   -0.6170 c1        1 OPD     -0.086000
      8 C4         -0.0430    1.7600   -0.6120 c2        1 OPD     -0.097000
      9 C11         0.5440    0.3630   -0.7190 c3        1 OPD     -0.151000
     10 C12         1.3280    0.0270    0.5700 c3        1 OPD     -0.159000
     11 C13         1.6730   -1.4690    0.5790 c3        1 OPD     -0.158000
     12 C14         2.6590   -1.7560    1.7100 c3        1 OPD     -0.158000
     13 C15         2.8030   -3.2680    1.8900 c3        1 OPD     -0.157000
     14 C16         3.9520   -3.5640    2.9210 c3        1 OPD     -0.144000
     15 C17         3.8630   -5.0520    3.3880 c3        1 OPD     -0.223000
     16 C18         5.1450   -5.4340    4.1200 c2        1 OPD      0.327000
     17 O20         6.0830   -6.0070    3.4940 o         1 OPD     -0.587500
     18 O19         5.2650   -5.1900    5.3420 o         1 OPD     -0.587500
     19 C6         -2.3980    2.1720   -1.6860 c2        1 OPD     -0.114000
     20 C9         -5.3190    2.2980   -1.6810 c2        1 OPD     -0.134000
     21 C10        -6.8290    2.3390   -1.9550 c3        1 OPD     -0.208000
     22 H81        -5.0480    2.4210   -3.8510 ha        1 OPD      0.132500
     23 H71        -2.6870    2.3190   -3.8430 ha        1 OPD      0.132500
     24 H51        -0.9500    1.6140   -2.6950 hc        1 OPD      0.126000
     25 H21         1.3480    4.4710   -1.6180 ha        1 OPD      0.157000
     26 H31         1.6480    2.8010    0.0350 ha        1 OPD      0.151000
     27 H41        -0.5490    1.7110    0.2430 ha        1 OPD      0.111000
     28 H111       -0.1750   -0.2820   -0.8380 hc        1 OPD      0.086500
     29 H112        1.1550    0.3220   -1.4950 hc        1 OPD      0.086500
     30 H121        0.7790    0.2400    1.3530 hc        1 OPD      0.078000
     31 H122        2.1480    0.5490    0.5980 hc        1 OPD      0.078000
     32 H131        2.0730   -1.7120   -0.2680 hc        1 OPD      0.075500
     33 H132        0.8520   -1.9950    0.7170 hc        1 OPD      0.075500
     34 H141        2.3330   -1.3630    2.5290 hc        1 OPD      0.076500
     35 H142        3.5340   -1.3680    1.4870 hc        1 OPD      0.076500
     36 H151        1.9650   -3.6360    2.2240 hc        1 OPD      0.066000
     37 H152        3.0220   -3.6810    1.0250 hc        1 OPD      0.066000
     38 H161        4.8220   -3.4050    2.4970 hc        1 OPD      0.083500
     39 H162        3.8530   -2.9670    3.7060 hc        1 OPD      0.083500
     40 H171        3.0910   -5.1600    3.9950 hc        1 OPD      0.058500
     41 H172        3.7490   -5.6310    2.6120 hc        1 OPD      0.058500
     42 H61        -2.6200    1.3230   -1.2520 ha        1 OPD      0.091500
     43 H62        -2.6470    2.9170   -1.0970 ha        1 OPD      0.091500
     44 H91        -5.0940    1.4640   -1.2030 ha        1 OPD      0.086000
     45 H92        -5.0650    3.0740   -1.1260 ha        1 OPD      0.086000
     46 H101       -7.0800    1.5780   -2.5350 hc        1 OPD      0.071333
     47 H102       -7.3150    2.2770   -1.1090 hc        1 OPD      0.071333
     48 H103       -7.0570    3.1840   -2.4040 hc        1 OPD      0.071333
@<TRIPOS>BOND
     1    1    2 1   
     2    1   22 1   
     3    2   23 1   
     4    3    4 1   
     5    3    8 1   
     6    3   19 1   
     7    3   24 1   
     8    4    5 1   
     9    4    6 1   
    10    6    7 1   
    11    6   25 1   
    12    7   26 1   
    13    8    9 1   
    14    8   27 1   
    15    9   10 1   
    16    9   28 1   
    17    9   29 1   
    18   10   11 1   
    19   10   30 1   
    20   10   31 1   
    21   11   12 1   
    22   11   32 1   
    23   11   33 1   
    24   12   13 1   
    25   12   34 1   
    26   12   35 1   
    27   13   14 1   
    28   13   36 1   
    29   13   37 1   
    30   14   15 1   
    31   14   38 1   
    32   14   39 1   
    33   15   16 1   
    34   15   40 1   
    35   15   41 1   
    36   16   17 1   
    37   16   18 1   
    38   19   42 1   
    39   19   43 1   
    40   20   21 1   
    41   20   44 1   
    42   20   45 1   
    43   21   46 1   
    44   21   47 1   
    45   21   48 1   
@<TRIPOS>SUBSTRUCTURE
     1 OPD         1 TEMP              0 ****  ****    0 ROOT
