@<TRIPOS>MOLECULE
OPD
   48    48     1     0     0
SMALL
bcc


@<TRIPOS>ATOM
      1 C8          0.5220    0.5810   -0.4410 c2        1 OPD     -0.177200
      2 C7          1.4840    1.4400   -0.0870 c2        1 OPD     -0.179200
      3 C5          3.5070    2.1340    1.2040 c3        1 OPD     -0.164700
      4 C1          3.3320    3.6360    0.9750 c         1 OPD      0.566300
      5 O6          2.8650    4.1650   -0.0330 o         1 OPD     -0.535100
      6 C2          3.8720    4.3360    2.1640 ce        1 OPD     -0.272200
      7 C3          4.4060    3.4510    3.0260 c2        1 OPD     -0.091200
      8 C4          4.3140    2.0310    2.5260 c3        1 OPD     -0.050500
      9 C11         3.7440    1.0870    3.5660 c3        1 OPD     -0.071400
     10 C12         4.6490    0.9580    4.7750 c3        1 OPD     -0.081400
     11 C13         4.1240   -0.0850    5.7390 c3        1 OPD     -0.079400
     12 C14         5.0170   -0.2060    6.9560 c3        1 OPD     -0.079400
     13 C15         4.5030   -1.2550    7.9190 c3        1 OPD     -0.078400
     14 C16         5.4060   -1.3810    9.1290 c3        1 OPD     -0.065400
     15 C17         4.9010   -2.4180   10.1030 c3        1 OPD     -0.194400
     16 C18         5.9250   -2.6770   11.2230 c         1 OPD      0.907600
     17 O20         5.4940   -2.7440   12.4090 o         1 OPD     -0.852300
     18 O19         7.1410   -2.8280   10.9050 o         1 OPD     -0.852300
     19 C6          2.1770    1.4050    1.2240 c3        1 OPD     -0.033200
     20 C9          0.0370   -0.5280    0.4150 c3        1 OPD     -0.051200
     21 C10        -1.1730   -1.2170   -0.1650 c3        1 OPD     -0.089100
     22 H81         0.0380    0.6710   -1.4270 ha        1 OPD      0.120000
     23 H71         1.7950    2.2480   -0.7720 ha        1 OPD      0.146000
     24 H51         4.1280    1.7220    0.3620 hc        1 OPD      0.077700
     25 H21         3.8140    5.4210    2.2610 ha        1 OPD      0.158000
     26 H31         4.8800    3.6670    3.9870 ha        1 OPD      0.152000
     27 H41         5.3560    1.6830    2.2750 hc        1 OPD      0.067700
     28 H111        3.6170    0.0710    3.1050 hc        1 OPD      0.046700
     29 H112        2.7310    1.4400    3.8910 hc        1 OPD      0.046700
     30 H121        5.6840    0.6760    4.4460 hc        1 OPD      0.038700
     31 H122        4.7260    1.9450    5.3030 hc        1 OPD      0.038700
     32 H131        4.0590   -1.0780    5.2220 hc        1 OPD      0.036200
     33 H132        3.0850    0.1890    6.0610 hc        1 OPD      0.036200
     34 H141        6.0580   -0.4720    6.6350 hc        1 OPD      0.037200
     35 H142        5.0760    0.7850    7.4790 hc        1 OPD      0.037200
     36 H151        4.4380   -2.2440    7.3950 hc        1 OPD      0.026700
     37 H152        3.4650   -0.9870    8.2490 hc        1 OPD      0.026700
     38 H161        6.4440   -1.6650    8.8090 hc        1 OPD      0.044200
     39 H162        5.4800   -0.3890    9.6460 hc        1 OPD      0.044200
     40 H171        3.9320   -2.0900   10.5550 hc        1 OPD      0.019200
     41 H172        4.7230   -3.3870    9.5720 hc        1 OPD      0.019200
     42 H61         2.3510    0.3340    1.5210 hc        1 OPD      0.056700
     43 H62         1.5070    1.8580    2.0050 hc        1 OPD      0.056700
     44 H91         0.8650   -1.2780    0.5530 hc        1 OPD      0.047700
     45 H92        -0.2120   -0.1310    1.4370 hc        1 OPD      0.047700
     46 H101       -0.9370   -1.6540   -1.1650 hc        1 OPD      0.032033
     47 H102       -1.5070   -2.0410    0.5100 hc        1 OPD      0.032033
     48 H103       -2.0160   -0.4960   -0.2870 hc        1 OPD      0.032033
@<TRIPOS>BOND
     1    1    2 2   
     2    1   20 1   
     3    1   22 1   
     4    2   19 1   
     5    2   23 1   
     6    3    4 1   
     7    3    8 1   
     8    3   19 1   
     9    3   24 1   
    10    4    5 2   
    11    4    6 1   
    12    6    7 2   
    13    6   25 1   
    14    7    8 1   
    15    7   26 1   
    16    8    9 1   
    17    8   27 1   
    18    9   10 1   
    19    9   28 1   
    20    9   29 1   
    21   10   11 1   
    22   10   30 1   
    23   10   31 1   
    24   11   12 1   
    25   11   32 1   
    26   11   33 1   
    27   12   13 1   
    28   12   34 1   
    29   12   35 1   
    30   13   14 1   
    31   13   36 1   
    32   13   37 1   
    33   14   15 1   
    34   14   38 1   
    35   14   39 1   
    36   15   16 1   
    37   15   40 1   
    38   15   41 1   
    39   16   17 1   
    40   16   18 1   
    41   19   42 1   
    42   19   43 1   
    43   20   21 1   
    44   20   44 1   
    45   20   45 1   
    46   21   46 1   
    47   21   47 1   
    48   21   48 1   
@<TRIPOS>SUBSTRUCTURE
     1 OPD         1 TEMP              0 ****  ****    0 ROOT
