@<TRIPOS>MOLECULE
OPE
   14    13     1     0     0
SMALL
bcc


@<TRIPOS>ATOM
      1 CA         -1.1300   -0.1440    1.2920 c3        1 OPE      0.207400
      2 CB         -0.5090   -0.1080    2.7100 c3        1 OPE      0.125800
      3 O1         -0.7930    0.6300   -1.4970 o         1 OPE     -0.936167
      4 O2          0.9930   -1.2010   -1.6500 o         1 OPE     -0.936167
      5 O3          1.2730    0.7610   -0.0180 o         1 OPE     -0.936167
      6 O4         -0.4370   -0.9640    0.4430 os        1 OPE     -0.568200
      7 N           0.8730    0.3090    2.8010 n3        1 OPE     -0.927800
      8 P           0.3540   -0.1010   -0.8520 p5        1 OPE      1.316900
      9 HA1        -1.1860    0.9060    0.8860 h1        1 OPE     -0.021300
     10 HA2        -2.1890   -0.5300    1.4220 h1        1 OPE     -0.021300
     11 HB1        -0.5990   -1.1340    3.1660 h1        1 OPE     -0.016300
     12 HB2        -1.1220    0.5960    3.3430 h1        1 OPE     -0.016300
     13 HN1         1.4420   -0.4000    2.3660 hn        1 OPE      0.364800
     14 HN2         1.0010    1.1280    2.2210 hn        1 OPE      0.364800
@<TRIPOS>BOND
     1    1    2 1   
     2    1    6 1   
     3    1    9 1   
     4    1   10 1   
     5    2    7 1   
     6    2   11 1   
     7    2   12 1   
     8    3    8 1   
     9    4    8 1   
    10    5    8 1   
    11    6    8 1   
    12    7   13 1   
    13    7   14 1   
@<TRIPOS>SUBSTRUCTURE
     1 OPE         1 TEMP              0 ****  ****    0 ROOT
