@<TRIPOS>MOLECULE
OPG
   24    25     1     0     0
SMALL
bcc


@<TRIPOS>ATOM
      1 C1         -1.2900    1.7300   -0.1170 c3        1 OPG     -0.076400
      2 C2         -1.7860    0.3400   -0.4970 c3        1 OPG      0.120100
      3 O2         -3.1650    0.2790   -0.1610 oh        1 OPG     -0.596800
      4 C3         -1.0130   -0.7330    0.2870 c3        1 OPG      0.068100
      5 O3         -1.5660   -2.0180    0.0420 oh        1 OPG     -0.610800
      6 C4          0.4420   -0.7790   -0.2050 c3        1 OPG      0.166100
      7 O4          1.2040   -1.6960    0.5660 oh        1 OPG     -0.601800
      8 C5          1.0830    0.5890   -0.0860 cx        1 OPG      0.044800
      9 O8          0.8260    1.3130    1.1330 os        1 OPG     -0.389600
     10 C7          2.5140    0.6950   -0.5710 c3        1 OPG      0.156400
     11 C6          0.2070    1.8040   -0.0690 cx        1 OPG      0.073100
     12 O7          2.9510   -0.4620   -1.2460 oh        1 OPG     -0.598800
     13 H11        -1.6790    2.4700   -0.8630 hc        1 OPG      0.076700
     14 H12        -1.7080    2.0080    0.8890 hc        1 OPG      0.076700
     15 H2         -1.6540    0.1630   -1.6010 h1        1 OPG      0.050700
     16 HO2        -3.5210   -0.4970   -0.6120 ho        1 OPG      0.407000
     17 H3         -1.0340   -0.4980    1.3870 h1        1 OPG      0.080700
     18 HO3        -2.3520   -2.0880    0.5970 ho        1 OPG      0.415000
     19 H4          0.4720   -1.0960   -1.2880 h1        1 OPG      0.072700
     20 HO4         0.7120   -2.5280    0.5600 ho        1 OPG      0.426000
     21 H71         2.6000    1.5170   -1.3330 h1        1 OPG      0.061200
     22 H72         3.1800    0.9190    0.3060 h1        1 OPG      0.061200
     23 H6          0.6260    2.7720   -0.4170 h1        1 OPG      0.094700
     24 HO7         2.9660   -1.1870   -0.6040 ho        1 OPG      0.423000
@<TRIPOS>BOND
     1    1    2 1   
     2    1   11 1   
     3    1   13 1   
     4    1   14 1   
     5    2    3 1   
     6    2    4 1   
     7    2   15 1   
     8    3   16 1   
     9    4    5 1   
    10    4    6 1   
    11    4   17 1   
    12    5   18 1   
    13    6    7 1   
    14    6    8 1   
    15    6   19 1   
    16    7   20 1   
    17    8    9 1   
    18    8   10 1   
    19    8   11 1   
    20    9   11 1   
    21   10   12 1   
    22   10   21 1   
    23   10   22 1   
    24   11   23 1   
    25   12   24 1   
@<TRIPOS>SUBSTRUCTURE
     1 OPG         1 TEMP              0 ****  ****    0 ROOT
