@<TRIPOS>MOLECULE
OPG
   24    25     1     0     0
SMALL
bcc


@<TRIPOS>ATOM
      1 C1          0.1320    0.1180   -0.0880 c3        1 OPG     -0.110400
      2 C2          1.6360   -0.0350    0.1090 c3        1 OPG      0.110100
      3 O2          2.0680   -1.3350   -0.2760 oh        1 OPG     -0.606800
      4 C3          2.0140    0.1020    1.5930 c3        1 OPG      0.113100
      5 O3          3.4000   -0.1210    1.7920 oh        1 OPG     -0.611800
      6 C4          1.7450    1.5420    2.0620 c3        1 OPG      0.165100
      7 O4          1.9830    1.6670    3.4570 oh        1 OPG     -0.602800
      8 C5          0.3100    1.9450    1.7930 cx        1 OPG      0.047800
      9 O8         -0.7020    0.9670    2.0960 os        1 OPG     -0.387600
     10 C7         -0.0660    3.3560    2.1960 c3        1 OPG      0.156400
     11 C6         -0.4490    1.2470    0.7090 cx        1 OPG      0.074100
     12 O7          1.0510    4.1530    2.5140 oh        1 OPG     -0.598800
     13 H11        -0.3750   -0.8380    0.2150 hc        1 OPG      0.068700
     14 H12        -0.0790    0.2880   -1.1760 hc        1 OPG      0.068700
     15 H2          2.1940    0.7350   -0.4940 h1        1 OPG      0.051700
     16 HO2         1.8520   -1.4370   -1.2100 ho        1 OPG      0.411000
     17 H3          1.4170   -0.6250    2.2090 h1        1 OPG      0.077700
     18 HO3         3.5990   -0.9880    1.4140 ho        1 OPG      0.431000
     19 H4          2.4260    2.2540    1.5120 h1        1 OPG      0.072700
     20 HO4         2.8490    1.2680    3.6240 ho        1 OPG      0.430000
     21 H71        -0.7790    3.3060    3.0640 h1        1 OPG      0.060700
     22 H72        -0.5560    3.8840    1.3330 h1        1 OPG      0.060700
     23 H6         -1.2820    1.7800    0.2050 h1        1 OPG      0.093700
     24 HO7         1.4600    3.7800    3.3090 ho        1 OPG      0.424000
@<TRIPOS>BOND
     1    1    2 1   
     2    1   11 1   
     3    1   13 1   
     4    1   14 1   
     5    2    3 1   
     6    2    4 1   
     7    2   15 1   
     8    3   16 1   
     9    4    5 1   
    10    4    6 1   
    11    4   17 1   
    12    5   18 1   
    13    6    7 1   
    14    6    8 1   
    15    6   19 1   
    16    7   20 1   
    17    8    9 1   
    18    8   10 1   
    19    8   11 1   
    20    9   11 1   
    21   10   12 1   
    22   10   21 1   
    23   10   22 1   
    24   11   23 1   
    25   12   24 1   
@<TRIPOS>SUBSTRUCTURE
     1 OPG         1 TEMP              0 ****  ****    0 ROOT
