@<TRIPOS>MOLECULE
OPG
   24    25     1     0     0
SMALL
bcc


@<TRIPOS>ATOM
      1 C1         -0.6460    0.9160   -1.1150 c3        1 OPG     -0.108400
      2 C2          1.2630    1.0020   -1.1740 c3        1 OPG      0.125100
      3 O2          1.9140   -0.6160   -1.7390 oh        1 OPG     -0.591800
      4 C3          1.4320    1.0920   -0.7390 c3        1 OPG      0.106100
      5 O3          0.8500    2.7490   -0.2150 oh        1 OPG     -0.596800
      6 C4          0.7760   -0.2290    0.5270 c3        1 OPG      0.168100
      7 O4          1.2950   -1.1090    0.3930 oh        1 OPG     -0.595800
      8 C5         -1.0470   -0.5650    0.3520 cx        1 OPG     -0.010200
      9 O8         -1.2930   -0.5260   -0.0120 os        1 OPG     -0.409600
     10 C7         -1.7040   -1.3390    1.5120 c3        1 OPG      0.144400
     11 C6         -1.2580   -0.1570    0.2840 cx        1 OPG      0.106100
     12 O7         -1.9700   -2.6690    1.1030 oh        1 OPG     -0.599800
     13 H11        -0.9750    0.5490   -1.9660 hc        1 OPG      0.074200
     14 H12        -1.0030    1.8240   -1.0000 hc        1 OPG      0.074200
     15 H2          1.5480    1.7150   -1.7990 h1        1 OPG      0.070700
     16 HO2         2.2870   -0.5220   -2.5440 ho        1 OPG      0.430000
     17 H3          2.4210    1.0760   -0.7540 h1        1 OPG      0.075700
     18 HO3         1.5530    3.2690   -0.0400 ho        1 OPG      0.408000
     19 H4          0.9470    0.1000    1.4390 h1        1 OPG      0.072700
     20 HO4         1.8720   -1.2210    1.0690 ho        1 OPG      0.423000
     21 H71        -2.5480   -0.8980    1.7640 h1        1 OPG      0.063200
     22 H72        -1.0960   -1.3490    2.2860 h1        1 OPG      0.063200
     23 H6         -2.1760   -0.0070    0.6330 h1        1 OPG      0.094700
     24 HO7        -2.4430   -3.0860    1.7340 ho        1 OPG      0.414000
@<TRIPOS>BOND
     1    1    2 1   
     2    1   11 1   
     3    1   13 1   
     4    1   14 1   
     5    2    3 1   
     6    2    4 1   
     7    2   15 1   
     8    3   16 1   
     9    4    5 1   
    10    4    6 1   
    11    4   17 1   
    12    5   18 1   
    13    6    7 1   
    14    6    8 1   
    15    6   19 1   
    16    7   20 1   
    17    8    9 1   
    18    8   10 1   
    19    8   11 1   
    20    9   11 1   
    21   10   12 1   
    22   10   21 1   
    23   10   22 1   
    24   11   23 1   
    25   12   24 1   
@<TRIPOS>SUBSTRUCTURE
     1 OPG         1 TEMP              0 ****  ****    0 ROOT
