@<TRIPOS>MOLECULE
OPH
   25    25     1     0     0
SMALL
bcc


@<TRIPOS>ATOM
      1 CA          1.4720   -0.5580    0.0890 c3        1 OPH      0.113100
      2 CB         -0.0250   -0.2510    0.0190 c3        1 OPH     -0.031100
      3 CG         -0.4840   -0.0290   -1.3790 ca        1 OPH     -0.090300
      4 CD1        -0.2890   -1.0170   -2.3520 ca        1 OPH     -0.121500
      5 CD2        -1.1410    1.1570   -1.7260 ca        1 OPH     -0.121500
      6 CE1        -0.7460   -0.8200   -3.6540 ca        1 OPH     -0.131500
      7 CE2        -1.5990    1.3500   -3.0290 ca        1 OPH     -0.131500
      8 CZ         -1.4020    0.3630   -3.9940 ca        1 OPH     -0.128000
      9 C           2.0770   -0.1880    1.4290 c         1 OPH      0.590100
     10 CS          2.2740    1.4250    3.1630 c3        1 OPH      0.124700
     11 OP          1.6310   -1.9490   -0.1350 oh        1 OPH     -0.590800
     12 OS          1.6950    1.0250    1.9180 os        1 OPH     -0.429900
     13 O           2.8930   -0.8570    2.0670 o         1 OPH     -0.544000
     14 HA          2.0360    0.0200   -0.6990 h1        1 OPH      0.076700
     15 HB1        -0.5900   -1.1170    0.4590 hc        1 OPH      0.075700
     16 HB2        -0.2330    0.6580    0.6450 hc        1 OPH      0.075700
     17 HD1         0.2330   -1.9480   -2.0750 ha        1 OPH      0.141500
     18 HD2        -1.2990    1.9400   -0.9690 ha        1 OPH      0.141500
     19 HE1        -0.5900   -1.6010   -4.4120 ha        1 OPH      0.131500
     20 HE2        -2.1150    2.2840   -3.2940 ha        1 OPH      0.131500
     21 HZ         -1.7640    0.5170   -5.0210 ha        1 OPH      0.131000
     22 HS1         1.8170    2.4270    3.3540 h1        1 OPH      0.054367
     23 HS2         2.0060    0.6910    3.9600 h1        1 OPH      0.054367
     24 HS3         3.3840    1.4920    3.0610 h1        1 OPH      0.054367
     25 HO          2.5250   -2.1950    0.1460 ho        1 OPH      0.425000
@<TRIPOS>BOND
     1    1    2 1   
     2    1    9 1   
     3    1   11 1   
     4    1   14 1   
     5    2    3 1   
     6    2   15 1   
     7    2   16 1   
     8    3    4 ar  
     9    3    5 ar  
    10    4    6 ar  
    11    4   17 1   
    12    5    7 ar  
    13    5   18 1   
    14    6    8 ar  
    15    6   19 1   
    16    7    8 ar  
    17    7   20 1   
    18    8   21 1   
    19    9   12 1   
    20    9   13 2   
    21   10   12 1   
    22   10   22 1   
    23   10   23 1   
    24   10   24 1   
    25   11   25 1   
@<TRIPOS>SUBSTRUCTURE
     1 OPH         1 TEMP              0 ****  ****    0 ROOT
