@<TRIPOS>MOLECULE
OPH
   25    25     1     0     0
SMALL
bcc


@<TRIPOS>ATOM
      1 CA          1.4430   -0.5860    0.1030 c3        1 OPH      0.113100
      2 CB         -0.0390   -0.2160    0.0260 c3        1 OPH     -0.031100
      3 CG         -0.4900   -0.0060   -1.3760 ca        1 OPH     -0.090300
      4 CD1        -0.3420   -1.0250   -2.3260 ca        1 OPH     -0.121500
      5 CD2        -1.0940    1.1990   -1.7490 ca        1 OPH     -0.121500
      6 CE1        -0.7920   -0.8380   -3.6310 ca        1 OPH     -0.131500
      7 CE2        -1.5450    1.3830   -3.0560 ca        1 OPH     -0.131500
      8 CZ         -1.3950    0.3660   -3.9980 ca        1 OPH     -0.128000
      9 C           2.0660   -0.2140    1.4340 c         1 OPH      0.590100
     10 CS          2.3340    1.4260    3.1340 c3        1 OPH      0.124700
     11 OP          1.5430   -1.9870   -0.0910 oh        1 OPH     -0.590800
     12 OS          1.7370    1.0240    1.8970 os        1 OPH     -0.429900
     13 O           2.8540   -0.9040    2.0860 o         1 OPH     -0.544000
     14 HA          2.0310   -0.0500   -0.6980 h1        1 OPH      0.076700
     15 HB1        -0.6400   -1.0470    0.4870 hc        1 OPH      0.075700
     16 HB2        -0.2070    0.7140    0.6320 hc        1 OPH      0.075700
     17 HD1         0.1380   -1.9710   -2.0280 ha        1 OPH      0.141500
     18 HD2        -1.2150    2.0060   -1.0100 ha        1 OPH      0.141500
     19 HE1        -0.6730   -1.6420   -4.3710 ha        1 OPH      0.131500
     20 HE2        -2.0190    2.3330   -3.3420 ha        1 OPH      0.131500
     21 HZ         -1.7520    0.5120   -5.0280 ha        1 OPH      0.131000
     22 HS1         2.0360    0.7200    3.9460 h1        1 OPH      0.054367
     23 HS2         3.4450    1.4440    3.0290 h1        1 OPH      0.054367
     24 HS3         1.9200    2.4500    3.3040 h1        1 OPH      0.054367
     25 HO          2.4250   -2.2650    0.1940 ho        1 OPH      0.425000
@<TRIPOS>BOND
     1    1    2 1   
     2    1    9 1   
     3    1   11 1   
     4    1   14 1   
     5    2    3 1   
     6    2   15 1   
     7    2   16 1   
     8    3    4 ar  
     9    3    5 ar  
    10    4    6 ar  
    11    4   17 1   
    12    5    7 ar  
    13    5   18 1   
    14    6    8 ar  
    15    6   19 1   
    16    7    8 ar  
    17    7   20 1   
    18    8   21 1   
    19    9   12 1   
    20    9   13 2   
    21   10   12 1   
    22   10   22 1   
    23   10   23 1   
    24   10   24 1   
    25   11   25 1   
@<TRIPOS>SUBSTRUCTURE
     1 OPH         1 TEMP              0 ****  ****    0 ROOT
