@<TRIPOS>MOLECULE
OPH
   25    23     1     0     0
SMALL
bcc


@<TRIPOS>ATOM
      1 CA          0.7940    0.6350    0.1520 c3        1 OPH      0.053000
      2 CB         -0.7170    0.6330    0.1000 c3        1 OPH     -0.122000
      3 CG         -1.2200   -0.7940    0.1000 c2        1 OPH     -0.084000
      4 CD1        -1.3460   -1.4850   -1.0960 c2        1 OPH     -0.122000
      5 CD2        -1.6030   -1.3940    1.2900 c1        1 OPH     -0.122000
      6 CE1        -1.8530   -2.7740   -1.1020 c1        1 OPH     -0.132000
      7 CE2        -2.1110   -2.6840    1.2840 c1        1 OPH     -0.129500
      8 CZ         -2.2360   -3.3740    0.0880 c1        1 OPH     -0.129500
      9 C           1.3090    2.0120   -0.2000 c2        1 OPH      0.265000
     10 CS          3.1610    3.4150   -0.6060 c3        1 OPH     -0.061000
     11 OP          1.2190    0.2930    1.4500 oh        1 OPH     -0.313000
     12 OS          2.5980    2.4020    0.1970 os        1 OPH     -0.291000
     13 O           0.6040    2.7830   -0.8210 o         1 OPH     -0.339000
     14 HA          1.1430   -0.0170   -0.4870 h1        1 OPH      0.113000
     15 HB1        -1.0160    1.0840   -0.7150 hc        1 OPH      0.119000
     16 HB2        -1.0710    1.1030    0.8820 hc        1 OPH      0.119000
     17 HD1        -1.0760   -1.0620   -1.9330 ha        1 OPH      0.134000
     18 HD2        -1.5150   -0.9080    2.1320 ha        1 OPH      0.148000
     19 HE1        -1.9410   -3.2600   -1.9430 ha        1 OPH      0.132000
     20 HE2        -2.3800   -3.1060    2.1220 ha        1 OPH      0.131500
     21 HZ         -2.5940   -4.2820    0.0840 ha        1 OPH      0.131500
     22 HS1         4.0600    3.6310   -0.2780 h1        1 OPH      0.092333
     23 HS2         2.5960    4.2170   -0.5650 h1        1 OPH      0.092333
     24 HS3         3.2180    3.1020   -1.5350 h1        1 OPH      0.092333
     25 HO          1.9780   -0.1680    1.4010 ho        1 OPH      0.221000
@<TRIPOS>BOND
     1    1    2 1   
     2    1    9 1   
     3    1   11 1   
     4    1   14 1   
     5    2    3 1   
     6    2   15 1   
     7    2   16 1   
     8    3    4 1   
     9    3    5 1   
    10    4    6 1   
    11    4   17 1   
    12    5   18 1   
    13    6   19 1   
    14    7    8 1   
    15    7   20 1   
    16    8   21 1   
    17    9   12 1   
    18    9   13 1   
    19   10   12 1   
    20   10   22 1   
    21   10   23 1   
    22   10   24 1   
    23   11   25 1   
@<TRIPOS>SUBSTRUCTURE
     1 OPH         1 TEMP              0 ****  ****    0 ROOT
