@<TRIPOS>MOLECULE
OPH
   25    25     1     0     0
SMALL
bcc


@<TRIPOS>ATOM
      1 CA         -0.4980   -0.3850    0.9460 c3        1 OPH      0.109100
      2 CB         -0.2020    0.8340    0.0670 c3        1 OPH     -0.062100
      3 CG          0.0200    0.4550   -1.3530 ca        1 OPH     -0.082300
      4 CD1        -0.9340    0.7620   -2.3290 ca        1 OPH     -0.120500
      5 CD2         1.2000   -0.2000   -1.7280 ca        1 OPH     -0.120500
      6 CE1        -0.7100    0.4190   -3.6620 ca        1 OPH     -0.127000
      7 CE2         1.4210   -0.5420   -3.0600 ca        1 OPH     -0.127000
      8 CZ          0.4660   -0.2330   -4.0300 ca        1 OPH     -0.126000
      9 C          -0.2120   -0.0270    2.3930 c         1 OPH      0.592100
     10 CS          1.4250    0.0780    4.1150 c3        1 OPH      0.124700
     11 OP         -1.8300   -0.8310    0.8290 oh        1 OPH     -0.571800
     12 OS          1.0850   -0.2280    2.7600 os        1 OPH     -0.432900
     13 O          -1.0110    0.4080    3.2250 o         1 OPH     -0.539000
     14 HA          0.1320   -1.2670    0.6350 h1        1 OPH      0.114700
     15 HB1        -1.0540    1.5600    0.1500 hc        1 OPH      0.064700
     16 HB2         0.7210    1.3420    0.4610 hc        1 OPH      0.064700
     17 HD1        -1.8660    1.2720   -2.0440 ha        1 OPH      0.132500
     18 HD2         1.9550   -0.4430   -0.9650 ha        1 OPH      0.132500
     19 HE1        -1.4660    0.6620   -4.4240 ha        1 OPH      0.133000
     20 HE2         2.3500   -1.0560   -3.3470 ha        1 OPH      0.133000
     21 HZ          0.6420   -0.5030   -5.0810 ha        1 OPH      0.132000
     22 HS1         2.5120   -0.1720    4.1770 h1        1 OPH      0.053700
     23 HS2         1.2390    1.1600    4.3180 h1        1 OPH      0.053700
     24 HS3         0.8180   -0.5520    4.8100 h1        1 OPH      0.053700
     25 HO         -2.4070   -0.1410    1.1890 ho        1 OPH      0.417000
@<TRIPOS>BOND
     1    1    2 1   
     2    1    9 1   
     3    1   11 1   
     4    1   14 1   
     5    2    3 1   
     6    2   15 1   
     7    2   16 1   
     8    3    4 ar  
     9    3    5 ar  
    10    4    6 ar  
    11    4   17 1   
    12    5    7 ar  
    13    5   18 1   
    14    6    8 ar  
    15    6   19 1   
    16    7    8 ar  
    17    7   20 1   
    18    8   21 1   
    19    9   12 1   
    20    9   13 2   
    21   10   12 1   
    22   10   22 1   
    23   10   23 1   
    24   10   24 1   
    25   11   25 1   
@<TRIPOS>SUBSTRUCTURE
     1 OPH         1 TEMP              0 ****  ****    0 ROOT
