@<TRIPOS>MOLECULE
OPI
   56    55     1     0     0
SMALL
bcc


@<TRIPOS>ATOM
      1 OP1         3.4980   -1.6760    0.2660 oh        1 OPI     -0.645800
      2 CP2         2.9560   -0.4940    0.8250 c3        1 OPI      0.109400
      3 CP3         2.3340   -0.9000    2.1690 c3        1 OPI      0.105800
      4 NP4         3.3170   -1.6440    3.0290 ny        1 OPI     -0.668800
      5 CP5         2.6540   -2.2970    4.2040 c         1 OPI      0.545100
      6 OP5         2.6180   -1.6530    5.2450 o         1 OPI     -0.432100
      7 CP6         2.1330   -3.6920    4.0120 c3        1 OPI     -0.193400
      8 CP7         1.1230   -4.0770    5.0880 c3        1 OPI      0.118800
      9 NP8         1.6980   -4.1580    6.4550 ny        1 OPI     -0.691800
     10 CP9         0.9310   -5.0590    7.4040 c         1 OPI      0.555100
     11 OP9        -0.1480   -5.4820    7.0330 o         1 OPI     -0.393100
     12 CPA         1.6290   -5.3420    8.7350 c3        1 OPI      0.092100
     13 OPA         2.2620   -4.1360    9.1230 oh        1 OPI     -0.625800
     14 CPB         2.6270   -6.5210    8.6130 c3        1 OPI     -0.103000
     15 CPD         2.1000   -7.5310    7.6080 c3        1 OPI     -0.108600
     16 CPE         2.7000   -7.1880    9.9850 c3        1 OPI     -0.108600
     17 CPC         4.0320   -6.0180    8.2360 c3        1 OPI      0.128400
     18 OA6         4.6850   -6.8920    7.3120 os        1 OPI     -0.394900
     19 CT1         4.7010   -6.6000    5.9850 c         1 OPI      0.694100
     20 OT1         4.0560   -5.6070    5.5950 o         1 OPI     -0.698000
     21 CT2         5.5270   -7.5660    5.1560 c3        1 OPI     -0.082000
     22 CT3         6.9640   -7.5400    5.6600 c3        1 OPI     -0.096433
     23 CT4         5.4750   -7.1390    3.6980 c3        1 OPI     -0.096433
     24 CT5         4.9420   -8.9640    5.3150 c3        1 OPI     -0.096433
     25 HP1         3.6520   -1.5210   -0.6780 ho        1 OPI      0.471000
     26 HP21        3.7690    0.2700    0.9640 h1        1 OPI      0.090200
     27 HP22        2.1400   -0.0630    0.1820 h1        1 OPI      0.090200
     28 HP31        1.9920    0.0190    2.7240 hx        1 OPI      0.117700
     29 HP32        1.4580   -1.5830    1.9810 hx        1 OPI      0.117700
     30 HP4         3.7800   -2.3560    2.4390 hn        1 OPI      0.484300
     31 HP61        3.0150   -4.4080    4.0190 hc        1 OPI      0.152700
     32 HP62        1.6210   -3.8010    3.0130 hc        1 OPI      0.152700
     33 HP71        0.2620   -3.3470    5.1120 hx        1 OPI      0.133200
     34 HP72        0.7050   -5.0970    4.8200 hx        1 OPI      0.133200
     35 HP8         2.6680   -4.5300    6.4180 hn        1 OPI      0.488800
     36 HPA         0.8030   -5.6180    9.4600 h1        1 OPI      0.129700
     37 HPA0        2.4100   -4.1770   10.0800 ho        1 OPI      0.473000
     38 HPD1        2.1440   -7.1150    6.5710 hc        1 OPI      0.064533
     39 HPD2        1.0470   -7.8170    7.8480 hc        1 OPI      0.064533
     40 HPD3        2.7320   -8.4550    7.6350 hc        1 OPI      0.064533
     41 HPE1        2.9870   -6.4430   10.7670 hc        1 OPI      0.064533
     42 HPE2        3.4680   -8.0010    9.9670 hc        1 OPI      0.064533
     43 HPE3        1.7160   -7.6410   10.2570 hc        1 OPI      0.064533
     44 HPC1        4.0160   -4.9680    7.8470 h1        1 OPI      0.079700
     45 HPC2        4.7120   -6.0580    9.1360 h1        1 OPI      0.079700
     46 HT31        7.0030   -7.8340    6.7380 hc        1 OPI      0.059144
     47 HT32        7.4040   -6.5220    5.5430 hc        1 OPI      0.059144
     48 HT33        7.5760   -8.2640    5.0690 hc        1 OPI      0.059144
     49 HT41        6.0720   -7.8550    3.0820 hc        1 OPI      0.059144
     50 HT42        5.9040   -6.1160    3.5760 hc        1 OPI      0.059144
     51 HT43        4.4220   -7.1370    3.3280 hc        1 OPI      0.059144
     52 HT51        5.5570   -9.6910    4.7300 hc        1 OPI      0.059144
     53 HT52        4.9530   -9.2690    6.3900 hc        1 OPI      0.059144
     54 HT53        3.8930   -8.9980    4.9370 hc        1 OPI      0.059144
     55 HP42        4.0330   -0.9800    3.3600 hn        1 OPI      0.484300
     56 HP82        1.7450   -3.2200    6.8830 hn        1 OPI      0.488800
@<TRIPOS>BOND
     1    1    2 1   
     2    1   25 1   
     3    2    3 1   
     4    2   26 1   
     5    2   27 1   
     6    3    4 1   
     7    3   28 1   
     8    3   29 1   
     9    4    5 1   
    10    4   30 1   
    11    4   55 1   
    12    5    6 2   
    13    5    7 1   
    14    7    8 1   
    15    7   31 1   
    16    7   32 1   
    17    8    9 1   
    18    8   33 1   
    19    8   34 1   
    20    9   10 1   
    21    9   35 1   
    22    9   56 1   
    23   10   11 2   
    24   10   12 1   
    25   12   13 1   
    26   12   14 1   
    27   12   36 1   
    28   13   37 1   
    29   14   15 1   
    30   14   16 1   
    31   14   17 1   
    32   15   38 1   
    33   15   39 1   
    34   15   40 1   
    35   16   41 1   
    36   16   42 1   
    37   16   43 1   
    38   17   18 1   
    39   17   44 1   
    40   17   45 1   
    41   18   19 1   
    42   19   20 2   
    43   19   21 1   
    44   21   22 1   
    45   21   23 1   
    46   21   24 1   
    47   22   46 1   
    48   22   47 1   
    49   22   48 1   
    50   23   49 1   
    51   23   50 1   
    52   23   51 1   
    53   24   52 1   
    54   24   53 1   
    55   24   54 1   
@<TRIPOS>SUBSTRUCTURE
     1 OPI         1 TEMP              0 ****  ****    0 ROOT
