@<TRIPOS>MOLECULE
OPI
   54    53     1     0     0
SMALL
bcc


@<TRIPOS>ATOM
      1 OP1         7.7670    0.3510    1.2120 oh        1 OPI     -0.611800
      2 CP2         7.3590    1.4940    0.4780 c3        1 OPI      0.098400
      3 CP3         6.4090    1.0150   -0.6300 c3        1 OPI      0.085000
      4 NP4         5.2180    0.3660   -0.1630 n         1 OPI     -0.554900
      5 CP5         3.9980    1.0160   -0.1070 c         1 OPI      0.654100
      6 OP5         3.8390    2.1480   -0.6020 o         1 OPI     -0.601100
      7 CP6         2.8410    0.2860    0.5500 c3        1 OPI     -0.184400
      8 CP7         2.5500   -1.0420   -0.1540 c3        1 OPI      0.087000
      9 NP8         1.3770   -1.7120    0.3370 n         1 OPI     -0.557900
     10 CP9         0.2420   -1.8760   -0.4280 c         1 OPI      0.625100
     11 OP9         0.2090   -1.5900   -1.6420 o         1 OPI     -0.603100
     12 CPA        -0.9920   -2.5120    0.2340 c3        1 OPI      0.084100
     13 OPA        -1.6280   -3.3560   -0.7020 oh        1 OPI     -0.582800
     14 CPB        -1.9550   -1.4410    0.7910 c3        1 OPI     -0.078000
     15 CPD        -1.2130   -0.4930    1.7160 c3        1 OPI     -0.090100
     16 CPE        -3.0560   -2.1520    1.5660 c3        1 OPI     -0.090100
     17 CPC        -2.5750   -0.6660   -0.3780 c3        1 OPI      0.131400
     18 OA6        -3.3180    0.4260    0.1860 os        1 OPI     -0.441900
     19 CT1        -4.1660    1.0940   -0.6580 c         1 OPI      0.634100
     20 OT1        -4.2380    0.7170   -1.8280 o         1 OPI     -0.533000
     21 CT2        -4.9100    2.2260    0.0220 c3        1 OPI     -0.088000
     22 CT3        -5.7340    2.9670   -1.0200 c3        1 OPI     -0.089433
     23 CT4        -3.9060    3.1730    0.6610 c3        1 OPI     -0.089433
     24 CT5        -5.8230    1.6360    1.0870 c3        1 OPI     -0.089433
     25 HP1         8.4030    0.6540    1.8690 ho        1 OPI      0.405000
     26 HP21        8.2490    1.9880    0.0030 h1        1 OPI      0.034200
     27 HP22        6.8520    2.2270    1.1600 h1        1 OPI      0.034200
     28 HP31        6.9680    0.2780   -1.2760 h1        1 OPI      0.074200
     29 HP32        6.1250    1.9110   -1.2530 h1        1 OPI      0.074200
     30 HP4         5.3570   -0.4350    0.4080 hn        1 OPI      0.314500
     31 HP61        1.9460    0.9610    0.4940 hc        1 OPI      0.072700
     32 HP62        3.0790    0.1160    1.6320 hc        1 OPI      0.072700
     33 HP71        3.4260   -1.7380   -0.0090 h1        1 OPI      0.073700
     34 HP72        2.4280   -0.8550   -1.2610 h1        1 OPI      0.073700
     35 HP8         1.3040   -1.8330    1.3200 hn        1 OPI      0.307500
     36 HPA        -0.6950   -3.2050    1.0730 h1        1 OPI      0.088700
     37 HPA0       -1.7020   -2.8720   -1.5390 ho        1 OPI      0.429000
     38 HPD1       -1.9460    0.1810    2.2230 hc        1 OPI      0.044367
     39 HPD2       -0.6520   -1.0640    2.4940 hc        1 OPI      0.044367
     40 HPD3       -0.5000    0.1450    1.1400 hc        1 OPI      0.044367
     41 HPE1       -3.5120   -2.9510    0.9330 hc        1 OPI      0.044367
     42 HPE2       -2.6410   -2.6180    2.4910 hc        1 OPI      0.044367
     43 HPE3       -3.8470   -1.4170    1.8540 hc        1 OPI      0.044367
     44 HPC1       -3.2680   -1.3240   -0.9680 h1        1 OPI      0.068200
     45 HPC2       -1.7840   -0.2480   -1.0550 h1        1 OPI      0.068200
     46 HT31       -5.0680    3.4010   -1.8030 hc        1 OPI      0.047589
     47 HT32       -6.4500    2.2680   -1.5160 hc        1 OPI      0.047589
     48 HT33       -6.3070    3.7900   -0.5300 hc        1 OPI      0.047589
     49 HT41       -4.4460    4.0030    1.1760 hc        1 OPI      0.047589
     50 HT42       -3.2830    2.6250    1.4100 hc        1 OPI      0.047589
     51 HT43       -3.2330    3.6100   -0.1150 hc        1 OPI      0.047589
     52 HT51       -6.5880    0.9710    0.6200 hc        1 OPI      0.047589
     53 HT52       -5.2250    1.0400    1.8190 hc        1 OPI      0.047589
     54 HT53       -6.3470    2.4580    1.6300 hc        1 OPI      0.047589
@<TRIPOS>BOND
     1    1    2 1   
     2    1   25 1   
     3    2    3 1   
     4    2   26 1   
     5    2   27 1   
     6    3    4 1   
     7    3   28 1   
     8    3   29 1   
     9    4    5 1   
    10    4   30 1   
    11    5    6 2   
    12    5    7 1   
    13    7    8 1   
    14    7   31 1   
    15    7   32 1   
    16    8    9 1   
    17    8   33 1   
    18    8   34 1   
    19    9   10 1   
    20    9   35 1   
    21   10   11 2   
    22   10   12 1   
    23   12   13 1   
    24   12   14 1   
    25   12   36 1   
    26   13   37 1   
    27   14   15 1   
    28   14   16 1   
    29   14   17 1   
    30   15   38 1   
    31   15   39 1   
    32   15   40 1   
    33   16   41 1   
    34   16   42 1   
    35   16   43 1   
    36   17   18 1   
    37   17   44 1   
    38   17   45 1   
    39   18   19 1   
    40   19   20 2   
    41   19   21 1   
    42   21   22 1   
    43   21   23 1   
    44   21   24 1   
    45   22   46 1   
    46   22   47 1   
    47   22   48 1   
    48   23   49 1   
    49   23   50 1   
    50   23   51 1   
    51   24   52 1   
    52   24   53 1   
    53   24   54 1   
@<TRIPOS>SUBSTRUCTURE
     1 OPI         1 TEMP              0 ****  ****    0 ROOT
