@<TRIPOS>MOLECULE
OPI
   54    53     1     0     0
SMALL
bcc


@<TRIPOS>ATOM
      1 OP1        -5.6900   -4.3170   -7.8930 oh        1 OPI     -0.598800
      2 CP2        -5.1060   -4.3320   -6.5980 c3        1 OPI      0.104400
      3 CP3        -4.8880   -2.9100   -6.1250 c3        1 OPI      0.085000
      4 NP4        -4.2710   -2.9260   -4.8290 n         1 OPI     -0.571900
      5 CP5        -3.4880   -1.8050   -4.3910 c         1 OPI      0.659100
      6 OP5        -3.0300   -1.0310   -5.2040 o         1 OPI     -0.605100
      7 CP6        -3.1910   -1.6140   -2.9010 c3        1 OPI     -0.188400
      8 CP7        -1.7590   -1.1070   -2.7260 c3        1 OPI      0.088000
      9 NP8        -1.6160   -0.5050   -1.4160 n         1 OPI     -0.542900
     10 CP9        -0.2990   -0.3570   -0.8250 c         1 OPI      0.664100
     11 OP9         0.5340   -1.2360   -0.9670 o         1 OPI     -0.611100
     12 CPA         0.0650    0.9270   -0.0770 c3        1 OPI      0.074100
     13 OPA         0.7160    1.7990   -0.9430 oh        1 OPI     -0.606800
     14 CPB         0.9850    0.5910    1.0970 c3        1 OPI     -0.074000
     15 CPD         0.2440   -0.2630    2.0860 c3        1 OPI     -0.091600
     16 CPE         2.1980   -0.1610    0.5880 c3        1 OPI     -0.091600
     17 CPC         1.4420    1.9010    1.7880 c3        1 OPI      0.134400
     18 OA6         2.2100    1.5800    2.9750 os        1 OPI     -0.429900
     19 CT1         2.8350    2.7210    3.5900 c         1 OPI      0.635100
     20 OT1         2.7110    3.8260    3.0900 o         1 OPI     -0.545000
     21 CT2         3.6980    2.5400    4.8810 c3        1 OPI     -0.086000
     22 CT3         4.3950    1.1830    4.8420 c3        1 OPI     -0.089767
     23 CT4         4.7510    3.6510    4.9520 c3        1 OPI     -0.089767
     24 CT5         2.7960    2.6140    6.1120 c3        1 OPI     -0.089767
     25 HP1        -5.7280   -5.1490   -8.2110 ho        1 OPI      0.404000
     26 HP21       -5.7010   -4.7920   -5.9780 h1        1 OPI      0.026700
     27 HP22       -4.2450   -4.7990   -6.6330 h1        1 OPI      0.026700
     28 HP31       -4.3090   -2.4420   -6.7560 h1        1 OPI      0.075700
     29 HP32       -5.7440   -2.4530   -6.0700 h1        1 OPI      0.075700
     30 HP4        -4.3890   -3.6450   -4.2760 hn        1 OPI      0.314500
     31 HP61       -3.2940   -2.4720   -2.4350 hc        1 OPI      0.077700
     32 HP62       -3.8200   -0.9600   -2.5230 hc        1 OPI      0.077700
     33 HP71       -1.1350   -1.8560   -2.8100 h1        1 OPI      0.068200
     34 HP72       -1.5630   -0.4380   -3.4170 h1        1 OPI      0.068200
     35 HP8        -2.3480   -0.1810   -0.9810 hn        1 OPI      0.324500
     36 HPA        -0.7510    1.3510    0.2590 h1        1 OPI      0.072700
     37 HPA0        0.1190    2.3070   -1.3540 ho        1 OPI      0.419000
     38 HPD1       -0.4580    0.2670    2.5120 hc        1 OPI      0.049033
     39 HPD2        0.8660   -0.5880    2.7670 hc        1 OPI      0.049033
     40 HPD3       -0.1600   -1.0280    1.6200 hc        1 OPI      0.049033
     41 HPE1        2.9730    0.0440    1.1560 hc        1 OPI      0.049033
     42 HPE2        2.3870    0.1120   -0.3340 hc        1 OPI      0.049033
     43 HPE3        2.0190   -1.1270    0.6130 hc        1 OPI      0.049033
     44 HPC1        1.9990    2.4190    1.1690 h1        1 OPI      0.051700
     45 HPC2        0.6590    2.4270    2.0390 h1        1 OPI      0.051700
     46 HT31        3.7290    0.4780    4.7180 hc        1 OPI      0.048589
     47 HT32        5.0330    1.1640    4.0970 hc        1 OPI      0.048589
     48 HT33        4.8760    1.0350    5.6920 hc        1 OPI      0.048589
     49 HT41        4.3060    4.5250    4.9310 hc        1 OPI      0.048589
     50 HT42        5.3590    3.5750    4.1860 hc        1 OPI      0.048589
     51 HT43        5.2630    3.5650    5.7860 hc        1 OPI      0.048589
     52 HT51        2.3680    3.4940    6.1500 hc        1 OPI      0.048589
     53 HT52        2.1110    1.9210    6.0560 hc        1 OPI      0.048589
     54 HT53        3.3360    2.4770    6.9220 hc        1 OPI      0.048589
@<TRIPOS>BOND
     1    1    2 1   
     2    1   25 1   
     3    2    3 1   
     4    2   26 1   
     5    2   27 1   
     6    3    4 1   
     7    3   28 1   
     8    3   29 1   
     9    4    5 1   
    10    4   30 1   
    11    5    6 2   
    12    5    7 1   
    13    7    8 1   
    14    7   31 1   
    15    7   32 1   
    16    8    9 1   
    17    8   33 1   
    18    8   34 1   
    19    9   10 1   
    20    9   35 1   
    21   10   11 2   
    22   10   12 1   
    23   12   13 1   
    24   12   14 1   
    25   12   36 1   
    26   13   37 1   
    27   14   15 1   
    28   14   16 1   
    29   14   17 1   
    30   15   38 1   
    31   15   39 1   
    32   15   40 1   
    33   16   41 1   
    34   16   42 1   
    35   16   43 1   
    36   17   18 1   
    37   17   44 1   
    38   17   45 1   
    39   18   19 1   
    40   19   20 2   
    41   19   21 1   
    42   21   22 1   
    43   21   23 1   
    44   21   24 1   
    45   22   46 1   
    46   22   47 1   
    47   22   48 1   
    48   23   49 1   
    49   23   50 1   
    50   23   51 1   
    51   24   52 1   
    52   24   53 1   
    53   24   54 1   
@<TRIPOS>SUBSTRUCTURE
     1 OPI         1 TEMP              0 ****  ****    0 ROOT
