@<TRIPOS>MOLECULE
OPI
   56    55     1     0     0
SMALL
bcc


@<TRIPOS>ATOM
      1 OP1         3.4430   -1.8240    0.1690 oh        1 OPI     -0.645800
      2 CP2         2.8970   -0.6300    0.6990 c3        1 OPI      0.109400
      3 CP3         2.2850   -1.0040    2.0570 c3        1 OPI      0.105800
      4 NP4         3.2770   -1.7180    2.9310 n4        1 OPI     -0.668800
      5 CP5         2.6250   -2.3420    4.1280 c         1 OPI      0.545100
      6 OP5         2.5910   -1.6680    5.1510 o         1 OPI     -0.432100
      7 CP6         2.1130   -3.7450    3.9790 c3        1 OPI     -0.193400
      8 CP7         1.1110   -4.1060    5.0720 c3        1 OPI      0.118800
      9 NP8         1.6960   -4.1440    6.4370 n4        1 OPI     -0.691800
     10 CP9         0.9420   -5.0230    7.4160 c         1 OPI      0.555100
     11 OP9        -0.1360   -5.4650    7.0640 o         1 OPI     -0.393100
     12 CPA         1.6510   -5.2630    8.7500 c3        1 OPI      0.092100
     13 OPA         2.2760   -4.0420    9.0990 oh        1 OPI     -0.625800
     14 CPB         2.6560   -6.4380    8.6550 c3        1 OPI     -0.103000
     15 CPD         2.1310   -7.4810    7.6830 c3        1 OPI     -0.108600
     16 CPE         2.7430   -7.0640   10.0460 c3        1 OPI     -0.108600
     17 CPC         4.0550   -5.9360    8.2550 c3        1 OPI      0.128400
     18 OA6         4.7080   -6.8310    7.3530 os        1 OPI     -0.395900
     19 CT1         4.7130   -6.5780    6.0180 c         1 OPI      0.694100
     20 OT1         4.0590   -5.6010    5.6040 o         1 OPI     -0.698000
     21 CT2         5.5400   -7.5620    5.2110 c3        1 OPI     -0.082000
     22 CT3         6.9810   -7.5080    5.7020 c3        1 OPI     -0.096433
     23 CT4         5.4720   -7.1810    3.7410 c3        1 OPI     -0.096433
     24 CT5         4.9700   -8.9600    5.4190 c3        1 OPI     -0.096433
     25 HP1         3.5910   -1.6920   -0.7790 ho        1 OPI      0.471000
     26 HP21        3.7050    0.1430    0.8130 h1        1 OPI      0.090200
     27 HP22        2.0740   -0.2220    0.0500 h1        1 OPI      0.090200
     28 HP31        1.4120   -1.6970    1.8930 hx        1 OPI      0.117700
     29 HP32        1.9400   -0.0720    2.5900 hx        1 OPI      0.117700
     30 HP4         3.7400   -2.4430    2.3590 hn        1 OPI      0.484300
     31 HP61        1.5950   -3.8860    2.9870 hc        1 OPI      0.152700
     32 HP62        2.9990   -4.4540    4.0010 hc        1 OPI      0.152700
     33 HP71        0.2460   -3.3810    5.0810 hx        1 OPI      0.133200
     34 HP72        0.6990   -5.1350    4.8350 hx        1 OPI      0.133200
     35 HP8         2.6680   -4.5100    6.4040 hn        1 OPI      0.488800
     36 HPA         0.8310   -5.5240    9.4880 h1        1 OPI      0.129700
     37 HPA0        2.4310   -4.0540   10.0560 ho        1 OPI      0.473000
     38 HPD1        2.1650   -7.0940    6.6340 hc        1 OPI      0.064533
     39 HPD2        2.7700   -8.3990    7.7330 hc        1 OPI      0.064533
     40 HPD3        1.0810   -7.7670    7.9380 hc        1 OPI      0.064533
     41 HPE1        1.7640   -7.5160   10.3360 hc        1 OPI      0.064533
     42 HPE2        3.0290   -6.2950   10.8040 hc        1 OPI      0.064533
     43 HPE3        3.5170   -7.8720   10.0460 hc        1 OPI      0.064533
     44 HPC1        4.7410   -5.9440    9.1510 h1        1 OPI      0.079700
     45 HPC2        4.0290   -4.8970    7.8360 h1        1 OPI      0.079700
     46 HT31        7.4120   -6.4900    5.5490 hc        1 OPI      0.059144
     47 HT32        7.0320   -7.7670    6.7870 hc        1 OPI      0.059144
     48 HT33        7.5950   -8.2450    5.1280 hc        1 OPI      0.059144
     49 HT41        4.4170   -7.2000    3.3800 hc        1 OPI      0.059144
     50 HT42        5.8890   -6.1580    3.5840 hc        1 OPI      0.059144
     51 HT43        6.0710   -7.9100    3.1420 hc        1 OPI      0.059144
     52 HT51        5.5850   -9.6990    4.8500 hc        1 OPI      0.059144
     53 HT52        3.9170   -9.0140    5.0520 hc        1 OPI      0.059144
     54 HT53        4.9940   -9.2310    6.5020 hc        1 OPI      0.059144
     55 HP42        3.9910   -1.0410    3.2390 hn        1 OPI      0.484300
     56 HP82        1.7390   -3.1940    6.8380 hn        1 OPI      0.488800
@<TRIPOS>BOND
     1    1    2 1   
     2    1   25 1   
     3    2    3 1   
     4    2   26 1   
     5    2   27 1   
     6    3    4 1   
     7    3   28 1   
     8    3   29 1   
     9    4    5 1   
    10    4   30 1   
    11    4   55 1   
    12    5    6 2   
    13    5    7 1   
    14    7    8 1   
    15    7   31 1   
    16    7   32 1   
    17    8    9 1   
    18    8   33 1   
    19    8   34 1   
    20    9   10 1   
    21    9   35 1   
    22    9   56 1   
    23   10   11 2   
    24   10   12 1   
    25   12   13 1   
    26   12   14 1   
    27   12   36 1   
    28   13   37 1   
    29   14   15 1   
    30   14   16 1   
    31   14   17 1   
    32   15   38 1   
    33   15   39 1   
    34   15   40 1   
    35   16   41 1   
    36   16   42 1   
    37   16   43 1   
    38   17   18 1   
    39   17   44 1   
    40   17   45 1   
    41   18   19 1   
    42   19   20 2   
    43   19   21 1   
    44   21   22 1   
    45   21   23 1   
    46   21   24 1   
    47   22   46 1   
    48   22   47 1   
    49   22   48 1   
    50   23   49 1   
    51   23   50 1   
    52   23   51 1   
    53   24   52 1   
    54   24   53 1   
    55   24   54 1   
@<TRIPOS>SUBSTRUCTURE
     1 OPI         1 TEMP              0 ****  ****    0 ROOT
