@<TRIPOS>MOLECULE
OPI
   56    55     1     0     0
SMALL
bcc


@<TRIPOS>ATOM
      1 OP1         3.7660   -1.0340    0.3580 oh        1 OPI     -0.645800
      2 CP2         2.4810   -0.4460    0.2710 c3        1 OPI      0.109400
      3 CP3         1.7100   -0.9140    1.5140 c3        1 OPI      0.105800
      4 NP4         2.4750   -0.6310    2.7760 n4        1 OPI     -0.671800
      5 CP5         1.8520   -1.3030    3.9670 c         1 OPI      0.541100
      6 OP5         0.8970   -0.7390    4.4780 o         1 OPI     -0.379100
      7 CP6         2.4820   -2.5940    4.4140 c3        1 OPI     -0.180400
      8 CP7         1.6620   -3.1680    5.5740 c3        1 OPI      0.106800
      9 NP8         2.2540   -4.3970    6.1540 n4        1 OPI     -0.672800
     10 CP9         1.3230   -5.0630    7.1590 c         1 OPI      0.566100
     11 OP9         0.2140   -5.3520    6.7510 o         1 OPI     -0.394100
     12 CPA         1.8880   -5.3000    8.5580 c3        1 OPI      0.094100
     13 OPA         2.6590   -4.1540    8.8750 oh        1 OPI     -0.629800
     14 CPB         2.6940   -6.6200    8.6450 c3        1 OPI     -0.104000
     15 CPD         2.0880   -7.6480    7.7050 c3        1 OPI     -0.108100
     16 CPE         2.5590   -7.1290   10.0790 c3        1 OPI     -0.108100
     17 CPC         4.1850   -6.3790    8.3490 c3        1 OPI      0.127400
     18 OA6         4.7410   -7.3730    7.4870 os        1 OPI     -0.399900
     19 CT1         4.8450   -7.1200    6.1520 c         1 OPI      0.691100
     20 OT1         4.3290   -6.0690    5.7320 o         1 OPI     -0.689000
     21 CT2         5.5880   -8.1900    5.3770 c3        1 OPI     -0.081000
     22 CT3         7.0150   -8.2690    5.9050 c3        1 OPI     -0.096433
     23 CT4         5.5960   -7.8190    3.9020 c3        1 OPI     -0.096433
     24 CT5         4.8820   -9.5240    5.5810 c3        1 OPI     -0.096433
     25 HP1         4.1870   -0.9630   -0.5110 ho        1 OPI      0.469000
     26 HP21        2.5730    0.6740    0.2440 h1        1 OPI      0.089700
     27 HP22        1.9200   -0.8000   -0.6370 h1        1 OPI      0.089700
     28 HP31        0.7160   -0.3850    1.5710 hx        1 OPI      0.119200
     29 HP32        1.5490   -2.0270    1.4560 hx        1 OPI      0.119200
     30 HP4         3.4460   -0.9540    2.6390 hn        1 OPI      0.482300
     31 HP61        3.5440   -2.3940    4.7350 hc        1 OPI      0.123700
     32 HP62        2.5140   -3.3200    3.5520 hc        1 OPI      0.123700
     33 HP71        1.5740   -2.3980    6.3990 hx        1 OPI      0.133200
     34 HP72        0.6170   -3.4160    5.2170 hx        1 OPI      0.133200
     35 HP8         2.4680   -5.0840    5.4100 hn        1 OPI      0.486300
     36 HPA         0.9840   -5.3630    9.2390 h1        1 OPI      0.127700
     37 HPA0        2.9310   -4.2370    9.8020 ho        1 OPI      0.472000
     38 HPD1        2.2540   -7.3540    6.6390 hc        1 OPI      0.064867
     39 HPD2        0.9920   -7.7580    7.8920 hc        1 OPI      0.064867
     40 HPD3        2.5780   -8.6410    7.8670 hc        1 OPI      0.064867
     41 HPE1        2.9150   -6.3590   10.8050 hc        1 OPI      0.064867
     42 HPE2        3.1750   -8.0540   10.2080 hc        1 OPI      0.064867
     43 HPE3        1.4960   -7.3830   10.3090 hc        1 OPI      0.064867
     44 HPC1        4.3640   -5.3550    7.9280 h1        1 OPI      0.078200
     45 HPC2        4.7940   -6.5010    9.2910 h1        1 OPI      0.078200
     46 HT31        7.0130   -8.5140    6.9950 hc        1 OPI      0.058700
     47 HT32        7.5470   -7.3000    5.7500 hc        1 OPI      0.058700
     48 HT33        7.5680   -9.0710    5.3570 hc        1 OPI      0.058700
     49 HT41        6.1560   -8.5970    3.3280 hc        1 OPI      0.058700
     50 HT42        6.0930   -6.8320    3.7510 hc        1 OPI      0.058700
     51 HT43        4.5530   -7.7620    3.5080 hc        1 OPI      0.058700
     52 HT51        5.4350  -10.3240    5.0300 hc        1 OPI      0.058700
     53 HT52        4.8550   -9.7880    6.6660 hc        1 OPI      0.058700
     54 HT53        3.8370   -9.4790    5.1900 hc        1 OPI      0.058700
     55 HP42        2.4910    0.3890    2.9280 hn        1 OPI      0.482300
     56 HP82        3.1480   -4.1860    6.6280 hn        1 OPI      0.486300
@<TRIPOS>BOND
     1    1    2 1   
     2    1   25 1   
     3    2    3 1   
     4    2   26 1   
     5    2   27 1   
     6    3    4 1   
     7    3   28 1   
     8    3   29 1   
     9    4    5 1   
    10    4   30 1   
    11    4   55 1   
    12    5    6 2   
    13    5    7 1   
    14    7    8 1   
    15    7   31 1   
    16    7   32 1   
    17    8    9 1   
    18    8   33 1   
    19    8   34 1   
    20    9   10 1   
    21    9   35 1   
    22    9   56 1   
    23   10   11 2   
    24   10   12 1   
    25   12   13 1   
    26   12   14 1   
    27   12   36 1   
    28   13   37 1   
    29   14   15 1   
    30   14   16 1   
    31   14   17 1   
    32   15   38 1   
    33   15   39 1   
    34   15   40 1   
    35   16   41 1   
    36   16   42 1   
    37   16   43 1   
    38   17   18 1   
    39   17   44 1   
    40   17   45 1   
    41   18   19 1   
    42   19   20 2   
    43   19   21 1   
    44   21   22 1   
    45   21   23 1   
    46   21   24 1   
    47   22   46 1   
    48   22   47 1   
    49   22   48 1   
    50   23   49 1   
    51   23   50 1   
    52   23   51 1   
    53   24   52 1   
    54   24   53 1   
    55   24   54 1   
@<TRIPOS>SUBSTRUCTURE
     1 OPI         1 TEMP              0 ****  ****    0 ROOT
