@<TRIPOS>MOLECULE
OPL
   19    18     1     0     0
SMALL
bcc


@<TRIPOS>ATOM
      1 C1         -1.6190   -0.1710   -0.1830 c3        1 OPL      0.333900
      2 O1         -2.6580    0.7280    0.1380 oh        1 OPL     -0.631300
      3 C2         -0.3010    0.4100    0.3490 c3        1 OPL     -0.108700
      4 O2         -1.9840   -1.3800    0.4410 oh        1 OPL     -0.631300
      5 C3          0.8350   -0.5590   -0.0070 c3        1 OPL      0.023100
      6 C4          2.0490   -0.2460    0.8410 c         1 OPL      0.538900
      7 O4          1.1350   -0.5400   -1.3880 oh        1 OPL     -0.580800
      8 C5         -0.0630    1.7890   -0.2220 c3        1 OPL     -0.097100
      9 H2         -0.3730    0.4780    1.4700 hc        1 OPL      0.062700
     10 H3          0.4970   -1.6200    0.1890 h1        1 OPL      0.108700
     11 H4          1.9700   -0.5330    1.9120 h4        1 OPL      0.008200
     12 HO4         1.6680    0.2500   -1.5600 ho        1 OPL      0.417000
     13 H5         -0.8660    2.4860    0.1230 hc        1 OPL      0.050033
     14 H5A         0.9300    2.1760    0.1110 hc        1 OPL      0.050033
     15 H5B        -0.0790    1.7580   -1.3380 hc        1 OPL      0.050033
     16 H8         -3.4640    0.3940   -0.2750 ho        1 OPL      0.415000
     17 H9         -1.5520   -0.4000   -1.2830 h2        1 OPL      0.092700
     18 H10        -2.0940   -1.2100    1.3850 ho        1 OPL      0.415000
     19 O3          3.0520    0.2920    0.3730 o         1 OPL     -0.516100
@<TRIPOS>BOND
     1    1    2 1   
     2    1    3 1   
     3    1    4 1   
     4    1   17 1   
     5    2   16 1   
     6    3    5 1   
     7    3    8 1   
     8    3    9 1   
     9    4   18 1   
    10    5    6 1   
    11    5    7 1   
    12    5   10 1   
    13    6   11 1   
    14    6   19 2   
    15    7   12 1   
    16    8   13 1   
    17    8   14 1   
    18    8   15 1   
@<TRIPOS>SUBSTRUCTURE
     1 OPL         1 TEMP              0 ****  ****    0 ROOT
