@<TRIPOS>MOLECULE
OPL
   19    16     1     0     0
SMALL
bcc


@<TRIPOS>ATOM
      1 C1          0.0690    0.5600    0.0820 c1        1 OPL     -0.033000
      2 O1         -1.1710   -0.7730   -2.1910 oh        1 OPL     -0.406000
      3 C2          1.4890    0.0970    0.1720 c3        1 OPL     -0.223000
      4 O2         -0.2740    1.4060    1.0320 oh        1 OPL     -0.214000
      5 C3          2.0400   -0.0380    1.5910 c3        1 OPL     -0.032000
      6 C4          5.5610   -0.5350    1.9760 c1        1 OPL      0.189000
      7 O4          1.4160   -1.0690    2.3300 oh        1 OPL     -0.323000
      8 C5          1.6270   -1.1950   -0.6070 c3        1 OPL     -0.200000
      9 H2          3.1510   -0.2100    1.5490 h1        1 OPL      0.098000
     10 H3          2.1010    0.8950   -0.3470 hc        1 OPL      0.126000
     11 H4          1.8220    0.8950    2.1790 h1        1 OPL      0.098000
     12 HO4         1.6360   -1.9040    1.9000 ho        1 OPL      0.198000
     13 H5          0.9830   -1.9940   -0.1630 hc        1 OPL      0.085000
     14 H5A         2.6880   -1.5390   -0.5930 hc        1 OPL      0.085000
     15 H5B         1.3030   -1.0430   -1.6660 hc        1 OPL      0.085000
     16 H8         -0.9040    0.1430   -2.0610 ho        1 OPL      0.199500
     17 H9         -1.0060   -1.1630   -1.3260 ho        1 OPL      0.199500
     18 H10        -1.2050    1.6540    0.8810 ho        1 OPL      0.255000
     19 O3          6.5410   -0.6030    2.6130 o         1 OPL     -0.188000
@<TRIPOS>BOND
     1    1    3 1   
     2    1    4 1   
     3    2   16 1   
     4    2   17 1   
     5    3    5 1   
     6    3    8 1   
     7    3   10 1   
     8    4   18 1   
     9    5    7 1   
    10    5    9 1   
    11    5   11 1   
    12    6   19 1   
    13    7   12 1   
    14    8   13 1   
    15    8   14 1   
    16    8   15 1   
@<TRIPOS>SUBSTRUCTURE
     1 OPL         1 TEMP              0 ****  ****    0 ROOT
