@<TRIPOS>MOLECULE
OPL
   19    17     1     0     0
SMALL
bcc


@<TRIPOS>ATOM
      1 C1          0.5560   -0.0600   -0.4320 c1        1 OPL      0.028000
      2 O1         -1.9280    0.3440   -2.0480 oh        1 OPL     -0.409000
      3 C2          1.9780   -0.3320   -0.0590 c3        1 OPL     -0.241000
      4 O2         -0.3390    0.2840    0.4240 oh        1 OPL     -0.163000
      5 C3          2.4490    0.3770    1.2180 c3        1 OPL     -0.059000
      6 C4          3.9470    0.2250    1.3720 c2        1 OPL      0.162000
      7 O4          1.7410   -0.0840    2.3550 oh        1 OPL     -0.334000
      8 C5          2.1710   -1.8340    0.0310 c3        1 OPL     -0.204000
      9 H2          4.5620    0.7780    0.6310 h4        1 OPL      0.111000
     10 H3          2.5990    0.0650   -0.9150 hc        1 OPL      0.137000
     11 H4          2.1950    1.4760    1.1580 h1        1 OPL      0.133000
     12 HO4         2.1870   -0.8790    2.6830 ho        1 OPL      0.231000
     13 H5          1.5380   -2.2600    0.8480 hc        1 OPL      0.092000
     14 H5A         1.8840   -2.3180   -0.9340 hc        1 OPL      0.092000
     15 H5B         3.2400   -2.0670    0.2520 hc        1 OPL      0.092000
     16 H8         -1.0010    0.0880   -2.1260 ho        1 OPL      0.201000
     17 H9         -2.0400    0.4610   -1.1010 ho        1 OPL      0.201000
     18 H10        -0.0730    0.3710    1.3680 ho        1 OPL      0.201000
     19 O3          4.4370   -0.4710    2.2600 o         1 OPL     -0.271000
@<TRIPOS>BOND
     1    1    3 1   
     2    1    4 1   
     3    2   16 1   
     4    2   17 1   
     5    3    5 1   
     6    3    8 1   
     7    3   10 1   
     8    4   18 1   
     9    5    6 1   
    10    5    7 1   
    11    5   11 1   
    12    6    9 1   
    13    6   19 1   
    14    7   12 1   
    15    8   13 1   
    16    8   14 1   
    17    8   15 1   
@<TRIPOS>SUBSTRUCTURE
     1 OPL         1 TEMP              0 ****  ****    0 ROOT
