@<TRIPOS>MOLECULE
OPL
   19    18     1     0     0
SMALL
bcc


@<TRIPOS>ATOM
      1 C1         -1.3720    0.0900   -0.4270 c3        1 OPL      0.333900
      2 O1         -1.8410    0.0210   -1.7540 oh        1 OPL     -0.631300
      3 C2          0.1410    0.0900   -0.4270 c3        1 OPL     -0.108700
      4 O2         -1.8410    1.2730    0.1760 oh        1 OPL     -0.631300
      5 C3          0.6450    0.0900    0.9980 c3        1 OPL      0.023100
      6 O3          2.6790    1.3030    0.9790 o         1 OPL     -0.516100
      7 C4          1.4890    1.3220    1.2340 c         1 OPL      0.538900
      8 O4          1.4240   -1.0620    1.2210 oh        1 OPL     -0.580800
      9 C5          0.6460   -1.1460   -1.1410 c3        1 OPL     -0.097100
     10 H2          0.4670    0.8870   -0.8880 hc        1 OPL      0.062700
     11 H3         -0.1140    0.0930    1.6120 h1        1 OPL      0.108700
     12 H4          1.0870    2.1200    1.6260 h4        1 OPL      0.008200
     13 HO4         1.4600   -1.2300    2.0910 ho        1 OPL      0.417000
     14 H5          0.3680   -1.1180   -2.0760 hc        1 OPL      0.050033
     15 H5A         0.2740   -1.9420   -0.7150 hc        1 OPL      0.050033
     16 H5B         1.6200   -1.1750   -1.0910 hc        1 OPL      0.050033
     17 H8         -2.7100   -0.1650   -1.7510 ho        1 OPL      0.415000
     18 H9         -1.6970   -0.6820    0.0740 h2        1 OPL      0.092700
     19 H10        -2.7240    1.2320    0.2590 ho        1 OPL      0.415000
@<TRIPOS>BOND
     1    1    2 1   
     2    1    3 1   
     3    1    4 1   
     4    1   18 1   
     5    2   17 1   
     6    3    5 1   
     7    3    9 1   
     8    3   10 1   
     9    4   19 1   
    10    5    7 1   
    11    5    8 1   
    12    5   11 1   
    13    6    7 2   
    14    7   12 1   
    15    8   13 1   
    16    9   14 1   
    17    9   15 1   
    18    9   16 1   
@<TRIPOS>SUBSTRUCTURE
     1 OPL         1 TEMP              0 ****  ****    0 ROOT
