@<TRIPOS>MOLECULE
OPM
   39    39     1     0     0
SMALL
bcc


@<TRIPOS>ATOM
      1 C3'         0.4150   -0.1840    4.1320 c3        1 OPM     -0.078400
      2 C4'         0.6400    0.8400    5.2240 c3        1 OPM     -0.079400
      3 C5'         0.2090    0.3140    6.5690 c3        1 OPM     -0.093100
      4 C1'         0.6170   -0.6880    1.7050 c3        1 OPM      0.132400
      5 C2'         0.8510    0.3520    2.7850 c3        1 OPM     -0.083400
      6 C2          1.5870   -0.2400   -1.8330 c3        1 OPM      0.094100
      7 O2          1.7080   -1.1310   -2.9310 oh        1 OPM     -0.601800
      8 C3          0.7690    0.9600   -2.3280 c3        1 OPM      0.117100
      9 O3          1.2820    1.4880   -3.5330 oh        1 OPM     -0.597800
     10 C4         -0.7060    0.5640   -2.5090 c3        1 OPM      0.086100
     11 O4         -1.4930    1.6860   -2.8660 oh        1 OPM     -0.596800
     12 C5         -1.2440    0.0130   -1.1790 c3        1 OPM      0.146100
     13 O5         -0.4920   -1.1510   -0.8180 os        1 OPM     -0.429600
     14 C6         -2.6960   -0.4440   -1.3150 c3        1 OPM      0.134400
     15 O6         -3.2660   -0.4010   -0.0160 oh        1 OPM     -0.599800
     16 O1          1.0590   -0.0980    0.4770 os        1 OPM     -0.452600
     17 C1          0.8910   -0.9390   -0.6470 c3        1 OPM      0.304900
     18 H3'1        0.9870   -1.1190    4.3700 hc        1 OPM      0.042200
     19 H3'2       -0.6720   -0.4600    4.0940 hc        1 OPM      0.042200
     20 H4'1        0.0670    1.7740    4.9840 hc        1 OPM      0.040200
     21 H4'2        1.7260    1.1180    5.2580 hc        1 OPM      0.040200
     22 H5'1        0.3820    1.0840    7.3600 hc        1 OPM      0.033033
     23 H5'2       -0.8770    0.0540    6.5620 hc        1 OPM      0.033033
     24 H5'3        0.7870   -0.6030    6.8380 hc        1 OPM      0.033033
     25 H1'1        1.2120   -1.6190    1.9010 h1        1 OPM      0.041700
     26 H1'2       -0.4710   -0.9510    1.6180 h1        1 OPM      0.041700
     27 H2'1        0.2780    1.2820    2.5350 hc        1 OPM      0.053200
     28 H2'2        1.9370    0.6270    2.8100 hc        1 OPM      0.053200
     29 H2          2.6070    0.1070   -1.5070 h1        1 OPM      0.071700
     30 HO2         2.2570   -1.8690   -2.6410 ho        1 OPM      0.414000
     31 H3          0.8560    1.7990   -1.5800 h1        1 OPM      0.104700
     32 HO3         1.3730    0.7550   -4.1570 ho        1 OPM      0.421000
     33 H4         -0.7880   -0.2200   -3.3140 h1        1 OPM      0.058700
     34 HO4        -0.9720    2.1990   -3.5000 ho        1 OPM      0.421000
     35 H5         -1.1500    0.7850   -0.3670 h1        1 OPM      0.085700
     36 H61        -3.2390    0.2660   -1.9970 h1        1 OPM      0.046700
     37 H62        -2.7400   -1.4860   -1.7270 h1        1 OPM      0.046700
     38 HO6        -4.1660   -0.7360   -0.1030 ho        1 OPM      0.401000
     39 H1          1.3100   -1.9720   -0.4720 h2        1 OPM      0.071700
@<TRIPOS>BOND
     1    1    2 1   
     2    1    5 1   
     3    1   18 1   
     4    1   19 1   
     5    2    3 1   
     6    2   20 1   
     7    2   21 1   
     8    3   22 1   
     9    3   23 1   
    10    3   24 1   
    11    4    5 1   
    12    4   16 1   
    13    4   25 1   
    14    4   26 1   
    15    5   27 1   
    16    5   28 1   
    17    6    7 1   
    18    6    8 1   
    19    6   17 1   
    20    6   29 1   
    21    7   30 1   
    22    8    9 1   
    23    8   10 1   
    24    8   31 1   
    25    9   32 1   
    26   10   11 1   
    27   10   12 1   
    28   10   33 1   
    29   11   34 1   
    30   12   13 1   
    31   12   14 1   
    32   12   35 1   
    33   13   17 1   
    34   14   15 1   
    35   14   36 1   
    36   14   37 1   
    37   15   38 1   
    38   16   17 1   
    39   17   39 1   
@<TRIPOS>SUBSTRUCTURE
     1 OPM         1 TEMP              0 ****  ****    0 ROOT
