@<TRIPOS>MOLECULE
OPM
   39    39     1     0     0
SMALL
bcc


@<TRIPOS>ATOM
      1 C3'         2.4580   -1.2700    2.6080 c3        1 OPM     -0.078400
      2 C4'         4.0010   -1.2480    2.5610 c3        1 OPM     -0.079400
      3 C5'         4.5610   -1.9760    3.7830 c3        1 OPM     -0.093100
      4 C1'         0.3680   -0.7350    1.3360 c3        1 OPM      0.136400
      5 C2'         1.9040   -0.6770    1.3150 c3        1 OPM     -0.084400
      6 C2         -1.6500   -0.9780   -1.5290 c3        1 OPM      0.137100
      7 O2         -2.9930   -1.3380   -1.6010 oh        1 OPM     -0.594800
      8 C3         -1.3500   -0.0410   -2.6510 c3        1 OPM      0.075100
      9 O3         -1.7750   -0.6860   -3.9390 oh        1 OPM     -0.611800
     10 C4         -2.0060    1.2000   -2.5340 c3        1 OPM      0.085100
     11 O4         -1.4830    2.1240   -3.6290 oh        1 OPM     -0.593800
     12 C5         -1.8180    1.8530   -1.2610 c3        1 OPM      0.108100
     13 O5         -2.1240    0.9860   -0.0910 os        1 OPM     -0.442600
     14 C6         -2.7290    3.0880   -1.2050 c3        1 OPM      0.140400
     15 O6         -2.7910    3.5580    0.1040 oh        1 OPM     -0.596800
     16 O1         -0.1460   -0.1770    0.1130 os        1 OPM     -0.454600
     17 C1         -1.3580   -0.3630   -0.0560 c3        1 OPM      0.335900
     18 H3'1        2.1470   -2.1910    2.7040 hc        1 OPM      0.041200
     19 H3'2        2.1470   -0.7390    3.3700 hc        1 OPM      0.041200
     20 H4'1        4.3140   -0.3190    2.5620 hc        1 OPM      0.040700
     21 H4'2        4.3100   -1.6970    1.7440 hc        1 OPM      0.040700
     22 H5'1        5.5430   -2.0450    3.7030 hc        1 OPM      0.033700
     23 H5'2        4.3340   -1.4760    4.5940 hc        1 OPM      0.033700
     24 H5'3        4.1720   -2.8760    3.8340 hc        1 OPM      0.033700
     25 H1'1        0.0730   -1.6750    1.4200 h1        1 OPM      0.035700
     26 H1'2        0.0280   -0.2130    2.1050 h1        1 OPM      0.035700
     27 H2'1        2.2370   -1.1890    0.5560 hc        1 OPM      0.054200
     28 H2'2        2.1930    0.2520    1.2320 hc        1 OPM      0.054200
     29 H2         -1.1040   -1.7850   -1.6430 h1        1 OPM      0.067700
     30 HO2        -3.0590   -2.2200   -1.6760 ho        1 OPM      0.427000
     31 H3         -0.3870    0.1150   -2.6810 h1        1 OPM      0.073700
     32 HO3        -1.0960   -0.7080   -4.4920 ho        1 OPM      0.415000
     33 H4         -2.9680    1.0610   -2.6750 h1        1 OPM      0.069700
     34 HO4        -2.1060    2.2280   -4.2510 ho        1 OPM      0.406000
     35 H5         -0.8880    2.1470   -1.1960 h1        1 OPM      0.078700
     36 H61        -3.6240    2.8470   -1.5060 h1        1 OPM      0.060700
     37 H62        -2.3650    3.7920   -1.7900 h1        1 OPM      0.060700
     38 HO6        -3.2520    4.3120    0.1250 ho        1 OPM      0.409000
     39 H1         -1.7180   -0.9440    0.6370 h2        1 OPM      0.097700
@<TRIPOS>BOND
     1    1    2 1   
     2    1    5 1   
     3    1   18 1   
     4    1   19 1   
     5    2    3 1   
     6    2   20 1   
     7    2   21 1   
     8    3   22 1   
     9    3   23 1   
    10    3   24 1   
    11    4    5 1   
    12    4   16 1   
    13    4   25 1   
    14    4   26 1   
    15    5   27 1   
    16    5   28 1   
    17    6    7 1   
    18    6    8 1   
    19    6   17 1   
    20    6   29 1   
    21    7   30 1   
    22    8    9 1   
    23    8   10 1   
    24    8   31 1   
    25    9   32 1   
    26   10   11 1   
    27   10   12 1   
    28   10   33 1   
    29   11   34 1   
    30   12   13 1   
    31   12   14 1   
    32   12   35 1   
    33   13   17 1   
    34   14   15 1   
    35   14   36 1   
    36   14   37 1   
    37   15   38 1   
    38   16   17 1   
    39   17   39 1   
@<TRIPOS>SUBSTRUCTURE
     1 OPM         1 TEMP              0 ****  ****    0 ROOT
