@<TRIPOS>MOLECULE
OPN
   39    40     1     0     0
SMALL
bcc


@<TRIPOS>ATOM
      1 N1'         1.1560   -1.0240    0.0950 nz        1 OPN     -0.849600
      2 C2'         2.3770   -0.5520   -0.5970 c3        1 OPN      0.095800
      3 C3'         3.0670    0.6850   -0.0080 c3        1 OPN      0.085800
      4 N4'         3.8770    0.5260    1.2460 nx        1 OPN     -0.582200
      5 C5'         3.1270    0.9430    2.4710 c3        1 OPN     -0.043200
      6 C'          1.6450    0.4700    2.4190 c         1 OPN      0.900600
      7 O1'         1.3810   -0.6650    2.8910 o         1 OPN     -0.782300
      8 C7'         4.5620   -0.8370    1.3240 c         1 OPN      0.557100
      9 O7'         5.3470   -1.0380    0.4070 o         1 OPN     -0.443100
     10 C8'         4.2580   -1.7350    2.4920 c3        1 OPN     -0.099200
     11 C1          4.5550   -3.1550    2.1840 cc        1 OPN     -0.246400
     12 C6          5.5350   -3.8610    2.8150 cd        1 OPN      0.053800
     13 C2          3.6750   -3.8190    1.2130 c         1 OPN      0.735700
     14 O2          2.7800   -3.2090    0.5700 o         1 OPN     -0.764500
     15 N3          3.8490   -5.1740    0.9770 ns        1 OPN     -0.479400
     16 C4          4.8430   -5.9140    1.6250 ca        1 OPN      0.555200
     17 C5          5.7120   -5.2550    2.5550 ca        1 OPN     -0.258100
     18 C7          6.7120   -6.0260    3.1920 ca        1 OPN     -0.026000
     19 C8          6.8200   -7.3710    2.9040 ca        1 OPN     -0.262300
     20 C9          5.9120   -7.9390    1.9690 ca        1 OPN      0.481200
     21 N10         4.9550   -7.2610    1.3410 nb        1 OPN     -0.693000
     22 OXT         0.8490    1.1970    1.7680 o         1 OPN     -0.782300
     23 H1'1        0.6670   -1.6940   -0.5020 hn        1 OPN      0.487133
     24 H1'2        0.5290   -0.2340    0.3460 hn        1 OPN      0.487133
     25 H1'3        1.4060   -1.5130    0.9820 hn        1 OPN      0.487133
     26 H2'1        3.0960   -1.4260   -0.6630 hx        1 OPN      0.128200
     27 H2'2        2.0820   -0.2600   -1.6510 hx        1 OPN      0.128200
     28 H3'1        3.7840    1.0320   -0.8130 hx        1 OPN      0.140700
     29 H3'2        2.3010    1.5050    0.1830 hx        1 OPN      0.140700
     30 H5'1        3.6400    0.5340    3.3810 hx        1 OPN      0.107700
     31 H5'2        3.1320    2.0700    2.5110 hx        1 OPN      0.107700
     32 H8'1        4.8800   -1.3770    3.3610 hc        1 OPN      0.140200
     33 H8'2        3.1650   -1.6520    2.7920 hc        1 OPN      0.140200
     34 H6          6.2080   -3.3810    3.5470 ha        1 OPN      0.156000
     35 HN3         3.2350   -5.6340    0.3320 hn        1 OPN      0.364500
     36 H7          7.3920   -5.5410    3.9110 ha        1 OPN      0.157000
     37 H8          7.5830   -8.0050    3.3780 ha        1 OPN      0.172000
     38 H9          5.9700   -9.0170    1.7160 h4        1 OPN      0.052100
     39 H4'1        4.6530    1.2030    1.1470 hn        1 OPN      0.449800
@<TRIPOS>BOND
     1    1    2 1   
     2    1   23 1   
     3    1   24 1   
     4    1   25 1   
     5    2    3 1   
     6    2   26 1   
     7    2   27 1   
     8    3    4 1   
     9    3   28 1   
    10    3   29 1   
    11    4    5 1   
    12    4    8 1   
    13    4   39 1   
    14    5    6 1   
    15    5   30 1   
    16    5   31 1   
    17    6    7 1   
    18    6   22 1   
    19    8    9 2   
    20    8   10 1   
    21   10   11 1   
    22   10   32 1   
    23   10   33 1   
    24   11   12 2   
    25   11   13 1   
    26   12   17 1   
    27   12   34 1   
    28   13   14 2   
    29   13   15 1   
    30   15   16 1   
    31   15   35 1   
    32   16   17 ar  
    33   16   21 ar  
    34   17   18 ar  
    35   18   19 ar  
    36   18   36 1   
    37   19   20 ar  
    38   19   37 1   
    39   20   21 ar  
    40   20   38 1   
@<TRIPOS>SUBSTRUCTURE
     1 OPN         1 TEMP              0 ****  ****    0 ROOT
