@<TRIPOS>MOLECULE
OPN
   38    35     1     0     0
SMALL
bcc


@<TRIPOS>ATOM
      1 N1'        -0.6500   -3.9680   -2.6320 n4        1 OPN     -0.366000
      2 C2'        -0.5210   -2.6210   -2.1050 c3        1 OPN     -0.106000
      3 C3'        -1.8920   -2.1320   -1.6040 c3        1 OPN     -0.029000
      4 N4'        -1.8890   -0.6640   -1.5300 n         1 OPN     -0.312000
      5 C5'        -2.7110    0.1130   -2.4530 c3        1 OPN     -0.011000
      6 C'         -1.9100    0.3990   -3.7430 c2        1 OPN      0.299000
      7 O1'        -1.3770    1.5420   -3.9210 o         1 OPN     -0.339000
      8 C7'        -1.2700   -0.0230   -0.4360 c2        1 OPN      0.317000
      9 O7'        -1.6850   -0.1890    0.6500 o         1 OPN     -0.364000
     10 C8'        -0.1730    1.0000   -0.6760 c3        1 OPN     -0.145000
     11 C1          0.4220    1.4500    0.6930 c2        1 OPN     -0.156000
     12 C6          1.3800    0.6940    1.3060 c2        1 OPN     -0.010000
     13 C2          0.0010    2.6470    1.2750 c1        1 OPN      0.340000
     14 O2         -0.8870    3.3140    0.7370 o         1 OPN     -0.365000
     15 N3          0.5540    3.0690    2.4770 n2        1 OPN     -0.282000
     16 C4          1.5180    2.3110    3.0960 c1        1 OPN      0.141000
     17 C5          1.9390    1.1250    2.5240 c1        1 OPN     -0.163000
     18 C7          2.9220    0.3790    3.1370 c1        1 OPN     -0.032000
     19 C8          3.4780    0.8140    4.3100 c1        1 OPN     -0.119500
     20 C9          3.0500    2.0140    4.8850 c1        1 OPN     -0.119500
     21 N10         2.0850    2.7480    4.2850 n1        1 OPN     -0.184000
     22 OXT        -1.8460   -0.4970   -4.6760 o         1 OPN     -0.339000
     23 H1'1       -1.1210   -4.4720   -2.0530 hn        1 OPN      0.182333
     24 H1'2       -1.1130   -3.9390   -3.4880 hn        1 OPN      0.182333
     25 H1'3        0.1810   -4.3310   -2.7480 hn        1 OPN      0.182333
     26 H2'1       -0.1930   -2.0100   -2.8260 hx        1 OPN      0.082000
     27 H2'2        0.1230   -2.6220   -1.3540 hx        1 OPN      0.082000
     28 H3'1       -2.0660   -2.5080   -0.7020 h1        1 OPN      0.103500
     29 H3'2       -2.6130   -2.4370   -2.2420 h1        1 OPN      0.103500
     30 H5'1       -3.5510   -0.4120   -2.6830 h1        1 OPN      0.125000
     31 H5'2       -2.9620    0.9650   -2.0280 h1        1 OPN      0.125000
     32 H8'1        0.5080    0.6140   -1.2050 hc        1 OPN      0.144000
     33 H8'2       -0.5500    1.7870   -1.1460 hc        1 OPN      0.144000
     34 H6          1.7120   -0.1730    0.8650 ha        1 OPN      0.166000
     35 HN3         0.2730    3.8660    2.8630 hn        1 OPN      0.261000
     36 H7          3.2190   -0.4560    2.7380 ha        1 OPN      0.147000
     37 H8          4.1750    0.2860    4.7430 ha        1 OPN      0.157000
     38 H9          3.4450    2.3180    5.6700 ha        1 OPN      0.157000
@<TRIPOS>BOND
     1    1    2 1   
     2    1   23 1   
     3    1   24 1   
     4    1   25 1   
     5    2    3 1   
     6    2   26 1   
     7    2   27 1   
     8    3    4 1   
     9    3   28 1   
    10    3   29 1   
    11    4    5 1   
    12    4    8 1   
    13    5    6 1   
    14    5   30 1   
    15    5   31 1   
    16    6    7 1   
    17    6   22 1   
    18    8    9 1   
    19    8   10 1   
    20   10   11 1   
    21   10   32 1   
    22   10   33 1   
    23   11   12 1   
    24   11   13 1   
    25   12   17 1   
    26   12   34 1   
    27   13   14 1   
    28   15   16 1   
    29   15   35 1   
    30   16   21 1   
    31   17   18 1   
    32   18   36 1   
    33   19   20 1   
    34   19   37 1   
    35   20   38 1   
@<TRIPOS>SUBSTRUCTURE
     1 OPN         1 TEMP              0 ****  ****    0 ROOT
