@<TRIPOS>MOLECULE
OPN
   38    39     1     0     0
SMALL
bcc


@<TRIPOS>ATOM
      1 N1'        -2.9650   -3.5600   -0.4420 n3        1 OPN     -0.909800
      2 C2'        -2.4210   -2.2260   -0.5440 c3        1 OPN      0.129800
      3 C3'        -3.0430   -1.2760    0.5070 c3        1 OPN      0.087000
      4 N4'        -2.5500    0.0790    0.4190 n         1 OPN     -0.462800
      5 C5'        -3.3680    1.0300   -0.2830 c3        1 OPN      0.052000
      6 C'         -4.5980    1.5330    0.4450 c         1 OPN      0.612100
      7 O1'        -5.2200    0.6530    1.2760 oh        1 OPN     -0.606100
      8 C7'        -1.3630    0.5010    1.0080 c         1 OPN      0.669100
      9 O7'        -1.0550    1.7120    0.9770 o         1 OPN     -0.619100
     10 C8'        -0.4380   -0.4960    1.6900 c3        1 OPN     -0.095200
     11 C1          0.8860   -0.5430    1.0170 cc        1 OPN     -0.197400
     12 C6          1.6680    0.5540    0.8530 cd        1 OPN     -0.000200
     13 C2          1.3470   -1.8630    0.5480 c         1 OPN      0.703700
     14 O2          0.6820   -2.9160    0.6350 o         1 OPN     -0.648500
     15 N3          2.6150   -1.9420   -0.0410 n         1 OPN     -0.512400
     16 C4          3.4280   -0.8230   -0.2110 ca        1 OPN      0.549200
     17 C5          2.9580    0.4570    0.2340 ca        1 OPN     -0.245100
     18 C7          3.7920    1.5760    0.0460 ca        1 OPN     -0.030000
     19 C8          5.0280    1.4130   -0.5530 ca        1 OPN     -0.287300
     20 C9          5.4120    0.1110   -0.9590 ca        1 OPN      0.455200
     21 N10         4.6640   -0.9810   -0.8080 nb        1 OPN     -0.708000
     22 OXT        -5.1230    2.6430    0.3180 o         1 OPN     -0.544000
     23 H1'1       -5.9990    1.0750    1.6750 ho        1 OPN      0.445000
     24 H1'2       -2.7750   -3.9520    0.4590 hn        1 OPN      0.353300
     25 H1'3       -2.5560   -4.1470   -1.1430 hn        1 OPN      0.353300
     26 H2'1       -1.2950   -2.2050   -0.4270 h1        1 OPN      0.039200
     27 H2'2       -2.6610   -1.8370   -1.5750 h1        1 OPN      0.039200
     28 H3'1       -4.1640   -1.2540    0.3690 h1        1 OPN      0.067700
     29 H3'2       -2.8510   -1.6780    1.5420 h1        1 OPN      0.067700
     30 H5'1       -2.7530    1.9450   -0.5380 h1        1 OPN      0.100200
     31 H5'2       -3.7430    0.5590   -1.2390 h1        1 OPN      0.100200
     32 H8'1       -0.3070   -0.1310    2.7480 hc        1 OPN      0.091200
     33 H8'2       -0.8680   -1.5320    1.7400 hc        1 OPN      0.091200
     34 H6          1.3130    1.5500    1.1810 ha        1 OPN      0.175000
     35 HN3         2.9350   -2.8360   -0.3530 hn        1 OPN      0.349500
     36 H7          3.4460    2.5670    0.3780 ha        1 OPN      0.150000
     37 H8          5.7050    2.2610   -0.7170 ha        1 OPN      0.153000
     38 H9          6.3940   -0.0570   -1.4400 h4        1 OPN      0.030100
@<TRIPOS>BOND
     1    1    2 1   
     2    1   24 1   
     3    1   25 1   
     4    2    3 1   
     5    2   26 1   
     6    2   27 1   
     7    3    4 1   
     8    3   28 1   
     9    3   29 1   
    10    4    5 1   
    11    4    8 1   
    12    5    6 1   
    13    5   30 1   
    14    5   31 1   
    15    6    7 1   
    16    6   22 2   
    17    7   23 1   
    18    8    9 2   
    19    8   10 1   
    20   10   11 1   
    21   10   32 1   
    22   10   33 1   
    23   11   12 2   
    24   11   13 1   
    25   12   17 1   
    26   12   34 1   
    27   13   14 2   
    28   13   15 1   
    29   15   16 1   
    30   15   35 1   
    31   16   17 ar  
    32   16   21 ar  
    33   17   18 ar  
    34   18   19 ar  
    35   18   36 1   
    36   19   20 ar  
    37   19   37 1   
    38   20   21 ar  
    39   20   38 1   
@<TRIPOS>SUBSTRUCTURE
     1 OPN         1 TEMP              0 ****  ****    0 ROOT
