@<TRIPOS>MOLECULE
OPN
   39    40     1     0     0
SMALL
bcc


@<TRIPOS>ATOM
      1 N1'         1.0950   -0.9970    0.2460 n4        1 OPN     -0.849600
      2 C2'         2.2760   -0.5710   -0.5390 c3        1 OPN      0.095800
      3 C3'         3.0310    0.6640   -0.0310 c3        1 OPN      0.085800
      4 N4'         3.9210    0.5170    1.1700 n4        1 OPN     -0.582200
      5 C5'         3.2660    0.9820    2.4310 c3        1 OPN     -0.043200
      6 C'          1.7740    0.5420    2.4920 c         1 OPN      0.900600
      7 O1'         1.5180   -0.5750    3.0100 o         1 OPN     -0.782300
      8 C7'         4.5810   -0.8590    1.2370 c         1 OPN      0.557100
      9 O7'         5.2970   -1.1010    0.2740 o         1 OPN     -0.443100
     10 C8'         4.3370   -1.7220    2.4450 c3        1 OPN     -0.099200
     11 C1          4.5820   -3.1550    2.1550 cc        1 OPN     -0.246400
     12 C6          5.5880   -3.8670    2.7360 cd        1 OPN      0.053800
     13 C2          3.6240   -3.8220    1.2630 c         1 OPN      0.735700
     14 O2          2.6990   -3.2070    0.6660 o         1 OPN     -0.764500
     15 N3          3.7520   -5.1860    1.0520 n         1 OPN     -0.479400
     16 C4          4.7710   -5.9330    1.6490 ca        1 OPN      0.555200
     17 C5          5.7160   -5.2710    2.5010 ca        1 OPN     -0.258100
     18 C7          6.7410   -6.0500    3.0880 ca        1 OPN     -0.026000
     19 C8          6.7990   -7.4030    2.8290 ca        1 OPN     -0.262300
     20 C9          5.8170   -7.9730    1.9730 ca        1 OPN      0.481200
     21 N10         4.8340   -7.2880    1.3940 nb        1 OPN     -0.693000
     22 OXT         0.9510    1.2710    1.8770 o         1 OPN     -0.782300
     23 H1'1        0.5520   -1.6700   -0.3000 hn        1 OPN      0.487133
     24 H1'2        0.5040   -0.1860    0.5180 hn        1 OPN      0.487133
     25 H1'3        1.3940   -1.4690    1.1260 hn        1 OPN      0.487133
     26 H2'1        2.9690   -1.4630   -0.6310 hx        1 OPN      0.128200
     27 H2'2        1.9160   -0.2970   -1.5780 hx        1 OPN      0.128200
     28 H3'1        3.6990    0.9740   -0.8910 hx        1 OPN      0.140700
     29 H3'2        2.2980    1.5060    0.1900 hx        1 OPN      0.140700
     30 H5'1        3.8300    0.5830    3.3140 hx        1 OPN      0.107700
     31 H5'2        3.2980    2.1080    2.4410 hx        1 OPN      0.107700
     32 H8'1        5.0250   -1.3570    3.2600 hc        1 OPN      0.140200
     33 H8'2        3.2690   -1.6060    2.8160 hc        1 OPN      0.140200
     34 H6          6.3190   -3.3860    3.4080 ha        1 OPN      0.156000
     35 HN3         3.0850   -5.6470    0.4620 hn        1 OPN      0.364500
     36 H7          7.4780   -5.5630    3.7470 ha        1 OPN      0.157000
     37 H8          7.5790   -8.0430    3.2660 ha        1 OPN      0.172000
     38 H9          5.8340   -9.0580    1.7450 h4        1 OPN      0.052100
     39 H4'1        4.7030    1.1730    1.0000 hn        1 OPN      0.449800
@<TRIPOS>BOND
     1    1    2 1   
     2    1   23 1   
     3    1   24 1   
     4    1   25 1   
     5    2    3 1   
     6    2   26 1   
     7    2   27 1   
     8    3    4 1   
     9    3   28 1   
    10    3   29 1   
    11    4    5 1   
    12    4    8 1   
    13    4   39 1   
    14    5    6 1   
    15    5   30 1   
    16    5   31 1   
    17    6    7 1   
    18    6   22 1   
    19    8    9 2   
    20    8   10 1   
    21   10   11 1   
    22   10   32 1   
    23   10   33 1   
    24   11   12 2   
    25   11   13 1   
    26   12   17 1   
    27   12   34 1   
    28   13   14 2   
    29   13   15 1   
    30   15   16 1   
    31   15   35 1   
    32   16   17 ar  
    33   16   21 ar  
    34   17   18 ar  
    35   18   19 ar  
    36   18   36 1   
    37   19   20 ar  
    38   19   37 1   
    39   20   21 ar  
    40   20   38 1   
@<TRIPOS>SUBSTRUCTURE
     1 OPN         1 TEMP              0 ****  ****    0 ROOT
