@<TRIPOS>MOLECULE
OPO
   15    15     1     0     0
SMALL
bcc


@<TRIPOS>ATOM
      1 O3         -0.0510   -0.0560   -0.0650 o         1 OPO     -0.203500
      2 N1          1.1500    0.0080    0.0060 no        1 OPO      0.324200
      3 O2          1.7220    0.0620    1.0590 o         1 OPO     -0.203500
      4 C1          1.9290    0.0200   -1.2540 ca        1 OPO     -0.217200
      5 C2          3.3410    0.0950   -1.2460 ca        1 OPO      0.194100
      6 OH          3.9770    0.1570   -0.0380 oh        1 OPO     -0.450100
      7 C6          1.2460   -0.0450   -2.4830 ca        1 OPO     -0.034000
      8 C5          1.9560   -0.0350   -3.6770 ca        1 OPO     -0.178000
      9 C4          3.3530    0.0400   -3.6660 ca        1 OPO     -0.047000
     10 C3          4.0450    0.1040   -2.4650 ca        1 OPO     -0.232000
     11 H6          0.1430   -0.1030   -2.4890 ha        1 OPO      0.174000
     12 HH          4.9330    0.2040   -0.2000 ho        1 OPO      0.428000
     13 H3          5.1430    0.1630   -2.4540 ha        1 OPO      0.147000
     14 H5          1.4150   -0.0860   -4.6330 ha        1 OPO      0.150000
     15 H4          3.9080    0.0470   -4.6180 ha        1 OPO      0.145000
@<TRIPOS>BOND
     1    1    2 1   
     2    2    3 1   
     3    2    4 1   
     4    4    5 ar  
     5    4    7 ar  
     6    5    6 1   
     7    5   10 ar  
     8    6   12 1   
     9    7    8 ar  
    10    7   11 1   
    11    8    9 ar  
    12    8   14 1   
    13    9   10 ar  
    14    9   15 1   
    15   10   13 1   
@<TRIPOS>SUBSTRUCTURE
     1 OPO         1 TEMP              0 ****  ****    0 ROOT
