@<TRIPOS>MOLECULE
OPO
   15    15     1     0     0
SMALL
bcc


@<TRIPOS>ATOM
      1 O3         -0.0380   -0.0430   -0.0530 o         1 OPO     -0.203500
      2 N1          1.1640    0.0120    0.0120 no        1 OPO      0.324200
      3 O2          1.7420    0.0580    1.0620 o         1 OPO     -0.203500
      4 C1          1.9350    0.0210   -1.2520 ca        1 OPO     -0.217200
      5 C2          3.3490    0.0850   -1.2520 ca        1 OPO      0.194100
      6 OH          3.9910    0.1400   -0.0480 oh        1 OPO     -0.450100
      7 C6          1.2450   -0.0360   -2.4780 ca        1 OPO     -0.034000
      8 C5          1.9490   -0.0290   -3.6750 ca        1 OPO     -0.178000
      9 C4          3.3460    0.0350   -3.6730 ca        1 OPO     -0.047000
     10 C3          4.0450    0.0910   -2.4750 ca        1 OPO     -0.232000
     11 H6          0.1410   -0.0870   -2.4780 ha        1 OPO      0.174000
     12 HH          4.9470    0.1800   -0.2140 ho        1 OPO      0.428000
     13 H3          5.1440    0.1420   -2.4700 ha        1 OPO      0.147000
     14 H5          1.4030   -0.0740   -4.6290 ha        1 OPO      0.150000
     15 H4          3.8960    0.0400   -4.6270 ha        1 OPO      0.145000
@<TRIPOS>BOND
     1    1    2 1   
     2    2    3 1   
     3    2    4 1   
     4    4    5 ar  
     5    4    7 ar  
     6    5    6 1   
     7    5   10 ar  
     8    6   12 1   
     9    7    8 ar  
    10    7   11 1   
    11    8    9 ar  
    12    8   14 1   
    13    9   10 ar  
    14    9   15 1   
    15   10   13 1   
@<TRIPOS>SUBSTRUCTURE
     1 OPO         1 TEMP              0 ****  ****    0 ROOT
