@<TRIPOS>MOLECULE
OPP
   25    26     1     0     0
SMALL
bcc


@<TRIPOS>ATOM
      1 N           0.0570   -0.1100    0.0510 n         1 OPP     -0.552400
      2 C1          1.4620    0.0830    0.1430 c         1 OPP      0.690200
      3 O1          2.2350    0.1950   -0.8090 o         1 OPP     -0.556500
      4 C2          1.8040    0.1200    1.6190 cc        1 OPP     -0.171700
      5 C3          0.6640    0.0070    2.3290 cd        1 OPP     -0.171700
      6 C4         -0.4980   -0.1220    1.3650 c         1 OPP      0.690200
      7 O4         -1.6920   -0.2470    1.6360 o         1 OPP     -0.556500
      8 C5         -0.7240   -0.0990   -1.1570 c3        1 OPP      0.285800
      9 O          -0.9510    1.2210   -1.6480 os        1 OPP     -0.433600
     10 C5'        -0.0010    1.6930   -2.6010 c3        1 OPP      0.285800
     11 N'         -0.4060    1.4340   -3.9570 n         1 OPP     -0.552400
     12 C1'        -1.1210    2.3590   -4.7720 c         1 OPP      0.690200
     13 O1'        -1.3750    3.5260   -4.4750 o         1 OPP     -0.556500
     14 C2'        -1.4570    1.6360   -6.0600 cc        1 OPP     -0.171700
     15 C3'        -0.9970    0.3710   -5.9780 cd        1 OPP     -0.171700
     16 C4'        -0.3400    0.1810   -4.6270 c         1 OPP      0.690200
     17 O4'         0.1630   -0.8490   -4.1740 o         1 OPP     -0.556500
     18 H2          2.8370    0.2250    1.9480 ha        1 OPP      0.182000
     19 H3          0.4980   -0.0060    3.4060 ha        1 OPP      0.182000
     20 H51        -0.2050   -0.7360   -1.9310 h2        1 OPP      0.097700
     21 H52        -1.7590   -0.4800   -0.9080 h2        1 OPP      0.097700
     22 H5'1        1.0130    1.2270   -2.4290 h2        1 OPP      0.097700
     23 H5'2        0.0080    2.8130   -2.4460 h2        1 OPP      0.097700
     24 H2'        -1.9840    2.1470   -6.8650 ha        1 OPP      0.182000
     25 H3'        -1.0390   -0.4470   -6.6970 ha        1 OPP      0.182000
@<TRIPOS>BOND
     1    1    2 1   
     2    1    6 1   
     3    1    8 1   
     4    2    3 2   
     5    2    4 1   
     6    4    5 2   
     7    4   18 1   
     8    5    6 1   
     9    5   19 1   
    10    6    7 2   
    11    8    9 1   
    12    8   20 1   
    13    8   21 1   
    14    9   10 1   
    15   10   11 1   
    16   10   22 1   
    17   10   23 1   
    18   11   12 1   
    19   11   16 1   
    20   12   13 2   
    21   12   14 1   
    22   14   15 2   
    23   14   24 1   
    24   15   16 1   
    25   15   25 1   
    26   16   17 2   
@<TRIPOS>SUBSTRUCTURE
     1 OPP         1 TEMP              0 ****  ****    0 ROOT
