@<TRIPOS>MOLECULE
OPP
   25    26     1     0     0
SMALL
bcc


@<TRIPOS>ATOM
      1 N           0.0550   -0.1140    0.0500 n         1 OPP     -0.552400
      2 C1          1.4610    0.0770    0.1420 c         1 OPP      0.690200
      3 O1          2.2350    0.1900   -0.8100 o         1 OPP     -0.556500
      4 C2          1.8030    0.1110    1.6180 cc        1 OPP     -0.171700
      5 C3          0.6630   -0.0020    2.3280 cd        1 OPP     -0.171700
      6 C4         -0.4990   -0.1270    1.3640 c         1 OPP      0.690200
      7 O4         -1.6930   -0.2510    1.6340 o         1 OPP     -0.556500
      8 C5         -0.7250   -0.1000   -1.1580 c3        1 OPP      0.285800
      9 O          -0.9500    1.2210   -1.6470 os        1 OPP     -0.433600
     10 C5'         0.0010    1.6940   -2.5990 c3        1 OPP      0.285800
     11 N'         -0.4050    1.4380   -3.9550 n         1 OPP     -0.552400
     12 C1'        -1.1190    2.3660   -4.7690 c         1 OPP      0.690200
     13 O1'        -1.3700    3.5320   -4.4700 o         1 OPP     -0.556500
     14 C2'        -1.4550    1.6450   -6.0590 cc        1 OPP     -0.171700
     15 C3'        -0.9970    0.3800   -5.9790 cd        1 OPP     -0.171700
     16 C4'        -0.3410    0.1860   -4.6270 c         1 OPP      0.690200
     17 O4'         0.1600   -0.8460   -4.1770 o         1 OPP     -0.556500
     18 H2          2.8370    0.2130    1.9480 ha        1 OPP      0.182000
     19 H3          0.4970   -0.0160    3.4050 ha        1 OPP      0.182000
     20 H51        -1.7610   -0.4800   -0.9110 h2        1 OPP      0.097700
     21 H52        -0.2070   -0.7370   -1.9330 h2        1 OPP      0.097700
     22 H5'1        0.0110    2.8140   -2.4420 h2        1 OPP      0.097700
     23 H5'2        1.0140    1.2260   -2.4280 h2        1 OPP      0.097700
     24 H2'        -1.9820    2.1590   -6.8630 ha        1 OPP      0.182000
     25 H3'        -1.0410   -0.4370   -6.6990 ha        1 OPP      0.182000
@<TRIPOS>BOND
     1    1    2 1   
     2    1    6 1   
     3    1    8 1   
     4    2    3 2   
     5    2    4 1   
     6    4    5 2   
     7    4   18 1   
     8    5    6 1   
     9    5   19 1   
    10    6    7 2   
    11    8    9 1   
    12    8   20 1   
    13    8   21 1   
    14    9   10 1   
    15   10   11 1   
    16   10   22 1   
    17   10   23 1   
    18   11   12 1   
    19   11   16 1   
    20   12   13 2   
    21   12   14 1   
    22   14   15 2   
    23   14   24 1   
    24   15   16 1   
    25   15   25 1   
    26   16   17 2   
@<TRIPOS>SUBSTRUCTURE
     1 OPP         1 TEMP              0 ****  ****    0 ROOT
