@<TRIPOS>MOLECULE
OPP
   25    24     1     0     0
SMALL
bcc


@<TRIPOS>ATOM
      1 N           1.4140    1.0540    1.5240 n         1 OPP     -0.378500
      2 C1          2.9680    0.9210    1.6580 c2        1 OPP      0.332000
      3 O1          3.7130    0.3770    0.8640 o         1 OPP     -0.273000
      4 C2          3.2050    1.0930    3.0630 c2        1 OPP     -0.151500
      5 C3          2.0930    1.3070    3.7750 c1        1 OPP     -0.145000
      6 C4          0.9210    1.3090    3.0020 c1        1 OPP      0.338000
      7 O4         -0.1730    1.4720    3.3700 o         1 OPP     -0.297000
      8 C5          0.7100    1.3930    0.3510 c3        1 OPP      0.110500
      9 O          -0.0810    0.2690   -0.0740 os        1 OPP     -0.299000
     10 C5'        -0.6930    0.4380   -1.3570 c3        1 OPP      0.110500
     11 N'         -1.3580   -0.7760   -1.7310 n         1 OPP     -0.378500
     12 C1'        -1.0300   -1.6520   -2.9900 c2        1 OPP      0.332000
     13 O1'         0.0720   -1.9280   -3.4010 o         1 OPP     -0.273000
     14 C2'        -2.2590   -2.4220   -3.2140 c2        1 OPP     -0.151500
     15 C3'        -3.2030   -2.1600   -2.3630 c1        1 OPP     -0.145000
     16 C4'        -2.8330   -1.1690   -1.3680 c1        1 OPP      0.338000
     17 O4'        -3.5280   -0.7310   -0.4430 o         1 OPP     -0.297000
     18 H2          4.0050    0.6800    3.4910 ha        1 OPP      0.181000
     19 H3          2.0550    1.0510    4.7450 ha        1 OPP      0.181500
     20 H51         0.0940    2.1930    0.5430 h2        1 OPP      0.125500
     21 H52         1.3370    1.6290   -0.3470 h2        1 OPP      0.125500
     22 H5'1       -1.3240    1.1460   -1.3160 h2        1 OPP      0.125500
     23 H5'2       -0.0210    0.6470   -2.0080 h2        1 OPP      0.125500
     24 H2'        -2.2100   -3.2970   -3.6230 ha        1 OPP      0.181000
     25 H3'        -3.8760   -2.8450   -2.1490 ha        1 OPP      0.181500
@<TRIPOS>BOND
     1    1    2 1   
     2    1    6 1   
     3    1    8 1   
     4    2    3 1   
     5    2    4 1   
     6    4    5 1   
     7    4   18 1   
     8    5   19 1   
     9    6    7 1   
    10    8    9 1   
    11    8   20 1   
    12    8   21 1   
    13    9   10 1   
    14   10   11 1   
    15   10   22 1   
    16   10   23 1   
    17   11   12 1   
    18   11   16 1   
    19   12   13 1   
    20   12   14 1   
    21   14   15 1   
    22   14   24 1   
    23   15   25 1   
    24   16   17 1   
@<TRIPOS>SUBSTRUCTURE
     1 OPP         1 TEMP              0 ****  ****    0 ROOT
