@<TRIPOS>MOLECULE
OPP
   25    26     1     0     0
SMALL
bcc


@<TRIPOS>ATOM
      1 N          -0.0510    0.3470    2.1320 n         1 OPP     -0.552400
      2 C1         -1.0020   -0.6570    2.4640 c         1 OPP      0.690200
      3 O1         -1.8260   -1.1490    1.6920 o         1 OPP     -0.556500
      4 C2         -0.7970   -0.9870    3.9290 cc        1 OPP     -0.171700
      5 C3          0.2370   -0.2580    4.3950 cd        1 OPP     -0.171700
      6 C4          0.7700    0.6040    3.2690 c         1 OPP      0.690200
      7 O4          1.7050    1.4030    3.3100 o         1 OPP     -0.556500
      8 C5          0.1910    0.8850    0.8200 c3        1 OPP      0.285800
      9 O           0.9530    0.0010   -0.0000 os        1 OPP     -0.433600
     10 C5'         0.1920   -0.8850   -0.8200 c3        1 OPP      0.285800
     11 N'         -0.0510   -0.3470   -2.1320 n         1 OPP     -0.552400
     12 C1'         0.7700   -0.6030   -3.2690 c         1 OPP      0.690200
     13 O1'         1.7060   -1.4000   -3.3100 o         1 OPP     -0.556500
     14 C2'         0.2350    0.2580   -4.3950 cc        1 OPP     -0.171700
     15 C3'        -0.8000    0.9850   -3.9280 cd        1 OPP     -0.171700
     16 C4'        -1.0040    0.6550   -2.4640 c         1 OPP      0.690200
     17 O4'        -1.8290    1.1450   -1.6910 o         1 OPP     -0.556500
     18 H2         -1.4370   -1.7120    4.4310 ha        1 OPP      0.182000
     19 H3          0.6850   -0.2180    5.3880 ha        1 OPP      0.182000
     20 H51        -0.8010    1.1310    0.3400 h2        1 OPP      0.097700
     21 H52         0.8540    1.7940    0.9310 h2        1 OPP      0.097700
     22 H5'1        0.8570   -1.7930   -0.9310 h2        1 OPP      0.097700
     23 H5'2       -0.7980   -1.1330   -0.3390 h2        1 OPP      0.097700
     24 H2'         0.6830    0.2190   -5.3880 ha        1 OPP      0.182000
     25 H3'        -1.4420    1.7090   -4.4300 ha        1 OPP      0.182000
@<TRIPOS>BOND
     1    1    2 1   
     2    1    6 1   
     3    1    8 1   
     4    2    3 2   
     5    2    4 1   
     6    4    5 2   
     7    4   18 1   
     8    5    6 1   
     9    5   19 1   
    10    6    7 2   
    11    8    9 1   
    12    8   20 1   
    13    8   21 1   
    14    9   10 1   
    15   10   11 1   
    16   10   22 1   
    17   10   23 1   
    18   11   12 1   
    19   11   16 1   
    20   12   13 2   
    21   12   14 1   
    22   14   15 2   
    23   14   24 1   
    24   15   16 1   
    25   15   25 1   
    26   16   17 2   
@<TRIPOS>SUBSTRUCTURE
     1 OPP         1 TEMP              0 ****  ****    0 ROOT
