@<TRIPOS>MOLECULE
OPP
   25    26     1     0     0
SMALL
bcc


@<TRIPOS>ATOM
      1 N           0.0510   -0.1180    0.0490 n         1 OPP     -0.552400
      2 C1          1.4560    0.0740    0.1460 c         1 OPP      0.690200
      3 O1          2.2320    0.1910   -0.8040 o         1 OPP     -0.556500
      4 C2          1.7930    0.1050    1.6220 cc        1 OPP     -0.171700
      5 C3          0.6510   -0.0110    2.3290 cd        1 OPP     -0.171700
      6 C4         -0.5080   -0.1350    1.3610 c         1 OPP      0.690200
      7 O4         -1.7020   -0.2620    1.6280 o         1 OPP     -0.556500
      8 C5         -0.7270   -0.1030   -1.1620 c3        1 OPP      0.285800
      9 O          -0.9520    1.2190   -1.6480 os        1 OPP     -0.433600
     10 C5'         0.0010    1.6960   -2.5960 c3        1 OPP      0.285800
     11 N'         -0.4000    1.4420   -3.9540 n         1 OPP     -0.552400
     12 C1'        -1.1130    2.3710   -4.7680 c         1 OPP      0.690200
     13 O1'        -1.3670    3.5360   -4.4670 o         1 OPP     -0.556500
     14 C2'        -1.4450    1.6530   -6.0600 cc        1 OPP     -0.171700
     15 C3'        -0.9850    0.3880   -5.9820 cd        1 OPP     -0.171700
     16 C4'        -0.3320    0.1920   -4.6290 c         1 OPP      0.690200
     17 O4'         0.1690   -0.8400   -4.1790 o         1 OPP     -0.556500
     18 H2          2.8260    0.2080    1.9550 ha        1 OPP      0.182000
     19 H3          0.4820   -0.0280    3.4050 ha        1 OPP      0.182000
     20 H51        -0.2050   -0.7370   -1.9360 h2        1 OPP      0.097700
     21 H52        -1.7620   -0.4850   -0.9180 h2        1 OPP      0.097700
     22 H5'1        1.0140    1.2290   -2.4230 h2        1 OPP      0.097700
     23 H5'2        0.0090    2.8150   -2.4370 h2        1 OPP      0.097700
     24 H2'        -1.9700    2.1680   -6.8650 ha        1 OPP      0.182000
     25 H3'        -1.0250   -0.4270   -6.7040 ha        1 OPP      0.182000
@<TRIPOS>BOND
     1    1    2 1   
     2    1    6 1   
     3    1    8 1   
     4    2    3 2   
     5    2    4 1   
     6    4    5 2   
     7    4   18 1   
     8    5    6 1   
     9    5   19 1   
    10    6    7 2   
    11    8    9 1   
    12    8   20 1   
    13    8   21 1   
    14    9   10 1   
    15   10   11 1   
    16   10   22 1   
    17   10   23 1   
    18   11   12 1   
    19   11   16 1   
    20   12   13 2   
    21   12   14 1   
    22   14   15 2   
    23   14   24 1   
    24   15   16 1   
    25   15   25 1   
    26   16   17 2   
@<TRIPOS>SUBSTRUCTURE
     1 OPP         1 TEMP              0 ****  ****    0 ROOT
