@<TRIPOS>MOLECULE
OPQ
   82    80     1     0     0
SMALL
bcc


@<TRIPOS>ATOM
      1 C1          6.0220    2.2900   -4.0450 c3        1 OPQ     -0.211000
      2 C2          5.0300    2.0980   -5.2120 c3        1 OPQ     -0.157000
      3 C3          3.7850    2.9680   -4.9760 c3        1 OPQ     -0.183000
      4 C4          2.6540    2.5300   -5.9560 c3        1 OPQ     -0.033000
      5 N5          1.3780    2.7900   -5.3620 n         1 OPQ     -0.371000
      6 C6          0.3210    1.7800   -5.4310 c2        1 OPQ      0.302000
      7 O7          0.3370    0.9280   -6.3270 o         1 OPQ     -0.393000
      8 C8         -0.8820    1.8740   -4.4880 c3        1 OPQ     -0.223000
      9 C9         -1.0590    0.5640   -3.7610 c3        1 OPQ      0.030000
     10 O11        -2.2490   -0.0630   -4.1990 oh        1 OPQ     -0.344000
     11 C12        -1.1430    0.8250   -2.2710 c3        1 OPQ      0.019000
     12 C14         0.1970    1.3360   -1.7710 c3        1 OPQ     -0.162000
     13 C1A        -0.0200    2.6210   -0.9480 c3        1 OPQ     -0.114000
     14 C15         0.9740    2.6520    0.2280 c3        1 OPQ     -0.206500
     15 C16         0.2090    3.8610   -1.8520 c3        1 OPQ     -0.206500
     16 N17        -1.4770   -0.3900   -1.5870 n         1 OPQ     -0.340000
     17 C18        -2.5860   -0.4150   -0.6550 c2        1 OPQ      0.276000
     18 O19        -3.4710    0.4400   -0.7270 o         1 OPQ     -0.380000
     19 C20        -2.6720   -1.5280    0.4180 c3        1 OPQ      0.005000
     20 N22        -2.6330   -0.9360    1.7390 n         1 OPQ     -0.352000
     21 C23        -1.6400   -1.3960    2.7210 c2        1 OPQ      0.304000
     22 O24        -0.8040   -2.2560    2.4000 o         1 OPQ     -0.373000
     23 C25        -1.5800   -0.7340    4.1510 c3        1 OPQ     -0.144000
     24 C26        -0.1980   -1.0350    4.8050 c2        1 OPQ     -0.087000
     25 C27         0.9300   -0.2810    4.4510 c2        1 OPQ     -0.132000
     26 C28         2.1600   -0.5560    5.0380 c1        1 OPQ     -0.107000
     27 C29         2.2740   -1.5940    5.9910 c1        1 OPQ     -0.032000
     28 C30         3.5310   -1.8710    6.5980 c2        1 OPQ     -0.117000
     29 C31         3.6390   -2.8990    7.5500 c1        1 OPQ     -0.125000
     30 C32         2.5130   -3.6480    7.9000 c1        1 OPQ     -0.121000
     31 C33         1.2700   -3.3740    7.3000 c1        1 OPQ     -0.121000
     32 C34         1.1590   -2.3370    6.3390 c1        1 OPQ     -0.034000
     33 C35        -0.0860   -2.0590    5.7450 c2        1 OPQ     -0.098000
     34 C36        -3.9510   -2.2920    0.2460 c3        1 OPQ     -0.108000
     35 C37        -3.6330   -3.7430   -0.0630 c3        1 OPQ     -0.207000
     36 C38        -4.7800   -2.2120    1.5390 c3        1 OPQ     -0.165000
     37 C39        -6.0470   -3.0760    1.3880 c3        1 OPQ     -0.210000
     38 H40         6.8220    1.7270   -4.1960 hc        1 OPQ      0.074333
     39 H41         6.2900    3.2320   -3.9950 hc        1 OPQ      0.074333
     40 H42         5.5920    2.0280   -3.2030 hc        1 OPQ      0.074333
     41 H43         4.7650    1.1570   -5.2630 hc        1 OPQ      0.082000
     42 H44         5.4560    2.3600   -6.0450 hc        1 OPQ      0.082000
     43 H45         4.0090    3.9080   -5.1350 hc        1 OPQ      0.083500
     44 H46         3.4800    2.8570   -4.0530 hc        1 OPQ      0.083500
     45 H47         2.7380    1.5800   -6.1430 h1        1 OPQ      0.103000
     46 H48         2.7330    3.0340   -6.7890 h1        1 OPQ      0.103000
     47 H49         1.1980    3.6070   -5.0260 hn        1 OPQ      0.222000
     48 H50        -1.6860    2.0720   -5.0040 hc        1 OPQ      0.120500
     49 H51        -0.7330    2.5760   -3.8490 hc        1 OPQ      0.120500
     50 H10        -0.2950   -0.0180   -3.9480 h1        1 OPQ      0.091000
     51 H52        -2.0460   -0.7690   -4.7000 ho        1 OPQ      0.237000
     52 H13        -1.8470    1.5120   -2.0930 h1        1 OPQ      0.123000
     53 H53         0.6110    0.6650   -1.2160 hc        1 OPQ      0.084500
     54 H54         0.7670    1.5280   -2.5230 hc        1 OPQ      0.084500
     55 H55        -0.9420    2.6350   -0.5990 hc        1 OPQ      0.119000
     56 H56         0.9450    3.5300    0.6550 hc        1 OPQ      0.071333
     57 H57         0.7280    1.9650    0.8810 hc        1 OPQ      0.071333
     58 H58         1.8830    2.4790   -0.1050 hc        1 OPQ      0.071333
     59 H59        -0.5490    3.9680   -2.4580 hc        1 OPQ      0.071333
     60 H60         1.0290    3.7390   -2.3740 hc        1 OPQ      0.071333
     61 H61         0.2950    4.6710   -1.2840 hc        1 OPQ      0.071333
     62 H62        -1.0230   -1.1540   -1.7710 hn        1 OPQ      0.229000
     63 H21        -1.9120   -2.1400    0.3130 h1        1 OPQ      0.142000
     64 H63        -3.2000   -0.2660    1.9500 hn        1 OPQ      0.241000
     65 H64        -1.6960    0.2300    4.0680 hc        1 OPQ      0.121500
     66 H65        -2.2950   -1.1030    4.7130 hc        1 OPQ      0.121500
     67 H66         0.8260    0.5190    3.8730 ha        1 OPQ      0.133000
     68 H67         2.9590   -0.0230    4.7880 ha        1 OPQ      0.135000
     69 H68         4.3100   -1.3530    6.3550 ha        1 OPQ      0.133000
     70 H69         4.5050   -3.0910    7.9680 ha        1 OPQ      0.132000
     71 H70         2.5880   -4.3590    8.5610 ha        1 OPQ      0.133500
     72 H71         0.4830   -3.8980    7.5450 ha        1 OPQ      0.133500
     73 H72        -0.8790   -2.5980    5.9850 ha        1 OPQ      0.139000
     74 H73        -4.4620   -1.9080   -0.4890 hc        1 OPQ      0.103000
     75 H74        -4.3290   -4.1120   -0.6360 hc        1 OPQ      0.078667
     76 H75        -2.7540   -3.7990   -0.5290 hc        1 OPQ      0.078667
     77 H76        -3.5930   -4.2490    0.7680 hc        1 OPQ      0.078667
     78 H77        -4.2450   -2.5450    2.2940 hc        1 OPQ      0.090000
     79 H78        -5.0380   -1.2800    1.7060 hc        1 OPQ      0.090000
     80 H79        -6.2720   -3.1560    0.4480 hc        1 OPQ      0.073667
     81 H80        -5.8810   -3.9760    1.7650 hc        1 OPQ      0.073667
     82 H81        -6.8040   -2.6460    1.8750 hc        1 OPQ      0.073667
@<TRIPOS>BOND
     1    1    2 1   
     2    1   38 1   
     3    1   39 1   
     4    1   40 1   
     5    2    3 1   
     6    2   41 1   
     7    2   42 1   
     8    3    4 1   
     9    3   43 1   
    10    3   44 1   
    11    4    5 1   
    12    4   45 1   
    13    4   46 1   
    14    5    6 1   
    15    5   47 1   
    16    6    7 1   
    17    6    8 1   
    18    8    9 1   
    19    8   48 1   
    20    8   49 1   
    21    9   10 1   
    22    9   11 1   
    23    9   50 1   
    24   10   51 1   
    25   11   12 1   
    26   11   16 1   
    27   11   52 1   
    28   12   13 1   
    29   12   53 1   
    30   12   54 1   
    31   13   14 1   
    32   13   15 1   
    33   13   55 1   
    34   14   56 1   
    35   14   57 1   
    36   14   58 1   
    37   15   59 1   
    38   15   60 1   
    39   15   61 1   
    40   16   17 1   
    41   16   62 1   
    42   17   18 1   
    43   17   19 1   
    44   19   20 1   
    45   19   34 1   
    46   19   63 1   
    47   20   21 1   
    48   20   64 1   
    49   21   22 1   
    50   21   23 1   
    51   23   24 1   
    52   23   65 1   
    53   23   66 1   
    54   24   25 1   
    55   24   33 1   
    56   25   26 1   
    57   25   67 1   
    58   26   68 1   
    59   27   28 1   
    60   27   32 1   
    61   28   29 1   
    62   28   69 1   
    63   29   70 1   
    64   30   31 1   
    65   30   71 1   
    66   31   72 1   
    67   32   33 1   
    68   33   73 1   
    69   34   35 1   
    70   34   36 1   
    71   34   74 1   
    72   35   75 1   
    73   35   76 1   
    74   35   77 1   
    75   36   37 1   
    76   36   78 1   
    77   36   79 1   
    78   37   80 1   
    79   37   81 1   
    80   37   82 1   
@<TRIPOS>SUBSTRUCTURE
     1 OPQ         1 TEMP              0 ****  ****    0 ROOT
