@<TRIPOS>MOLECULE
OPQ
   85    86     1     0     0
SMALL
bcc


@<TRIPOS>ATOM
      1 C1          1.1260    0.2320    0.7020 c3        1 OPQ     -0.102100
      2 C2          2.4940    0.2980    0.0730 c3        1 OPQ     -0.078400
      3 C3          3.5330    0.7400    1.0920 c3        1 OPQ     -0.109400
      4 C4          4.8920    0.8080    0.4150 c3        1 OPQ      0.102800
      5 N5          6.0000    1.2370    1.3440 n4        1 OPQ     -0.668800
      6 C6          6.4490    0.1280    2.2490 c         1 OPQ      0.541100
      7 O7          6.9640   -0.8480    1.7190 o         1 OPQ     -0.412100
      8 C8          6.2250    0.2920    3.7290 c3        1 OPQ     -0.194400
      9 C9          7.0390   -0.7590    4.5020 c3        1 OPQ      0.137100
     10 O11         6.5000   -2.0500    4.2840 oh        1 OPQ     -0.630800
     11 C12         6.9550   -0.4740    6.0350 c3        1 OPQ      0.129500
     12 C14         7.9750    0.6130    6.3950 c3        1 OPQ     -0.117400
     13 C1A         7.8460    1.1510    7.8150 c3        1 OPQ     -0.071700
     14 C15         9.0040    2.0940    8.0890 c3        1 OPQ     -0.107600
     15 C16         6.5290    1.8670    8.0300 c3        1 OPQ     -0.107600
     16 N17         7.1970   -1.7320    6.8520 n4        1 OPQ     -0.660800
     17 C18         6.1170   -2.0880    7.8300 c         1 OPQ      0.532100
     18 O19         5.2070   -1.3030    8.0380 o         1 OPQ     -0.379100
     19 C20         6.2640   -3.4590    8.5140 c3        1 OPQ      0.060500
     20 N22         6.1740   -3.3080    9.9980 n4        1 OPQ     -0.695800
     21 C23         7.3140   -2.4790   10.5930 c         1 OPQ      0.597100
     22 O24         7.9200   -1.8120    9.7610 o         1 OPQ     -0.517100
     23 C25         7.5310   -2.5980   12.0720 c3        1 OPQ     -0.079100
     24 C26         6.6290   -3.5590   12.7460 ca        1 OPQ     -0.228300
     25 C27         6.8500   -4.9560   12.5630 ca        1 OPQ     -0.213000
     26 C28         6.0980   -5.8710   13.2520 ca        1 OPQ     -0.057000
     27 C29         5.0790   -5.4470   14.1540 ca        1 OPQ     -0.026000
     28 C30         4.3030   -6.3770   14.8890 ca        1 OPQ     -0.119000
     29 C31         3.3520   -5.9350   15.7830 ca        1 OPQ     -0.074000
     30 C32         3.1360   -4.5500   15.9730 ca        1 OPQ     -0.086000
     31 C33         3.8730   -3.6260   15.2670 ca        1 OPQ     -0.116000
     32 C34         4.8620   -4.0540   14.3440 ca        1 OPQ     -0.053000
     33 C35         5.6620   -3.1240   13.6270 ca        1 OPQ     -0.043000
     34 C36         5.1940   -4.4310    7.9460 c3        1 OPQ     -0.077700
     35 C37         5.5970   -5.8560    8.2640 c3        1 OPQ     -0.125100
     36 C38         3.7930   -4.1200    8.4520 c3        1 OPQ     -0.103400
     37 C39         2.7360   -4.7020    7.5430 c3        1 OPQ     -0.100100
     38 H40         1.1080   -0.4980    1.5460 hc        1 OPQ      0.056700
     39 H41         0.8140    1.2330    1.0890 hc        1 OPQ      0.056700
     40 H42         0.3770   -0.0950   -0.0610 hc        1 OPQ      0.056700
     41 H43         2.4770    1.0220   -0.7860 hc        1 OPQ      0.067200
     42 H44         2.7720   -0.7080   -0.3380 hc        1 OPQ      0.067200
     43 H45         3.5530    0.0100    1.9440 hc        1 OPQ      0.057200
     44 H46         3.2410    1.7440    1.5000 hc        1 OPQ      0.057200
     45 H47         4.8610    1.5650   -0.4270 hx        1 OPQ      0.130700
     46 H48         5.1770   -0.1960   -0.0160 hx        1 OPQ      0.130700
     47 H49         5.6820    2.0410    1.8970 hn        1 OPQ      0.474800
     48 H50         6.5140    1.3240    4.0650 hc        1 OPQ      0.124700
     49 H51         5.1250    0.1450    3.9330 hc        1 OPQ      0.124700
     50 H10         8.1170   -0.7220    4.1720 h1        1 OPQ      0.092700
     51 H52         6.7770   -2.3530    3.4020 ho        1 OPQ      0.474000
     52 H13         5.9100   -0.1110    6.2790 hx        1 OPQ      0.137700
     53 H53         7.8210    1.4670    5.6800 hc        1 OPQ      0.085700
     54 H54         9.0210    0.2340    6.2310 hc        1 OPQ      0.085700
     55 H55         7.9150    0.2960    8.5470 hc        1 OPQ      0.029700
     56 H56         8.9440    2.4760    9.1380 hc        1 OPQ      0.059200
     57 H57         8.9720    2.9710    7.3980 hc        1 OPQ      0.059200
     58 H58         9.9820    1.5710    7.9600 hc        1 OPQ      0.059200
     59 H59         6.3880    2.6770    7.2740 hc        1 OPQ      0.059200
     60 H60         5.6680    1.1580    7.9670 hc        1 OPQ      0.059200
     61 H61         6.5160    2.3420    9.0430 hc        1 OPQ      0.059200
     62 H62         7.3170   -2.5280    6.2040 hn        1 OPQ      0.487800
     63 H21         7.2880   -3.9000    8.3010 hx        1 OPQ      0.129700
     64 H63         5.2740   -2.8760   10.2570 hn        1 OPQ      0.499800
     65 H64         7.4280   -1.5570   12.5010 hc        1 OPQ      0.149200
     66 H65         8.6130   -2.9060   12.2100 hc        1 OPQ      0.149200
     67 H66         7.6900   -5.2910   11.9350 ha        1 OPQ      0.125000
     68 H67         6.2850   -6.9530   13.1410 ha        1 OPQ      0.164000
     69 H68         4.4810   -7.4560   14.7470 ha        1 OPQ      0.160000
     70 H69         2.7540   -6.6560   16.3660 ha        1 OPQ      0.172000
     71 H70         2.3740   -4.2200   16.7000 ha        1 OPQ      0.170000
     72 H71         3.7150   -2.5460   15.4210 ha        1 OPQ      0.152000
     73 H72         5.5050   -2.0480   13.8170 ha        1 OPQ      0.147000
     74 H73         5.2160   -4.2940    6.8250 hc        1 OPQ      0.090700
     75 H74         4.8910   -6.5590    7.7480 hc        1 OPQ      0.075367
     76 H75         5.5390   -6.0690    9.3590 hc        1 OPQ      0.075367
     77 H76         6.6290   -6.0800    7.9010 hc        1 OPQ      0.075367
     78 H77         3.6450   -3.0070    8.5120 hc        1 OPQ      0.054700
     79 H78         3.6550   -4.5430    9.4830 hc        1 OPQ      0.054700
     80 H79         2.8210   -5.8140    7.4890 hc        1 OPQ      0.065367
     81 H80         1.7200   -4.4500    7.9400 hc        1 OPQ      0.065367
     82 H81         2.8240   -4.2870    6.5100 hc        1 OPQ      0.065367
     83 H521        6.8020    1.5280    0.7630 hn        1 OPQ      0.474800
     84 H172        8.0680   -1.6050    7.3990 hn        1 OPQ      0.487800
     85 H222        6.1920   -4.2560   10.4330 hn        1 OPQ      0.499800
@<TRIPOS>BOND
     1    1    2 1   
     2    1   38 1   
     3    1   39 1   
     4    1   40 1   
     5    2    3 1   
     6    2   41 1   
     7    2   42 1   
     8    3    4 1   
     9    3   43 1   
    10    3   44 1   
    11    4    5 1   
    12    4   45 1   
    13    4   46 1   
    14    5    6 1   
    15    5   47 1   
    16    5   83 1   
    17    6    7 2   
    18    6    8 1   
    19    8    9 1   
    20    8   48 1   
    21    8   49 1   
    22    9   10 1   
    23    9   11 1   
    24    9   50 1   
    25   10   51 1   
    26   11   12 1   
    27   11   16 1   
    28   11   52 1   
    29   12   13 1   
    30   12   53 1   
    31   12   54 1   
    32   13   14 1   
    33   13   15 1   
    34   13   55 1   
    35   14   56 1   
    36   14   57 1   
    37   14   58 1   
    38   15   59 1   
    39   15   60 1   
    40   15   61 1   
    41   16   17 1   
    42   16   62 1   
    43   16   84 1   
    44   17   18 2   
    45   17   19 1   
    46   19   20 1   
    47   19   34 1   
    48   19   63 1   
    49   20   21 1   
    50   20   64 1   
    51   20   85 1   
    52   21   22 2   
    53   21   23 1   
    54   23   24 1   
    55   23   65 1   
    56   23   66 1   
    57   24   25 ar  
    58   24   33 ar  
    59   25   26 ar  
    60   25   67 1   
    61   26   27 ar  
    62   26   68 1   
    63   27   28 ar  
    64   27   32 ar  
    65   28   29 ar  
    66   28   69 1   
    67   29   30 ar  
    68   29   70 1   
    69   30   31 ar  
    70   30   71 1   
    71   31   32 ar  
    72   31   72 1   
    73   32   33 ar  
    74   33   73 1   
    75   34   35 1   
    76   34   36 1   
    77   34   74 1   
    78   35   75 1   
    79   35   76 1   
    80   35   77 1   
    81   36   37 1   
    82   36   78 1   
    83   36   79 1   
    84   37   80 1   
    85   37   81 1   
    86   37   82 1   
@<TRIPOS>SUBSTRUCTURE
     1 OPQ         1 TEMP              0 ****  ****    0 ROOT
