@<TRIPOS>MOLECULE
OPQ
   85    86     1     0     0
SMALL
bcc


@<TRIPOS>ATOM
      1 C1          1.8370    1.8640   -1.9160 c3        1 OPQ     -0.104100
      2 C2          2.4280    0.8750   -0.9430 c3        1 OPQ     -0.074400
      3 C3          3.5800    1.5050   -0.1770 c3        1 OPQ     -0.115400
      4 C4          4.1500    0.4790    0.7920 c3        1 OPQ      0.110800
      5 N5          5.3060    1.0340    1.5870 n4        1 OPQ     -0.672800
      6 C6          5.9260   -0.0060    2.4700 c         1 OPQ      0.542100
      7 O7          6.5120   -0.9280    1.9170 o         1 OPQ     -0.410100
      8 C8          5.7690    0.1530    3.9600 c3        1 OPQ     -0.194400
      9 C9          6.7120   -0.8170    4.6930 c3        1 OPQ      0.137100
     10 O11         6.2830   -2.1530    4.4980 oh        1 OPQ     -0.630800
     11 C12         6.6730   -0.5350    6.2280 c3        1 OPQ      0.129500
     12 C14         7.6100    0.6370    6.5410 c3        1 OPQ     -0.117400
     13 C1A         7.4990    1.1690    7.9650 c3        1 OPQ     -0.071700
     14 C15         8.5820    2.2110    8.1850 c3        1 OPQ     -0.107600
     15 C16         6.1360    1.7670    8.2410 c3        1 OPQ     -0.107600
     16 N17         7.0570   -1.7630    7.0340 n4        1 OPQ     -0.659800
     17 C18         6.0530   -2.2110    8.0550 c         1 OPQ      0.532100
     18 O19         5.0870   -1.5080    8.2990 o         1 OPQ     -0.379100
     19 C20         6.3480   -3.5620    8.7310 c3        1 OPQ      0.060500
     20 N22         6.3030   -3.4160   10.2170 n4        1 OPQ     -0.695800
     21 C23         7.3870   -2.4860   10.7670 c         1 OPQ      0.597100
     22 O24         7.8990   -1.7710    9.9120 o         1 OPQ     -0.517100
     23 C25         7.6720   -2.5820   12.2360 c3        1 OPQ     -0.079100
     24 C26         6.8870   -3.6170   12.9440 ca        1 OPQ     -0.228300
     25 C27         7.2250   -4.9890   12.7520 ca        1 OPQ     -0.213000
     26 C28         6.5850   -5.9660   13.4700 ca        1 OPQ     -0.058000
     27 C29         5.5680   -5.6320   14.4110 ca        1 OPQ     -0.026000
     28 C30         4.9070   -6.6260   15.1750 ca        1 OPQ     -0.119000
     29 C31         3.9560   -6.2680   16.1060 ca        1 OPQ     -0.074000
     30 C32         3.6240   -4.9070   16.3050 ca        1 OPQ     -0.086000
     31 C33         4.2480   -3.9220   15.5710 ca        1 OPQ     -0.116000
     32 C34         5.2350   -4.2640   14.6100 ca        1 OPQ     -0.053000
     33 C35         5.9200   -3.2680   13.8640 ca        1 OPQ     -0.044000
     34 C36         5.3460   -4.6260    8.2040 c3        1 OPQ     -0.077700
     35 C37         5.8840   -6.0090    8.5050 c3        1 OPQ     -0.125100
     36 C38         3.9430   -4.4380    8.7660 c3        1 OPQ     -0.103400
     37 C39         2.9070   -5.1120    7.8990 c3        1 OPQ     -0.100100
     38 H40         2.6010    2.1960   -2.6600 hc        1 OPQ      0.061367
     39 H41         0.9920    1.3860   -2.4710 hc        1 OPQ      0.061367
     40 H42         1.4440    2.7630   -1.3830 hc        1 OPQ      0.061367
     41 H43         2.7930   -0.0290   -1.4990 hc        1 OPQ      0.057700
     42 H44         1.6370    0.5340   -0.2230 hc        1 OPQ      0.057700
     43 H45         3.2080    2.4090    0.3740 hc        1 OPQ      0.077200
     44 H46         4.3650    1.8410   -0.9070 hc        1 OPQ      0.077200
     45 H47         4.5320   -0.4210    0.2270 hx        1 OPQ      0.113700
     46 H48         3.3590    0.1510    1.5250 hx        1 OPQ      0.113700
     47 H49         6.0160    1.3700    0.9150 hn        1 OPQ      0.473300
     48 H50         4.7000   -0.0830    4.2290 hc        1 OPQ      0.124700
     49 H51         5.9900    1.2100    4.2720 hc        1 OPQ      0.124700
     50 H10         7.7650   -0.6820    4.3120 h1        1 OPQ      0.093700
     51 H52         6.5560   -2.4360    3.6090 ho        1 OPQ      0.474000
     52 H13         5.6120   -0.2620    6.5190 hx        1 OPQ      0.137700
     53 H53         7.3510    1.4720    5.8340 hc        1 OPQ      0.085700
     54 H54         8.6760    0.3490    6.3300 hc        1 OPQ      0.085700
     55 H55         7.6770    0.3260    8.6930 hc        1 OPQ      0.029700
     56 H56         8.5370    2.5900    9.2360 hc        1 OPQ      0.059033
     57 H57         8.4400    3.0790    7.4960 hc        1 OPQ      0.059033
     58 H58         9.5950    1.7750    8.0100 hc        1 OPQ      0.059033
     59 H59         5.8890    2.5570    7.4910 hc        1 OPQ      0.059033
     60 H60         5.3390    0.9840    8.2190 hc        1 OPQ      0.059033
     61 H61         6.1280    2.2440    9.2530 hc        1 OPQ      0.059033
     62 H62         7.2220   -2.5480    6.3810 hn        1 OPQ      0.487800
     63 H21         7.3980   -3.9120    8.4770 hx        1 OPQ      0.129700
     64 H63         5.3790   -3.0650   10.5120 hn        1 OPQ      0.499800
     65 H64         8.7820   -2.7910   12.3310 hc        1 OPQ      0.149200
     66 H65         7.4930   -1.5520   12.6700 hc        1 OPQ      0.149200
     67 H66         8.0660   -5.2500   12.0920 ha        1 OPQ      0.125000
     68 H67         6.8630   -7.0270   13.3510 ha        1 OPQ      0.164000
     69 H68         5.1750   -7.6840   15.0250 ha        1 OPQ      0.160000
     70 H69         3.4480   -7.0380   16.7110 ha        1 OPQ      0.172000
     71 H70         2.8660   -4.6450   17.0620 ha        1 OPQ      0.170000
     72 H71         4.0000   -2.8610   15.7330 ha        1 OPQ      0.152000
     73 H72         5.6750   -2.2100   14.0600 ha        1 OPQ      0.147000
     74 H73         5.3110   -4.4900    7.0840 hc        1 OPQ      0.090700
     75 H74         5.2230   -6.7730    8.0170 hc        1 OPQ      0.075367
     76 H75         5.8890   -6.2230    9.6010 hc        1 OPQ      0.075367
     77 H76         6.9170   -6.1420    8.1020 hc        1 OPQ      0.075367
     78 H77         3.8840   -4.8690    9.8010 hc        1 OPQ      0.054700
     79 H78         3.7010   -3.3420    8.8320 hc        1 OPQ      0.054700
     80 H79         3.0870   -6.2130    7.8400 hc        1 OPQ      0.065367
     81 H80         1.8900   -4.9500    8.3350 hc        1 OPQ      0.065367
     82 H81         2.9170   -4.6940    6.8640 hc        1 OPQ      0.065367
     83 H521        4.9820    1.8350    2.1400 hn        1 OPQ      0.473300
     84 H172        7.9340   -1.5580    7.5460 hn        1 OPQ      0.487800
     85 H222        6.4230   -4.3570   10.6500 hn        1 OPQ      0.499800
@<TRIPOS>BOND
     1    1    2 1   
     2    1   38 1   
     3    1   39 1   
     4    1   40 1   
     5    2    3 1   
     6    2   41 1   
     7    2   42 1   
     8    3    4 1   
     9    3   43 1   
    10    3   44 1   
    11    4    5 1   
    12    4   45 1   
    13    4   46 1   
    14    5    6 1   
    15    5   47 1   
    16    5   83 1   
    17    6    7 2   
    18    6    8 1   
    19    8    9 1   
    20    8   48 1   
    21    8   49 1   
    22    9   10 1   
    23    9   11 1   
    24    9   50 1   
    25   10   51 1   
    26   11   12 1   
    27   11   16 1   
    28   11   52 1   
    29   12   13 1   
    30   12   53 1   
    31   12   54 1   
    32   13   14 1   
    33   13   15 1   
    34   13   55 1   
    35   14   56 1   
    36   14   57 1   
    37   14   58 1   
    38   15   59 1   
    39   15   60 1   
    40   15   61 1   
    41   16   17 1   
    42   16   62 1   
    43   16   84 1   
    44   17   18 2   
    45   17   19 1   
    46   19   20 1   
    47   19   34 1   
    48   19   63 1   
    49   20   21 1   
    50   20   64 1   
    51   20   85 1   
    52   21   22 2   
    53   21   23 1   
    54   23   24 1   
    55   23   65 1   
    56   23   66 1   
    57   24   25 ar  
    58   24   33 ar  
    59   25   26 ar  
    60   25   67 1   
    61   26   27 ar  
    62   26   68 1   
    63   27   28 ar  
    64   27   32 ar  
    65   28   29 ar  
    66   28   69 1   
    67   29   30 ar  
    68   29   70 1   
    69   30   31 ar  
    70   30   71 1   
    71   31   32 ar  
    72   31   72 1   
    73   32   33 ar  
    74   33   73 1   
    75   34   35 1   
    76   34   36 1   
    77   34   74 1   
    78   35   75 1   
    79   35   76 1   
    80   35   77 1   
    81   36   37 1   
    82   36   78 1   
    83   36   79 1   
    84   37   80 1   
    85   37   81 1   
    86   37   82 1   
@<TRIPOS>SUBSTRUCTURE
     1 OPQ         1 TEMP              0 ****  ****    0 ROOT
