@<TRIPOS>MOLECULE
OPQ
   82    83     1     0     0
SMALL
bcc


@<TRIPOS>ATOM
      1 C1          6.0320    2.1340    6.2890 c3        1 OPQ     -0.093100
      2 C2          4.8370    1.3290    6.7290 c3        1 OPQ     -0.078400
      3 C3          3.9630    0.9500    5.5520 c3        1 OPQ     -0.105400
      4 C4          2.7610    0.1350    6.0340 c3        1 OPQ      0.084000
      5 N5          1.8890   -0.3180    4.9870 n         1 OPQ     -0.566900
      6 C6          0.6210    0.1990    4.7950 c         1 OPQ      0.662100
      7 O7          0.1210    1.0040    5.6080 o         1 OPQ     -0.613100
      8 C8         -0.1360   -0.2590    3.5610 c3        1 OPQ     -0.190400
      9 C9         -1.6360   -0.3430    3.8280 c3        1 OPQ      0.134100
     10 O11        -2.0240   -1.6340    4.2560 oh        1 OPQ     -0.588800
     11 C12        -2.4490    0.1190    2.5830 c3        1 OPQ      0.062700
     12 C14        -3.9250    0.2150    2.9990 c3        1 OPQ     -0.091400
     13 C1A        -4.8310    0.8320    1.9450 c3        1 OPQ     -0.069700
     14 C15        -6.2800    0.6280    2.3430 c3        1 OPQ     -0.092100
     15 C16        -4.5470    2.3080    1.7610 c3        1 OPQ     -0.092100
     16 N17        -2.2410   -0.7410    1.4360 n         1 OPQ     -0.560900
     17 C18        -1.4060   -0.3910    0.3970 c         1 OPQ      0.630100
     18 O19        -0.6350    0.5890    0.4770 o         1 OPQ     -0.623100
     19 C20        -1.4150   -1.3140   -0.8530 c3        1 OPQ      0.039700
     20 N22        -1.1610   -0.5620   -2.0510 n         1 OPQ     -0.548900
     21 C23        -2.1620   -0.2420   -2.9480 c         1 OPQ      0.664100
     22 O24        -3.3060   -0.7300   -2.8470 o         1 OPQ     -0.616100
     23 C25        -1.8330    0.7280   -4.0710 c3        1 OPQ     -0.108100
     24 C26        -0.4410    0.6270   -4.5840 ca        1 OPQ     -0.090300
     25 C27        -0.1610   -0.2570   -5.6610 ca        1 OPQ     -0.119000
     26 C28         1.1100   -0.3570   -6.1680 ca        1 OPQ     -0.113000
     27 C29         2.1710    0.4210   -5.6260 ca        1 OPQ     -0.035000
     28 C30         3.4960    0.3370   -6.1330 ca        1 OPQ     -0.118000
     29 C31         4.4990    1.1020   -5.5900 ca        1 OPQ     -0.124000
     30 C32         4.2240    1.9850   -4.5180 ca        1 OPQ     -0.125000
     31 C33         2.9530    2.0860   -4.0090 ca        1 OPQ     -0.117000
     32 C34         1.8950    1.3050   -4.5520 ca        1 OPQ     -0.037000
     33 C35         0.5710    1.3910   -4.0450 ca        1 OPQ     -0.119000
     34 C36        -0.3960   -2.4510   -0.6000 c3        1 OPQ     -0.064700
     35 C37        -0.6260   -3.5770   -1.5860 c3        1 OPQ     -0.092100
     36 C38         1.0420   -1.9580   -0.6490 c3        1 OPQ     -0.092400
     37 C39         1.9760   -2.8630    0.1130 c3        1 OPQ     -0.090100
     38 H40         6.6620    2.4050    7.1700 hc        1 OPQ      0.033700
     39 H41         6.6600    1.5500    5.5730 hc        1 OPQ      0.033700
     40 H42         5.7090    3.0760    5.7830 hc        1 OPQ      0.033700
     41 H43         5.1810    0.4010    7.2560 hc        1 OPQ      0.042200
     42 H44         4.2330    1.9230    7.4650 hc        1 OPQ      0.042200
     43 H45         3.6130    1.8770    5.0290 hc        1 OPQ      0.043700
     44 H46         4.5640    0.3560    4.8150 hc        1 OPQ      0.043700
     45 H47         3.1410   -0.7750    6.5850 h1        1 OPQ      0.062700
     46 H48         2.1620    0.7570    6.7610 h1        1 OPQ      0.062700
     47 H49         2.3020   -0.8460    4.2560 hn        1 OPQ      0.302500
     48 H50         0.0660    0.4970    2.7520 hc        1 OPQ      0.080200
     49 H51         0.2350   -1.2520    3.1970 hc        1 OPQ      0.080200
     50 H10        -1.9140    0.3270    4.6970 h1        1 OPQ      0.116700
     51 H52        -1.7530   -2.2660    3.5790 ho        1 OPQ      0.394000
     52 H13        -2.0770    1.1560    2.3180 h1        1 OPQ      0.088700
     53 H53        -4.2970   -0.8090    3.2680 hc        1 OPQ      0.059700
     54 H54        -3.9730    0.8390    3.9310 hc        1 OPQ      0.059700
     55 H55        -4.6660    0.3140    0.9590 hc        1 OPQ      0.046700
     56 H56        -6.9570    1.0740    1.5750 hc        1 OPQ      0.036367
     57 H57        -6.5130   -0.4610    2.4310 hc        1 OPQ      0.036367
     58 H58        -6.4890    1.1150    3.3260 hc        1 OPQ      0.036367
     59 H59        -4.6710    2.8560    2.7270 hc        1 OPQ      0.036367
     60 H60        -3.5050    2.4680    1.3950 hc        1 OPQ      0.036367
     61 H61        -5.2530    2.7440    1.0140 hc        1 OPQ      0.036367
     62 H62        -2.9280   -1.4410    1.2790 hn        1 OPQ      0.311500
     63 H21        -2.4410   -1.7860   -0.9620 h1        1 OPQ      0.098700
     64 H63        -0.2920   -0.0770   -2.0960 hn        1 OPQ      0.329500
     65 H64        -2.5660    0.5340   -4.9010 hc        1 OPQ      0.085700
     66 H65        -2.0300    1.7630   -3.6780 hc        1 OPQ      0.085700
     67 H66        -0.9810   -0.8580   -6.0820 ha        1 OPQ      0.139000
     68 H67         1.3300   -1.0390   -7.0030 ha        1 OPQ      0.136000
     69 H68         3.6990   -0.3520   -6.9670 ha        1 OPQ      0.134000
     70 H69         5.5250    1.0400   -5.9810 ha        1 OPQ      0.134000
     71 H70         5.0440    2.5880   -4.1000 ha        1 OPQ      0.135000
     72 H71         2.7300    2.7690   -3.1760 ha        1 OPQ      0.136000
     73 H72         0.3700    2.0870   -3.2150 ha        1 OPQ      0.139000
     74 H73        -0.6070   -2.8400    0.4380 hc        1 OPQ      0.051700
     75 H74        -0.4410   -3.2340   -2.6320 hc        1 OPQ      0.042033
     76 H75         0.0680   -4.4240   -1.3650 hc        1 OPQ      0.042033
     77 H76        -1.6760   -3.9510   -1.5170 hc        1 OPQ      0.042033
     78 H77         1.3780   -1.8880   -1.7180 hc        1 OPQ      0.055200
     79 H78         1.0950   -0.9230   -0.2130 hc        1 OPQ      0.055200
     80 H79         3.0230   -2.4790    0.0420 hc        1 OPQ      0.033367
     81 H80         1.6900   -2.9090    1.1920 hc        1 OPQ      0.033367
     82 H81         1.9530   -3.9000   -0.3000 hc        1 OPQ      0.033367
@<TRIPOS>BOND
     1    1    2 1   
     2    1   38 1   
     3    1   39 1   
     4    1   40 1   
     5    2    3 1   
     6    2   41 1   
     7    2   42 1   
     8    3    4 1   
     9    3   43 1   
    10    3   44 1   
    11    4    5 1   
    12    4   45 1   
    13    4   46 1   
    14    5    6 1   
    15    5   47 1   
    16    6    7 2   
    17    6    8 1   
    18    8    9 1   
    19    8   48 1   
    20    8   49 1   
    21    9   10 1   
    22    9   11 1   
    23    9   50 1   
    24   10   51 1   
    25   11   12 1   
    26   11   16 1   
    27   11   52 1   
    28   12   13 1   
    29   12   53 1   
    30   12   54 1   
    31   13   14 1   
    32   13   15 1   
    33   13   55 1   
    34   14   56 1   
    35   14   57 1   
    36   14   58 1   
    37   15   59 1   
    38   15   60 1   
    39   15   61 1   
    40   16   17 1   
    41   16   62 1   
    42   17   18 2   
    43   17   19 1   
    44   19   20 1   
    45   19   34 1   
    46   19   63 1   
    47   20   21 1   
    48   20   64 1   
    49   21   22 2   
    50   21   23 1   
    51   23   24 1   
    52   23   65 1   
    53   23   66 1   
    54   24   25 ar  
    55   24   33 ar  
    56   25   26 ar  
    57   25   67 1   
    58   26   27 ar  
    59   26   68 1   
    60   27   28 ar  
    61   27   32 ar  
    62   28   29 ar  
    63   28   69 1   
    64   29   30 ar  
    65   29   70 1   
    66   30   31 ar  
    67   30   71 1   
    68   31   32 ar  
    69   31   72 1   
    70   32   33 ar  
    71   33   73 1   
    72   34   35 1   
    73   34   36 1   
    74   34   74 1   
    75   35   75 1   
    76   35   76 1   
    77   35   77 1   
    78   36   37 1   
    79   36   78 1   
    80   36   79 1   
    81   37   80 1   
    82   37   81 1   
    83   37   82 1   
@<TRIPOS>SUBSTRUCTURE
     1 OPQ         1 TEMP              0 ****  ****    0 ROOT
