@<TRIPOS>MOLECULE
OPQ
   85    86     1     0     0
SMALL
bcc


@<TRIPOS>ATOM
      1 C1          1.1310    0.0970    0.6620 c3        1 OPQ     -0.102100
      2 C2          2.5000    0.2100    0.0420 c3        1 OPQ     -0.078400
      3 C3          3.5170    0.6860    1.0670 c3        1 OPQ     -0.109400
      4 C4          4.8770    0.8010    0.3990 c3        1 OPQ      0.102800
      5 N5          5.9640    1.2680    1.3360 ny        1 OPQ     -0.668800
      6 C6          6.4440    0.1740    2.2440 c         1 OPQ      0.541100
      7 O7          7.0010   -0.7810    1.7180 o         1 OPQ     -0.412100
      8 C8          6.1990    0.3270    3.7220 c3        1 OPQ     -0.194400
      9 C9          7.0430   -0.6940    4.5020 c3        1 OPQ      0.137100
     10 O11         6.5560   -2.0040    4.2750 oh        1 OPQ     -0.630800
     11 C12         6.9320   -0.4160    6.0350 c3        1 OPQ      0.129500
     12 C14         7.9060    0.7080    6.4080 c3        1 OPQ     -0.117400
     13 C1A         7.7410    1.2380    7.8270 c3        1 OPQ     -0.071700
     14 C15         8.8590    2.2240    8.1150 c3        1 OPQ     -0.107600
     15 C16         6.3950    1.9010    8.0290 c3        1 OPQ     -0.107600
     16 N17         7.2120   -1.6650    6.8520 ny        1 OPQ     -0.660800
     17 C18         6.1340   -2.0670    7.8160 c         1 OPQ      0.532100
     18 O19         5.1910   -1.3170    8.0120 o         1 OPQ     -0.379100
     19 C20         6.3260   -3.4320    8.4980 c3        1 OPQ      0.060500
     20 N22         6.2090   -3.2890    9.9810 ny        1 OPQ     -0.695800
     21 C23         7.3070   -2.4160   10.5930 c         1 OPQ      0.597100
     22 O24         7.8980   -1.7250    9.7710 o         1 OPQ     -0.517100
     23 C25         7.5080   -2.5300   12.0750 c3        1 OPQ     -0.079100
     24 C26         6.6360   -3.5270   12.7350 ca        1 OPQ     -0.228300
     25 C27         6.9140   -4.9130   12.5530 ca        1 OPQ     -0.213000
     26 C28         6.1890   -5.8590   13.2300 ca        1 OPQ     -0.058000
     27 C29         5.1420   -5.4780   14.1180 ca        1 OPQ     -0.026000
     28 C30         4.3930   -6.4400   14.8410 ca        1 OPQ     -0.119000
     29 C31         3.4120   -6.0370   15.7210 ca        1 OPQ     -0.074000
     30 C32         3.1390   -4.6620   15.9100 ca        1 OPQ     -0.086000
     31 C33         3.8490   -3.7080   15.2160 ca        1 OPQ     -0.116000
     32 C34         4.8670   -4.0960   14.3060 ca        1 OPQ     -0.053000
     33 C35         5.6390   -3.1320   13.6030 ca        1 OPQ     -0.044000
     34 C36         5.3020   -4.4440    7.9130 c3        1 OPQ     -0.077700
     35 C37         5.7560   -5.8530    8.2350 c3        1 OPQ     -0.125100
     36 C38         3.8830   -4.1890    8.4010 c3        1 OPQ     -0.103400
     37 C39         2.8630   -4.8090    7.4760 c3        1 OPQ     -0.100100
     38 H40         0.3990   -0.2560   -0.1070 hc        1 OPQ      0.056700
     39 H41         1.1330   -0.6350    1.5050 hc        1 OPQ      0.056700
     40 H42         0.7830    1.0860    1.0470 hc        1 OPQ      0.056700
     41 H43         2.4650    0.9330   -0.8170 hc        1 OPQ      0.067200
     42 H44         2.8160   -0.7860   -0.3680 hc        1 OPQ      0.067200
     43 H45         3.1880    1.6800    1.4740 hc        1 OPQ      0.057200
     44 H46         3.5560   -0.0430    1.9190 hc        1 OPQ      0.057200
     45 H47         5.2000   -0.1930   -0.0290 hx        1 OPQ      0.130700
     46 H48         4.8260    1.5570   -0.4420 hx        1 OPQ      0.130700
     47 H49         5.6150    2.0600    1.8870 hn        1 OPQ      0.474800
     48 H50         5.1030    0.1390    3.9140 hc        1 OPQ      0.124700
     49 H51         6.4450    1.3690    4.0630 hc        1 OPQ      0.124700
     50 H10         8.1230   -0.6160    4.1840 h1        1 OPQ      0.092700
     51 H52         6.8530   -2.2950    3.3970 ho        1 OPQ      0.474000
     52 H13         5.8710   -0.0940    6.2670 hx        1 OPQ      0.137700
     53 H53         7.7280    1.5570    5.6930 hc        1 OPQ      0.085700
     54 H54         8.9670    0.3690    6.2550 hc        1 OPQ      0.085700
     55 H55         7.8350    0.3840    8.5580 hc        1 OPQ      0.029700
     56 H56         8.7730    2.6000    9.1640 hc        1 OPQ      0.059033
     57 H57         8.8000    3.1000    7.4250 hc        1 OPQ      0.059033
     58 H58         9.8580    1.7390    7.9950 hc        1 OPQ      0.059033
     59 H59         6.3530    2.3740    9.0430 hc        1 OPQ      0.059033
     60 H60         6.2300    2.7070    7.2730 hc        1 OPQ      0.059033
     61 H61         5.5630    1.1600    7.9570 hc        1 OPQ      0.059033
     62 H62         8.0700   -1.5060    7.4100 hn        1 OPQ      0.487800
     63 H21         7.3690   -3.8320    8.2990 hx        1 OPQ      0.129700
     64 H63         5.2890   -2.8930   10.2290 hn        1 OPQ      0.499800
     65 H64         7.3580   -1.4940   12.5040 hc        1 OPQ      0.149200
     66 H65         8.6000   -2.7950   12.2280 hc        1 OPQ      0.149200
     67 H66         7.7760   -5.2140   11.9370 ha        1 OPQ      0.125000
     68 H67         6.4200   -6.9330   13.1200 ha        1 OPQ      0.164000
     69 H68         4.6150   -7.5100   14.6990 ha        1 OPQ      0.160000
     70 H69         2.8350   -6.7830   16.2950 ha        1 OPQ      0.172000
     71 H70         2.3550   -4.3640   16.6270 ha        1 OPQ      0.170000
     72 H71         3.6460   -2.6360   15.3700 ha        1 OPQ      0.152000
     73 H72         5.4380   -2.0640   13.7920 ha        1 OPQ      0.147000
     74 H73         5.3340   -4.3030    6.7940 hc        1 OPQ      0.090700
     75 H74         6.8010   -6.0350    7.8860 hc        1 OPQ      0.075367
     76 H75         5.0860   -6.5820    7.7080 hc        1 OPQ      0.075367
     77 H76         5.6910   -6.0710    9.3280 hc        1 OPQ      0.075367
     78 H77         3.6910   -3.0830    8.4600 hc        1 OPQ      0.054700
     79 H78         3.7480   -4.6200    9.4290 hc        1 OPQ      0.054700
     80 H79         2.9920   -5.9180    7.4220 hc        1 OPQ      0.065367
     81 H80         2.9480   -4.3900    6.4460 hc        1 OPQ      0.065367
     82 H81         1.8330   -4.5990    7.8590 hc        1 OPQ      0.065367
     83 H521        6.7600    1.5860    0.7600 hn        1 OPQ      0.474800
     84 H172        7.3710   -2.4550    6.2040 hn        1 OPQ      0.487800
     85 H222        6.2590   -4.2360   10.4140 hn        1 OPQ      0.499800
@<TRIPOS>BOND
     1    1    2 1   
     2    1   38 1   
     3    1   39 1   
     4    1   40 1   
     5    2    3 1   
     6    2   41 1   
     7    2   42 1   
     8    3    4 1   
     9    3   43 1   
    10    3   44 1   
    11    4    5 1   
    12    4   45 1   
    13    4   46 1   
    14    5    6 1   
    15    5   47 1   
    16    5   83 1   
    17    6    7 2   
    18    6    8 1   
    19    8    9 1   
    20    8   48 1   
    21    8   49 1   
    22    9   10 1   
    23    9   11 1   
    24    9   50 1   
    25   10   51 1   
    26   11   12 1   
    27   11   16 1   
    28   11   52 1   
    29   12   13 1   
    30   12   53 1   
    31   12   54 1   
    32   13   14 1   
    33   13   15 1   
    34   13   55 1   
    35   14   56 1   
    36   14   57 1   
    37   14   58 1   
    38   15   59 1   
    39   15   60 1   
    40   15   61 1   
    41   16   17 1   
    42   16   62 1   
    43   16   84 1   
    44   17   18 2   
    45   17   19 1   
    46   19   20 1   
    47   19   34 1   
    48   19   63 1   
    49   20   21 1   
    50   20   64 1   
    51   20   85 1   
    52   21   22 2   
    53   21   23 1   
    54   23   24 1   
    55   23   65 1   
    56   23   66 1   
    57   24   25 ar  
    58   24   33 ar  
    59   25   26 ar  
    60   25   67 1   
    61   26   27 ar  
    62   26   68 1   
    63   27   28 ar  
    64   27   32 ar  
    65   28   29 ar  
    66   28   69 1   
    67   29   30 ar  
    68   29   70 1   
    69   30   31 ar  
    70   30   71 1   
    71   31   32 ar  
    72   31   72 1   
    73   32   33 ar  
    74   33   73 1   
    75   34   35 1   
    76   34   36 1   
    77   34   74 1   
    78   35   75 1   
    79   35   76 1   
    80   35   77 1   
    81   36   37 1   
    82   36   78 1   
    83   36   79 1   
    84   37   80 1   
    85   37   81 1   
    86   37   82 1   
@<TRIPOS>SUBSTRUCTURE
     1 OPQ         1 TEMP              0 ****  ****    0 ROOT
