@<TRIPOS>MOLECULE
OPR
   33    31     1     0     0
SMALL
bcc


@<TRIPOS>ATOM
      1 N          -2.2360   -0.4380   -0.9840 n3        1 OPR     -0.886800
      2 CA         -0.8130   -0.3380   -1.0230 c3        1 OPR      0.056500
      3 CB         -0.2600   -0.3740    0.4080 c3        1 OPR     -0.057400
      4 CG         -0.4580    0.9630    1.0600 c3        1 OPR     -0.113400
      5 CD          0.0670    0.9180    2.4970 c3        1 OPR      0.143800
      6 NE         -0.0580    2.2320    3.0900 nh        1 OPR     -0.761000
      7 CZ          0.3090    2.4390    4.4340 c2        1 OPR      0.315000
      8 NH1        -0.5210    2.1070    5.4050 n1        1 OPR     -0.358000
      9 NH2         1.5700    3.0090    4.7430 nh        1 OPR     -0.829600
     10 C          -0.2530   -1.4920   -1.7970 c         1 OPR      0.544100
     11 O          -0.1640   -2.5800   -1.2760 o         1 OPR     -0.589100
     12 C1          0.2610   -1.2830   -3.2670 c3        1 OPR     -0.165400
     13 C2          0.6850   -2.6420   -3.8580 c3        1 OPR     -0.177400
     14 C3          1.2920   -2.4290   -5.2300 c         1 OPR      0.895600
     15 O3          0.5740   -2.5510   -6.2640 o         1 OPR     -0.853800
     16 H          -2.6030    0.1760   -1.5560 hn        1 OPR      0.336800
     17 H2         -2.4970   -1.3090   -1.2470 hn        1 OPR      0.336800
     18 HA         -0.5490    0.5230   -1.4640 h1        1 OPR      0.114700
     19 HB2         0.7200   -0.5940    0.3810 hc        1 OPR      0.052700
     20 HB3        -0.7360   -1.0620    0.9230 hc        1 OPR      0.052700
     21 HG2        -1.4370    1.1900    1.0690 hc        1 OPR      0.058700
     22 HG3         0.0280    1.6420    0.5600 hc        1 OPR      0.058700
     23 HD2        -0.4560    0.2730    3.0170 h1        1 OPR      0.064700
     24 HD3         1.0170    0.6440    2.4940 h1        1 OPR      0.064700
     25 HE         -0.4320    2.9420    2.5880 hn        1 OPR      0.363800
     26 HH1        -1.3520    1.7320    5.2020 DU        1 OPR      0.131000
     27 HH21        1.6140    3.8280    5.1510 hn        1 OPR      0.426300
     28 HH22        2.3570    2.5250    4.5780 hn        1 OPR      0.426300
     29 H11         1.0320   -0.6700   -3.2610 hc        1 OPR      0.060200
     30 H12        -0.4600   -0.8980   -3.8160 hc        1 OPR      0.060200
     31 H21         1.3400   -3.0580   -3.2750 hc        1 OPR      0.040200
     32 H22        -0.1030   -3.2250   -3.9360 hc        1 OPR      0.040200
     33 O31         2.5240   -2.2020   -5.3430 o         1 OPR     -0.853800
@<TRIPOS>BOND
     1    1    2 1   
     2    1   16 1   
     3    1   17 1   
     4    2    3 1   
     5    2   10 1   
     6    2   18 1   
     7    3    4 1   
     8    3   19 1   
     9    3   20 1   
    10    4    5 1   
    11    4   21 1   
    12    4   22 1   
    13    5    6 1   
    14    5   23 1   
    15    5   24 1   
    16    6    7 1   
    17    6   25 1   
    18    7    8 2   
    19    7    9 1   
    20    9   27 1   
    21    9   28 1   
    22   10   11 2   
    23   10   12 1   
    24   12   13 1   
    25   12   29 1   
    26   12   30 1   
    27   13   14 1   
    28   13   31 1   
    29   13   32 1   
    30   14   15 1   
    31   14   33 1   
@<TRIPOS>SUBSTRUCTURE
     1 OPR         1 TEMP              0 ****  ****    0 ROOT
