@<TRIPOS>MOLECULE
OPR
   33    32     1     0     0
SMALL
bcc


@<TRIPOS>ATOM
      1 N           0.3880    2.8650    1.5830 n3        1 OPR     -0.889800
      2 CA          0.4580    1.7540    0.6520 c3        1 OPR      0.045500
      3 CB         -0.4070    1.9880   -0.5980 c3        1 OPR     -0.055400
      4 CG         -1.8780    1.7160   -0.3480 c3        1 OPR     -0.076400
      5 CD         -2.0860    0.2330   -0.0510 c3        1 OPR      0.134800
      6 NE         -3.4570   -0.2350   -0.1170 nh        1 OPR     -0.798200
      7 CZ         -3.5810   -1.6480   -0.3940 c2        1 OPR      0.753100
      8 NH1        -4.5690   -2.0350   -1.1750 n2        1 OPR     -0.926100
      9 NH2        -2.7130   -2.5490    0.3090 nh        1 OPR     -0.910800
     10 C           1.8890    1.4370    0.1920 c         1 OPR      0.541100
     11 O           2.6330    2.3350   -0.2280 o         1 OPR     -0.587100
     12 C1          2.3570    0.0220    0.3550 c3        1 OPR     -0.169400
     13 C2          1.7290   -0.9450   -0.6250 c3        1 OPR     -0.179400
     14 C3          0.4910   -1.6680   -0.0860 c         1 OPR      0.900600
     15 O3          0.0840   -1.4460    1.0960 o         1 OPR     -0.855800
     16 H           0.8920    2.6370    2.4180 hn        1 OPR      0.340300
     17 H2          0.8020    3.6830    1.1740 hn        1 OPR      0.340300
     18 HA          0.0750    0.8240    1.1870 h1        1 OPR      0.137700
     19 HB2        -0.2800    3.0410   -0.9630 hc        1 OPR      0.042700
     20 HB3        -0.0360    1.3050   -1.4090 hc        1 OPR      0.042700
     21 HG2        -2.2430    2.3350    0.5110 hc        1 OPR      0.037700
     22 HG3        -2.4570    2.0230   -1.2590 hc        1 OPR      0.037700
     23 HD2        -1.4180   -0.3580   -0.7490 h1        1 OPR      0.078200
     24 HD3        -1.7250    0.0220    1.0010 h1        1 OPR      0.078200
     25 HE         -4.0250    0.3190   -0.7280 hn        1 OPR      0.381800
     26 HH1        -4.6670   -3.0230   -1.2550 hn        1 OPR      0.375400
     27 HH21       -2.2350   -3.1590   -0.3320 hn        1 OPR      0.414300
     28 HH22       -2.0150   -2.0980    0.8800 hn        1 OPR      0.414300
     29 H11         3.4740    0.0020    0.2410 hc        1 OPR      0.063700
     30 H12         2.1000   -0.3140    1.3990 hc        1 OPR      0.063700
     31 H21         1.4420   -0.4220   -1.5720 hc        1 OPR      0.039700
     32 H22         2.4810   -1.7310   -0.8920 hc        1 OPR      0.039700
     33 O31        -0.1130   -2.4610   -0.8670 o         1 OPR     -0.855800
@<TRIPOS>BOND
     1    1    2 1   
     2    1   16 1   
     3    1   17 1   
     4    2    3 1   
     5    2   10 1   
     6    2   18 1   
     7    3    4 1   
     8    3   19 1   
     9    3   20 1   
    10    4    5 1   
    11    4   21 1   
    12    4   22 1   
    13    5    6 1   
    14    5   23 1   
    15    5   24 1   
    16    6    7 1   
    17    6   25 1   
    18    7    8 2   
    19    7    9 1   
    20    8   26 1   
    21    9   27 1   
    22    9   28 1   
    23   10   11 2   
    24   10   12 1   
    25   12   13 1   
    26   12   29 1   
    27   12   30 1   
    28   13   14 1   
    29   13   31 1   
    30   13   32 1   
    31   14   15 1   
    32   14   33 1   
@<TRIPOS>SUBSTRUCTURE
     1 OPR         1 TEMP              0 ****  ****    0 ROOT
