@<TRIPOS>MOLECULE
OPY
   32    29     1     0     0
SMALL
bcc


@<TRIPOS>ATOM
      1 C           0.2240    0.4670    0.1770 c         1 OPY      0.698700
      2 N           2.1340    2.0340   -2.5480 n3        1 OPY     -1.004400
      3 O          -0.0300    1.0480   -0.8970 o         1 OPY     -0.587100
      4 CA          1.6230    0.3450    0.6460 ce        1 OPY     -0.230200
      5 CB          1.9900    0.0910    1.9050 c2        1 OPY     -0.129200
      6 CAD         3.4310   -0.0360    2.3040 c3        1 OPY      0.169000
      7 CAE        -2.5180   -2.7210   -0.6510 c3        1 OPY     -0.098100
      8 CAF        -2.1410   -1.2630   -0.7080 c3        1 OPY     -0.190700
      9 CAG         0.5760   -4.8090   -0.1480 c2        1 OPY     -0.219500
     10 CAI        -1.7920   -0.7370    0.6500 c2        1 OPY      0.522200
     11 CAJ        -0.0910   -5.1070    0.9590 c2        1 OPY     -0.219500
     12 NAM        -0.7990   -0.0220    1.0300 ne        1 OPY     -0.681100
     13 HN          1.8460    2.3800   -1.6540 hn        1 OPY      0.334133
     14 HNA         1.8920    2.7120   -3.2400 hn        1 OPY      0.334133
     15 HA          1.6110    1.2000   -2.7290 hn        1 OPY      0.334133
     16 HB          2.3630    0.5120   -0.1580 ha        1 OPY      0.160000
     17 HBA         1.2520   -0.0530    2.7130 ha        1 OPY      0.140000
     18 HNAA        3.2490   -0.0260    4.3260 hn        1 OPY      0.350800
     19 HNAB        3.6560    1.4210    3.6970 hn        1 OPY      0.350800
     20 HAD         4.0830    0.5030    1.5580 h1        1 OPY      0.068700
     21 HADA        3.6960   -1.1350    2.2490 h1        1 OPY      0.068700
     22 HAEA        0.1260   -4.8760   -1.1480 ha        1 OPY      0.110500
     23 HAF        -3.3720   -2.8850    0.0490 hc        1 OPY      0.042367
     24 HAFA       -3.0080   -0.6560   -1.0890 hc        1 OPY      0.073200
     25 HAG        -2.8220   -3.0730   -1.6670 hc        1 OPY      0.042367
     26 HAGA        1.6240   -4.4800   -0.1390 ha        1 OPY      0.110500
     27 HAI        -1.2940   -1.1090   -1.4310 hc        1 OPY      0.073200
     28 HAIA       -2.5070   -1.0220    1.4540 h4        1 OPY      0.016800
     29 HAJ        -1.1380   -5.4390    0.9500 ha        1 OPY      0.110500
     30 HAJA        0.3590   -5.0430    1.9590 ha        1 OPY      0.110500
     31 HAE        -1.6540   -3.3440   -0.3070 hc        1 OPY      0.042367
     32 NAA         3.7870    0.4320    3.6170 n3        1 OPY     -0.902800
@<TRIPOS>BOND
     1    1    3 2   
     2    1    4 1   
     3    1   12 1   
     4    2   13 1   
     5    2   14 1   
     6    2   15 1   
     7    4    5 2   
     8    4   16 1   
     9    5    6 1   
    10    5   17 1   
    11    6   20 1   
    12    6   21 1   
    13    6   32 1   
    14    7    8 1   
    15    7   23 1   
    16    7   25 1   
    17    7   31 1   
    18    8   10 1   
    19    8   24 1   
    20    8   27 1   
    21    9   11 2   
    22    9   22 1   
    23    9   26 1   
    24   10   12 2   
    25   10   28 1   
    26   11   29 1   
    27   11   30 1   
    28   18   32 1   
    29   19   32 1   
@<TRIPOS>SUBSTRUCTURE
     1 OPY         1 TEMP              0 ****  ****    0 ROOT
