@<TRIPOS>MOLECULE
OPY
   32    32     1     0     0
SMALL
bcc


@<TRIPOS>ATOM
      1 C           0.0100    1.0110    0.0410 c         1 OPY      0.611100
      2 N           2.0100    1.5700   -1.3550 n3        1 OPY     -0.885800
      3 O          -0.1490    2.2360    0.2400 o         1 OPY     -0.622100
      4 CA          1.3150    0.5200   -0.6380 c3        1 OPY      0.112500
      5 CB          2.1860   -0.1380    0.4430 c3        1 OPY     -0.078400
      6 CAD         3.3990   -0.8230   -0.1860 c3        1 OPY      0.161800
      7 CAE        -3.4640   -1.1850   -0.2320 c3        1 OPY     -0.078400
      8 CAF        -3.4140    0.2840    0.1320 c3        1 OPY     -0.101900
      9 CAG        -2.1490   -1.6430   -0.8280 c3        1 OPY     -0.101900
     10 CAI        -2.2050    0.5970    1.0150 c3        1 OPY      0.083000
     11 CAJ        -0.9770   -1.2830    0.0900 c3        1 OPY      0.083000
     12 NAM        -0.9470    0.1080    0.4800 n         1 OPY     -0.455800
     13 HN          1.3640    2.0730   -1.9350 hn        1 OPY      0.360800
     14 HNA         2.4260    2.2170   -0.7120 hn        1 OPY      0.360800
     15 HA          1.0420   -0.2510   -1.4200 h1        1 OPY      0.069700
     16 HB          2.5220    0.6320    1.1850 hc        1 OPY      0.059200
     17 HBA         1.5660   -0.8900    0.9970 hc        1 OPY      0.059200
     18 HNAA        3.6740   -2.2130    1.2730 hn        1 OPY      0.348800
     19 HNAB        4.9840   -1.9660    0.3320 hn        1 OPY      0.348800
     20 HAD         3.0260   -1.5020   -1.0110 h1        1 OPY      0.033700
     21 HADA        4.0540   -0.0430   -0.6690 h1        1 OPY      0.033700
     22 HAEA       -4.2930   -1.3670   -0.9630 hc        1 OPY      0.043700
     23 HAF        -3.3740    0.9040   -0.8000 hc        1 OPY      0.049950
     24 HAFA       -4.3420    0.5710    0.6920 hc        1 OPY      0.049950
     25 HAG        -2.1580   -2.7540   -0.9700 hc        1 OPY      0.049950
     26 HAGA       -2.0050   -1.1710   -1.8340 hc        1 OPY      0.049950
     27 HAI        -2.1380    1.7110    1.1730 h1        1 OPY      0.057700
     28 HAIA       -2.3530    0.1060    2.0200 h1        1 OPY      0.057700
     29 HAJ        -1.0680   -1.8910    1.0380 h1        1 OPY      0.057700
     30 HAJA       -0.0170   -1.5820   -0.4100 h1        1 OPY      0.057700
     31 HAE        -3.6860   -1.7900    0.6870 hc        1 OPY      0.043700
     32 NAA         4.2090   -1.5240    0.7830 n3        1 OPY     -0.918800
@<TRIPOS>BOND
     1    1    3 2   
     2    1    4 1   
     3    1   12 1   
     4    2    4 1   
     5    2   13 1   
     6    2   14 1   
     7    4    5 1   
     8    4   15 1   
     9    5    6 1   
    10    5   16 1   
    11    5   17 1   
    12    6   20 1   
    13    6   21 1   
    14    6   32 1   
    15    7    8 1   
    16    7    9 1   
    17    7   22 1   
    18    7   31 1   
    19    8   10 1   
    20    8   23 1   
    21    8   24 1   
    22    9   11 1   
    23    9   25 1   
    24    9   26 1   
    25   10   12 1   
    26   10   27 1   
    27   10   28 1   
    28   11   12 1   
    29   11   29 1   
    30   11   30 1   
    31   18   32 1   
    32   19   32 1   
@<TRIPOS>SUBSTRUCTURE
     1 OPY         1 TEMP              0 ****  ****    0 ROOT
