@<TRIPOS>MOLECULE
OPY
   34    30     1     0     0
SMALL
bcc


@<TRIPOS>ATOM
      1 C           0.8840   -0.2780   -0.0720 c2        1 OPY      0.328000
      2 N           0.4090    2.7840   -2.5390 n+        1 OPY     -0.090000
      3 O           0.8320    0.7870   -0.7560 o         1 OPY     -0.526000
      4 CA          2.1570   -0.5430    0.6850 c2        1 OPY      0.014000
      5 CB          2.2670   -0.3480    2.0130 c2        1 OPY     -0.256000
      6 CAD         3.5210   -0.5800    2.7000 c2        1 OPY      0.189000
      7 CAE        -3.2080   -2.7430    0.2560 c1        1 OPY     -0.033000
      8 CAF        -3.5670   -2.0280   -0.9640 c3        1 OPY     -0.337000
      9 CAG         0.8320   -3.4690    0.0990 c3        1 OPY     -0.234000
     10 CAI        -2.6380   -0.9660   -1.2950 c1        1 OPY     -0.033000
     11 CAJ        -0.0510   -2.4020    0.7230 c3        1 OPY     -0.085000
     12 NAM        -0.1300   -1.1610   -0.0120 ns        1 OPY     -0.326000
     13 HN          1.2720    2.7400   -1.9850 hn        1 OPY      0.270500
     14 HNA         0.6320    2.7300   -3.5350 hn        1 OPY      0.270500
     15 HA         -0.1680    1.9760   -2.2620 hn        1 OPY      0.270500
     16 HB          2.9970   -0.8760    0.0470 ha        1 OPY      0.175000
     17 HBA         1.3970   -0.0140    2.6110 ha        1 OPY      0.184000
     18 HNAA        4.5920   -0.6230    4.4170 hn        1 OPY      0.290500
     19 HNAB        6.9580   -1.4330    3.4090 ha        1 OPY      0.001500
     20 HAD         6.3150   -1.2600    3.2740 ha        1 OPY      0.001500
     21 HADA        4.4070   -0.9030    2.0930 h4        1 OPY      0.206000
     22 HAF        -3.4570   -2.8050   -1.8030 hc        1 OPY      0.178000
     23 HAFA       -4.6520   -1.7040   -1.0090 hc        1 OPY      0.178000
     24 HAG         0.4770   -3.7430   -0.9240 hc        1 OPY      0.088000
     25 HAGA        1.8930   -3.1280    0.0240 hc        1 OPY      0.088000
     26 HAI        -1.0130   -1.0010   -0.5560 hn        1 OPY      0.322000
     27 HAIA       -3.0330   -0.1720   -1.9480 ha        1 OPY      0.069500
     28 HAJ        -1.1200   -2.7950    0.7970 h1        1 OPY      0.126000
     29 HAJA        0.3130   -2.1890    1.7690 h1        1 OPY      0.126000
     30 HAE         0.7950   -4.3840    0.7390 hc        1 OPY      0.088000
     31 NAA         3.6950   -0.4430    3.9910 n8        1 OPY     -0.177000
     32 HN3        -0.0880    3.6540   -2.3400 hn        1 OPY      0.270500
     33 HAA3        2.9550   -0.1600    4.6090 hn        1 OPY      0.290500
     34 HAEA       -4.0250   -3.2860    0.7520 ha        1 OPY      0.069500
@<TRIPOS>BOND
     1    1    3 1   
     2    1    4 1   
     3    1   12 1   
     4    2   13 1   
     5    2   14 1   
     6    2   15 1   
     7    2   32 1   
     8    4    5 1   
     9    4   16 1   
    10    5    6 1   
    11    5   17 1   
    12    6   21 1   
    13    6   31 1   
    14    7    8 1   
    15    7   34 1   
    16    8   10 1   
    17    8   22 1   
    18    8   23 1   
    19    9   11 1   
    20    9   24 1   
    21    9   25 1   
    22    9   30 1   
    23   10   27 1   
    24   11   12 1   
    25   11   28 1   
    26   11   29 1   
    27   12   26 1   
    28   18   31 1   
    29   19   20 1   
    30   31   33 1   
@<TRIPOS>SUBSTRUCTURE
     1 OPY         1 TEMP              0 ****  ****    0 ROOT
