@<TRIPOS>MOLECULE
OPY
   32    31     1     0     0
SMALL
bcc


@<TRIPOS>ATOM
      1 C          -0.4070    0.5560    0.7890 c1        1 OPY      0.488500
      2 N           1.7940    1.4650    0.9220 nh        1 OPY     -0.472100
      3 O          -1.0300    1.0950    1.7080 o         1 OPY     -0.616500
      4 CA          1.1020    0.2770    0.9440 c2        1 OPY      0.224200
      5 CB          1.3620   -0.4410    2.2860 c3        1 OPY     -0.153700
      6 NAA         3.1200   -1.4480    3.6790 n3        1 OPY     -0.918800
      7 CAD         2.7980   -0.9390    2.3210 c3        1 OPY      0.161800
      8 CAE        -2.2970    0.2220   -3.0310 c3        1 OPY     -0.078400
      9 CAF        -2.9440    0.8800   -1.8600 c3        1 OPY     -0.101900
     10 CAG        -0.8340    0.0940   -2.8560 c3        1 OPY     -0.101900
     11 CAI        -2.5690    0.2260   -0.5560 c3        1 OPY      0.026300
     12 CAJ        -0.4670   -0.5590   -1.5280 c3        1 OPY      0.026300
     13 NAM        -1.1250    0.0860   -0.4000 n3        1 OPY     -0.275400
     14 HN          1.2130    2.1520    0.9800 hn        1 OPY      0.205700
     15 HNA         2.2680    1.5280    0.1390 hn        1 OPY      0.205700
     16 HA          1.4040   -0.2890    0.2100 h4        1 OPY     -0.020200
     17 HB          0.7560   -1.1940    2.3720 hc        1 OPY      0.059200
     18 HBA         1.2130    0.1920    3.0340 hc        1 OPY      0.059200
     19 HNAA        3.8980   -1.0540    3.9780 hn        1 OPY      0.348800
     20 HNAB        3.2320   -2.3710    3.6480 hn        1 OPY      0.348800
     21 HAD         2.9070   -1.6630    1.6640 h1        1 OPY      0.033700
     22 HADA        3.4120   -0.1920    2.0960 h1        1 OPY      0.033700
     23 HAE        -2.4790    0.7580   -3.8450 hc        1 OPY      0.043700
     24 HAEA       -2.6720   -0.6470   -3.1430 hc        1 OPY      0.043700
     25 HAF        -2.6710    1.8000   -1.8320 hc        1 OPY      0.049950
     26 HAFA       -3.9100    0.8400   -1.9670 hc        1 OPY      0.049950
     27 HAG        -0.4730   -0.4500   -3.5900 hc        1 OPY      0.049950
     28 HAGA       -0.4190    1.0060   -2.8940 hc        1 OPY      0.049950
     29 HAI        -2.9270    0.7880    0.2050 h1        1 OPY      0.057700
     30 HAIA       -2.9860   -0.6750   -0.5150 h1        1 OPY      0.057700
     31 HAJ         0.4710   -0.5060   -1.4080 h1        1 OPY      0.057700
     32 HAJA       -0.7410   -1.5360   -1.5530 h1        1 OPY      0.057700
@<TRIPOS>BOND
     1    1    3 2   
     2    1   13 2   
     3    2    4 2   
     4    2   14 1   
     5    2   15 1   
     6    4    5 1   
     7    4   16 1   
     8    5    7 1   
     9    5   17 1   
    10    5   18 1   
    11    6    7 1   
    12    6   19 1   
    13    6   20 1   
    14    7   21 1   
    15    7   22 1   
    16    8    9 1   
    17    8   10 1   
    18    8   23 1   
    19    8   24 1   
    20    9   11 1   
    21    9   25 1   
    22    9   26 1   
    23   10   12 1   
    24   10   27 1   
    25   10   28 1   
    26   11   13 1   
    27   11   29 1   
    28   11   30 1   
    29   12   13 1   
    30   12   31 1   
    31   12   32 1   
@<TRIPOS>SUBSTRUCTURE
     1 OPY         1 TEMP              0 ****  ****    0 ROOT
