@<TRIPOS>MOLECULE
OPY
   34    30     1     0     0
SMALL
bcc


@<TRIPOS>ATOM
      1 C        -235.6720   16.3400 -169.6170 c         1 OPY      0.706300
      2 N        -238.3140   14.1450 -171.4950 n4        1 OPY     -0.918200
      3 O        -236.5080   15.5140 -170.0800 o         1 OPY     -0.768100
      4 CA       -235.6050   17.7390 -170.1060 ce        1 OPY     -0.244200
      5 CB       -236.6090   18.6000 -169.9610 c2        1 OPY     -0.132000
      6 CAD      1104.8350  -74.3570  795.2880 c2        1 OPY      0.432100
      7 CAE      -237.5070   11.1270 -172.0070 c2        1 OPY     -0.253000
      8 CAF      -237.0710   11.5360 -170.8140 c2        1 OPY     -0.201200
      9 CAG      -232.9970   16.2820 -167.0790 c2        1 OPY     -0.238000
     10 CAI      -235.7660   12.1900 -170.5880 c3        1 OPY     -0.098900
     11 CAJ      -233.8380   16.7120 -168.0310 c2        1 OPY     -0.061400
     12 NAM      -234.7960   15.9000 -168.6580 n         1 OPY     -0.451100
     13 HN       -237.7750   14.9780 -171.7700 hn        1 OPY      0.472550
     14 HNA      -238.1100   13.3610 -172.1260 hn        1 OPY      0.472550
     15 HA       -238.0030   13.8900 -170.5450 hn        1 OPY      0.472550
     16 HB       -234.6630   18.0030 -170.6160 ha        1 OPY      0.164000
     17 HBA      -236.5460   19.6310 -170.3420 ha        1 OPY      0.135500
     18 HNAA     -237.5470   18.3490 -169.4450 ha        1 OPY      0.135500
     19 HNAB     1106.1390  -74.8550  796.7530 hn        1 OPY      0.342700
     20 HAD      1104.2280  -73.5420  794.8290 h4        1 OPY      0.085800
     21 HADA     1104.7800  -75.3720  794.8280 h4        1 OPY      0.085800
     22 HAF      -235.1310   11.5360 -169.9350 hc        1 OPY      0.059033
     23 HAFA     -237.6640   11.3470 -169.9010 ha        1 OPY      0.131000
     24 HAG      -232.9720   15.2550 -166.6930 ha        1 OPY      0.139500
     25 HAGA     -232.2690   16.9710 -166.6310 ha        1 OPY      0.139500
     26 HAI      -235.2110   12.3620 -171.5430 hc        1 OPY      0.059033
     27 HAIA     -235.8940   13.1740 -170.0660 hc        1 OPY      0.059033
     28 HAJ      -234.8600   14.9460 -168.3690 hn        1 OPY      0.325500
     29 HAJA     -233.8270   17.7610 -168.3860 h4        1 OPY      0.157000
     30 HAE      -236.9140   11.2370 -172.9270 ha        1 OPY      0.131500
     31 NAA      1105.5800  -74.1330  796.3210 nh        1 OPY     -0.290100
     32 HN3      -239.3090   14.3580 -171.4940 hn        1 OPY      0.472550
     33 HAA3     1105.6460  -73.2230  796.7540 hn        1 OPY      0.342700
     34 HAEA     -238.4580   10.5890 -172.1320 ha        1 OPY      0.131500
@<TRIPOS>BOND
     1    1    3 2   
     2    1    4 1   
     3    1   12 1   
     4    2   13 1   
     5    2   14 1   
     6    2   15 1   
     7    2   32 1   
     8    4    5 2   
     9    4   16 1   
    10    5   17 1   
    11    5   18 1   
    12    6   20 1   
    13    6   21 1   
    14    6   31 2   
    15    7    8 2   
    16    7   30 1   
    17    7   34 1   
    18    8   10 1   
    19    8   23 1   
    20    9   11 2   
    21    9   24 1   
    22    9   25 1   
    23   10   22 1   
    24   10   26 1   
    25   10   27 1   
    26   11   12 1   
    27   11   29 1   
    28   12   28 1   
    29   19   31 1   
    30   31   33 1   
@<TRIPOS>SUBSTRUCTURE
     1 OPY         1 TEMP              0 ****  ****    0 ROOT
