@<TRIPOS>MOLECULE
OQB
   60    63     1     0     0
SMALL
bcc


@<TRIPOS>ATOM
      1 O37         0.8910   -2.0130   -1.8350 o         1 OQB     -0.476000
      2 C9          1.3720   -1.1430   -1.1110 c         1 OQB      0.621100
      3 O33         1.0470   -1.2550    0.2060 oh        1 OQB     -0.574100
      4 C10         2.2590   -0.0140   -1.5540 c3        1 OQB     -0.192400
      5 C27         3.7000   -0.2480   -1.0560 c3        1 OQB     -0.014300
      6 C28         4.5050   -0.8670   -2.1980 c         1 OQB      0.564900
      7 O35         5.5700   -0.4040   -2.5990 o         1 OQB     -0.512100
      8 N3          4.3180    0.9390   -0.5080 ns        1 OQB     -0.555900
      9 C16         3.8920    1.4750    0.6840 c         1 OQB      0.679700
     10 O34         2.9010    1.0080    1.2870 o         1 OQB     -0.609100
     11 C21         4.6440    2.6330    1.2440 ca        1 OQB     -0.229900
     12 C12         5.2780    3.6010    0.4340 ca        1 OQB      0.449200
     13 N1          5.9390    4.6560    0.9350 nb        1 OQB     -0.716000
     14 C23         4.6940    2.7890    2.6350 ca        1 OQB     -0.019000
     15 C24         5.3820    3.8810    3.1710 ca        1 OQB     -0.217300
     16 C14         5.9920    4.7890    2.2840 ca        1 OQB      0.360600
     17 C19         6.7290    5.9530    2.9010 c3        1 OQB      0.066500
     18 N6          7.3140    6.9010    1.9130 ny        1 OQB     -0.666800
     19 C15         8.0460    8.0720    2.5650 c         1 OQB      0.583700
     20 O36         8.0270    8.0750    3.7910 o         1 OQB     -0.459100
     21 C20         8.6660    9.0180    1.6640 ca        1 OQB     -0.283600
     22 C22         9.3720   10.0890    2.2590 ca        1 OQB     -0.015000
     23 C26         8.6120    8.9470    0.2590 ca        1 OQB     -0.015000
     24 C25         9.2430    9.8920   -0.5200 ca        1 OQB     -0.198000
     25 C11         9.9770   10.9720    0.0730 ca        1 OQB      0.282600
     26 C8         10.0090   11.0430    1.4930 ca        1 OQB     -0.198000
     27 N2         10.5460   11.9080   -0.7570 nu        1 OQB     -0.720300
     28 C13        11.5610   12.8370   -0.4310 ca        1 OQB      0.507900
     29 C29        11.7110   13.9920   -1.3290 ca        1 OQB      0.292900
     30 N4         12.6290   14.9100   -1.1370 nb        1 OQB     -0.585000
     31 N5         12.3670   12.6700    0.6240 nb        1 OQB     -0.666000
     32 C32        13.3350   13.6340    0.8360 ca        1 OQB      0.311300
     33 C31        13.4730   14.7630   -0.0480 ca        1 OQB      0.275300
     34 C17        14.2250   13.5120    1.9460 ca        1 OQB     -0.170300
     35 C30        15.1910   14.4650    2.1590 ca        1 OQB     -0.101000
     36 C18        15.3230   15.5750    1.2940 ca        1 OQB     -0.114000
     37 C7         14.4890   15.7290    0.2130 ca        1 OQB     -0.145300
     38 H101        2.2350    0.0550   -2.6730 hc        1 OQB      0.093200
     39 H102        1.8410    0.9440   -1.1430 hc        1 OQB      0.093200
     40 H27         3.6630   -1.0260   -0.2260 h1        1 OQB      0.094700
     41 H28         4.0320   -1.7770   -2.6270 h4        1 OQB      0.049200
     42 HN3         1.4440   -0.5290    0.7160 ho        1 OQB      0.451000
     43 H12         5.2500    3.5460   -0.6710 h4        1 OQB      0.047100
     44 H23         4.1850    2.0600    3.2910 ha        1 OQB      0.189000
     45 H24         5.4400    4.0290    4.2590 ha        1 OQB      0.169000
     46 H191        7.5700    5.5610    3.5460 hx        1 OQB      0.124200
     47 H192        6.0210    6.5330    3.5630 hx        1 OQB      0.124200
     48 HN6         7.9750    6.4000    1.3080 hn        1 OQB      0.463300
     49 H22         9.4080   10.1610    3.3620 ha        1 OQB      0.146500
     50 H26         8.0710    8.1390   -0.2600 ha        1 OQB      0.146500
     51 H25         9.1830    9.8080   -1.6170 ha        1 OQB      0.172500
     52 H8         10.5360   11.8640    2.0070 ha        1 OQB      0.172500
     53 HN2        10.3820   11.8110   -1.7380 hn        1 OQB      0.458800
     54 H29        11.0420   14.1220   -2.1980 h4        1 OQB      0.042100
     55 H17        14.1270   12.6480    2.6220 ha        1 OQB      0.154000
     56 H30        15.8790   14.3720    3.0150 ha        1 OQB      0.150000
     57 H18        16.1100   16.3190    1.4970 ha        1 OQB      0.153000
     58 H7         14.5930   16.5940   -0.4630 ha        1 OQB      0.165000
     59 H32         5.1460    1.2660   -0.9520 hn        1 OQB      0.337500
     60 H62         6.5670    7.2750    1.3160 hn        1 OQB      0.463300
@<TRIPOS>BOND
     1    1    2 2   
     2    2    3 1   
     3    2    4 1   
     4    3   42 1   
     5    4    5 1   
     6    4   38 1   
     7    4   39 1   
     8    5    6 1   
     9    5    8 1   
    10    5   40 1   
    11    6    7 2   
    12    6   41 1   
    13    8    9 1   
    14    8   59 1   
    15    9   10 2   
    16    9   11 1   
    17   11   12 ar  
    18   11   14 ar  
    19   12   13 ar  
    20   12   43 1   
    21   13   16 ar  
    22   14   15 ar  
    23   14   44 1   
    24   15   16 ar  
    25   15   45 1   
    26   16   17 1   
    27   17   18 1   
    28   17   46 1   
    29   17   47 1   
    30   18   19 1   
    31   18   48 1   
    32   18   60 1   
    33   19   20 2   
    34   19   21 1   
    35   21   22 ar  
    36   21   23 ar  
    37   22   26 ar  
    38   22   49 1   
    39   23   24 ar  
    40   23   50 1   
    41   24   25 ar  
    42   24   51 1   
    43   25   26 ar  
    44   25   27 1   
    45   26   52 1   
    46   27   28 1   
    47   27   53 1   
    48   28   29 ar  
    49   28   31 ar  
    50   29   30 ar  
    51   29   54 1   
    52   30   33 ar  
    53   31   32 ar  
    54   32   33 ar  
    55   32   34 ar  
    56   33   37 ar  
    57   34   35 ar  
    58   34   55 1   
    59   35   36 ar  
    60   35   56 1   
    61   36   37 ar  
    62   36   57 1   
    63   37   58 1   
@<TRIPOS>SUBSTRUCTURE
     1 OQB         1 TEMP              0 ****  ****    0 ROOT
