@<TRIPOS>MOLECULE
OQB
   58    61     1     0     0
SMALL
bcc


@<TRIPOS>ATOM
      1 O37         5.2100   -3.3810    2.1020 o         1 OQB     -0.842300
      2 C9          4.9350   -2.9420    0.9560 c         1 OQB      0.914600
      3 O33         3.9030   -2.2480    0.6920 o         1 OQB     -0.842300
      4 C10         5.8870   -3.2890   -0.2040 c3        1 OQB     -0.216400
      5 C27         6.6020   -2.0510   -0.7710 c3        1 OQB     -0.001300
      6 C28         7.4030   -2.5140   -1.9770 c         1 OQB      0.565900
      7 O35         7.2520   -2.1640   -3.1460 o         1 OQB     -0.540100
      8 N3          5.6900   -0.9600   -1.0460 n         1 OQB     -0.504900
      9 C16         6.0160    0.3280   -0.6630 c         1 OQB      0.667700
     10 O34         7.1990    0.7130   -0.5280 o         1 OQB     -0.632100
     11 C21         4.8830    1.2810   -0.4830 ca        1 OQB     -0.252900
     12 C12         3.7090    0.8950    0.2060 ca        1 OQB      0.439200
     13 N1          2.6850    1.7360    0.4250 nb        1 OQB     -0.699000
     14 C23         4.9850    2.5930   -0.9510 ca        1 OQB     -0.046000
     15 C24         3.9230    3.4720   -0.7340 ca        1 OQB     -0.269300
     16 C14         2.7880    3.0060   -0.0390 ca        1 OQB      0.377600
     17 C19         1.6640    3.9990    0.2010 c3        1 OQB      0.024700
     18 N6          0.4510    3.4690    0.7650 n         1 OQB     -0.523900
     19 C15        -0.6380    3.1800   -0.0560 c         1 OQB      0.663700
     20 O36        -0.8430    3.8090   -1.1130 o         1 OQB     -0.600100
     21 C20        -1.5950    2.1510    0.4430 ca        1 OQB     -0.159600
     22 C22        -2.9660    2.4120    0.4210 ca        1 OQB     -0.074000
     23 C26        -1.1290    0.9110    0.8930 ca        1 OQB     -0.074000
     24 C25        -2.0290   -0.0580    1.3220 ca        1 OQB     -0.153500
     25 C11        -3.4190    0.2040    1.3210 ca        1 OQB      0.140600
     26 C8         -3.8770    1.4580    0.8660 ca        1 OQB     -0.153500
     27 N2         -4.3020   -0.7610    1.8600 nh        1 OQB     -0.712300
     28 C13        -5.4610   -1.1980    1.2030 ca        1 OQB      0.540900
     29 C29        -6.1830   -2.3320    1.8160 ca        1 OQB      0.279900
     30 N4         -7.3170   -2.7900    1.3440 nb        1 OQB     -0.608000
     31 N5         -5.9490   -0.5960    0.1060 nb        1 OQB     -0.689000
     32 C32        -7.1440   -1.0730   -0.3960 ca        1 OQB      0.333300
     33 C31        -7.8400   -2.1710    0.2170 ca        1 OQB      0.244300
     34 C17        -7.7100   -0.4660   -1.5600 ca        1 OQB     -0.171300
     35 C30        -8.8960   -0.9310   -2.0720 ca        1 OQB     -0.116000
     36 C18        -9.5790   -2.0090   -1.4660 ca        1 OQB     -0.145000
     37 C7         -9.0700   -2.6210   -0.3470 ca        1 OQB     -0.144300
     38 H101        6.6630   -4.0060    0.1610 hc        1 OQB      0.044200
     39 H102        5.2870   -3.7830   -1.0080 hc        1 OQB      0.044200
     40 H27         7.3690   -1.6990   -0.0100 h1        1 OQB      0.082700
     41 H28         8.1860   -3.2610   -1.7000 h4        1 OQB     -0.025800
     42 HN3         4.7200   -1.2220   -0.9640 hn        1 OQB      0.345500
     43 H12         3.5860   -0.1410    0.6130 h4        1 OQB      0.106100
     44 H23         5.8960    2.9190   -1.4740 ha        1 OQB      0.151000
     45 H24         3.9660    4.5080   -1.0940 ha        1 OQB      0.134000
     46 H191        2.0580    4.7770    0.9190 h1        1 OQB      0.072700
     47 H192        1.4250    4.5040   -0.7790 h1        1 OQB      0.072700
     48 HN6         0.5870    2.8460    1.5340 hn        1 OQB      0.310500
     49 H22        -3.3270    3.3820    0.0430 ha        1 OQB      0.159500
     50 H26        -0.0490    0.6810    0.8920 ha        1 OQB      0.159500
     51 H25        -1.6390   -1.0310    1.6610 ha        1 OQB      0.147500
     52 H8         -4.9510    1.6960    0.8530 ha        1 OQB      0.147500
     53 HN2        -3.8380   -1.4960    2.3580 hn        1 OQB      0.426800
     54 H29        -5.7740   -2.8300    2.7130 h4        1 OQB      0.033100
     55 H17        -7.1780    0.3720   -2.0380 ha        1 OQB      0.154000
     56 H30        -9.3290   -0.4640   -2.9700 ha        1 OQB      0.134000
     57 H18       -10.5270   -2.3540   -1.9030 ha        1 OQB      0.132000
     58 H7         -9.5990   -3.4630    0.1270 ha        1 OQB      0.146000
@<TRIPOS>BOND
     1    1    2 1   
     2    2    3 1   
     3    2    4 1   
     4    4    5 1   
     5    4   38 1   
     6    4   39 1   
     7    5    6 1   
     8    5    8 1   
     9    5   40 1   
    10    6    7 2   
    11    6   41 1   
    12    8    9 1   
    13    8   42 1   
    14    9   10 2   
    15    9   11 1   
    16   11   12 ar  
    17   11   14 ar  
    18   12   13 ar  
    19   12   43 1   
    20   13   16 ar  
    21   14   15 ar  
    22   14   44 1   
    23   15   16 ar  
    24   15   45 1   
    25   16   17 1   
    26   17   18 1   
    27   17   46 1   
    28   17   47 1   
    29   18   19 1   
    30   18   48 1   
    31   19   20 2   
    32   19   21 1   
    33   21   22 ar  
    34   21   23 ar  
    35   22   26 ar  
    36   22   49 1   
    37   23   24 ar  
    38   23   50 1   
    39   24   25 ar  
    40   24   51 1   
    41   25   26 ar  
    42   25   27 1   
    43   26   52 1   
    44   27   28 1   
    45   27   53 1   
    46   28   29 ar  
    47   28   31 ar  
    48   29   30 ar  
    49   29   54 1   
    50   30   33 ar  
    51   31   32 ar  
    52   32   33 ar  
    53   32   34 ar  
    54   33   37 ar  
    55   34   35 ar  
    56   34   55 1   
    57   35   36 ar  
    58   35   56 1   
    59   36   37 ar  
    60   36   57 1   
    61   37   58 1   
@<TRIPOS>SUBSTRUCTURE
     1 OQB         1 TEMP              0 ****  ****    0 ROOT
