@<TRIPOS>MOLECULE
OQB
   60    63     1     0     0
SMALL
bcc


@<TRIPOS>ATOM
      1 O37         0.9800   -2.0810   -1.8250 o         1 OQB     -0.476000
      2 C9          1.4410   -1.1960   -1.1070 c         1 OQB      0.621100
      3 O33         1.1010   -1.2960    0.2070 oh        1 OQB     -0.574100
      4 C10         2.3210   -0.0630   -1.5520 c3        1 OQB     -0.192400
      5 C27         3.7580   -0.2740   -1.0330 c3        1 OQB     -0.014300
      6 C28         4.5840   -0.8980   -2.1570 c         1 OQB      0.564900
      7 O35         5.6490   -0.4280   -2.5500 o         1 OQB     -0.512100
      8 N3          4.3560    0.9260   -0.4920 n         1 OQB     -0.555900
      9 C16         3.9080    1.4720    0.6870 c         1 OQB      0.679700
     10 O34         2.9150    1.0020    1.2840 o         1 OQB     -0.609100
     11 C21         4.6400    2.6460    1.2440 ca        1 OQB     -0.229900
     12 C12         5.2770    3.6080    0.4300 ca        1 OQB      0.449200
     13 N1          5.9200    4.6760    0.9260 nb        1 OQB     -0.716000
     14 C23         4.6680    2.8200    2.6320 ca        1 OQB     -0.019000
     15 C24         5.3370    3.9260    3.1640 ca        1 OQB     -0.217300
     16 C14         5.9520    4.8270    2.2750 ca        1 OQB      0.360600
     17 C19         6.6680    6.0070    2.8860 c3        1 OQB      0.066500
     18 N6          7.2670    6.9430    1.8950 n4        1 OQB     -0.666800
     19 C15         7.9800    8.1280    2.5430 c         1 OQB      0.583700
     20 O36         7.9280    8.1550    3.7680 o         1 OQB     -0.459100
     21 C20         8.6230    9.0560    1.6390 ca        1 OQB     -0.283600
     22 C22         9.3210   10.1330    2.2320 ca        1 OQB     -0.015000
     23 C26         8.5980    8.9620    0.2350 ca        1 OQB     -0.015000
     24 C25         9.2500    9.8910   -0.5450 ca        1 OQB     -0.198000
     25 C11         9.9770   10.9770    0.0440 ca        1 OQB      0.282600
     26 C8          9.9800   11.0710    1.4640 ca        1 OQB     -0.198000
     27 N2         10.5690   11.8970   -0.7880 nh        1 OQB     -0.720300
     28 C13        11.5840   12.8230   -0.4560 ca        1 OQB      0.507900
     29 C29        11.7590   13.9640   -1.3680 ca        1 OQB      0.292900
     30 N4         12.6800   14.8780   -1.1710 nb        1 OQB     -0.585000
     31 N5         12.3670   12.6660    0.6160 nb        1 OQB     -0.666000
     32 C32        13.3380   13.6270    0.8330 ca        1 OQB      0.311300
     33 C31        13.5020   14.7420   -0.0640 ca        1 OQB      0.276300
     34 C17        14.2060   13.5150    1.9620 ca        1 OQB     -0.170300
     35 C30        15.1740   14.4650    2.1800 ca        1 OQB     -0.101000
     36 C18        15.3320   15.5600    1.3010 ca        1 OQB     -0.114000
     37 C7         14.5200   15.7050    0.2020 ca        1 OQB     -0.145300
     38 H101        2.3100   -0.0080   -2.6720 hc        1 OQB      0.093200
     39 H102        1.8870    0.8960   -1.1590 hc        1 OQB      0.093200
     40 H27         3.7190   -1.0430   -0.1940 h1        1 OQB      0.094700
     41 H28         4.1270   -1.8180   -2.5810 h4        1 OQB      0.049200
     42 HN3         1.4820   -0.5580    0.7130 ho        1 OQB      0.451000
     43 H12         5.2660    3.5390   -0.6750 h4        1 OQB      0.047100
     44 H23         4.1560    2.0950    3.2900 ha        1 OQB      0.190000
     45 H24         5.3780    4.0880    4.2510 ha        1 OQB      0.169000
     46 H191        5.9410    6.5930    3.5240 hx        1 OQB      0.124200
     47 H192        7.4980    5.6320    3.5560 hx        1 OQB      0.124200
     48 HN6         6.5290    7.3030    1.2780 hn        1 OQB      0.463300
     49 H22         9.3340   10.2240    3.3330 ha        1 OQB      0.146500
     50 H26         8.0640    8.1490   -0.2820 ha        1 OQB      0.146500
     51 H25         9.2120    9.7890   -1.6430 ha        1 OQB      0.172500
     52 H8         10.4990   11.8990    1.9750 ha        1 OQB      0.172500
     53 HN2        10.4250   11.7840   -1.7710 hn        1 OQB      0.458800
     54 H29        11.1080   14.0860   -2.2520 h4        1 OQB      0.042100
     55 H17        14.0890   12.6620    2.6490 ha        1 OQB      0.154000
     56 H30        15.8450   14.3790    3.0500 ha        1 OQB      0.150000
     57 H18        16.1190   16.3030    1.5090 ha        1 OQB      0.153000
     58 H7         14.6420   16.5590   -0.4840 ha        1 OQB      0.165000
     59 H32         5.1860    1.2570   -0.9300 hn        1 OQB      0.337500
     60 H62         7.9420    6.4360    1.3110 hn        1 OQB      0.463300
@<TRIPOS>BOND
     1    1    2 2   
     2    2    3 1   
     3    2    4 1   
     4    3   42 1   
     5    4    5 1   
     6    4   38 1   
     7    4   39 1   
     8    5    6 1   
     9    5    8 1   
    10    5   40 1   
    11    6    7 2   
    12    6   41 1   
    13    8    9 1   
    14    8   59 1   
    15    9   10 2   
    16    9   11 1   
    17   11   12 ar  
    18   11   14 ar  
    19   12   13 ar  
    20   12   43 1   
    21   13   16 ar  
    22   14   15 ar  
    23   14   44 1   
    24   15   16 ar  
    25   15   45 1   
    26   16   17 1   
    27   17   18 1   
    28   17   46 1   
    29   17   47 1   
    30   18   19 1   
    31   18   48 1   
    32   18   60 1   
    33   19   20 2   
    34   19   21 1   
    35   21   22 ar  
    36   21   23 ar  
    37   22   26 ar  
    38   22   49 1   
    39   23   24 ar  
    40   23   50 1   
    41   24   25 ar  
    42   24   51 1   
    43   25   26 ar  
    44   25   27 1   
    45   26   52 1   
    46   27   28 1   
    47   27   53 1   
    48   28   29 ar  
    49   28   31 ar  
    50   29   30 ar  
    51   29   54 1   
    52   30   33 ar  
    53   31   32 ar  
    54   32   33 ar  
    55   32   34 ar  
    56   33   37 ar  
    57   34   35 ar  
    58   34   55 1   
    59   35   36 ar  
    60   35   56 1   
    61   36   37 ar  
    62   36   57 1   
    63   37   58 1   
@<TRIPOS>SUBSTRUCTURE
     1 OQB         1 TEMP              0 ****  ****    0 ROOT
