@<TRIPOS>MOLECULE
OQB
   61    64     1     0     0
SMALL
bcc


@<TRIPOS>ATOM
      1 O37         4.4420    4.0250   -1.9180 o         1 OQB     -0.550000
      2 C9          3.7040    3.1670   -2.4180 c         1 OQB      0.653100
      3 O33         2.4220    3.5910   -2.5750 oh        1 OQB     -0.562100
      4 C10         4.1140    1.7940   -2.8570 c3        1 OQB     -0.202400
      5 C27         4.5620    0.8930   -1.6850 c3        1 OQB     -0.007300
      6 C28         5.3410   -0.2700   -2.3160 c         1 OQB      0.554900
      7 O35         6.5510   -0.2280   -2.5110 o         1 OQB     -0.488100
      8 N3          5.3310    1.5940   -0.6880 n         1 OQB     -0.548900
      9 C16         4.9090    1.7140    0.6180 c         1 OQB      0.673700
     10 O34         3.9630    1.0560    1.0840 o         1 OQB     -0.560100
     11 C21         5.6590    2.6860    1.4720 ca        1 OQB     -0.204900
     12 C12         5.8320    4.0270    1.0430 ca        1 OQB      0.444200
     13 N1          6.4350    4.9550    1.7930 nb        1 OQB     -0.725000
     14 C23         6.1280    2.3120    2.7280 ca        1 OQB     -0.028000
     15 C24         6.7660    3.2760    3.5260 ca        1 OQB     -0.190300
     16 C14         6.8970    4.5760    3.0190 ca        1 OQB      0.310600
     17 C19         7.6250    5.6170    3.8300 c3        1 OQB      0.083500
     18 N6          6.8190    6.8810    3.9690 n4        1 OQB     -0.671800
     19 C15         7.7090    8.0850    4.1410 c         1 OQB      0.554700
     20 O36         8.1460    8.2730    5.2680 o         1 OQB     -0.385100
     21 C20         7.9370    8.9370    2.9580 ca        1 OQB     -0.152600
     22 C22         8.2580   10.2810    3.2040 ca        1 OQB     -0.052500
     23 C26         7.8820    8.4570    1.6430 ca        1 OQB     -0.052500
     24 C25         8.1330    9.3160    0.5750 ca        1 OQB     -0.094000
     25 C11         8.4370   10.6670    0.8270 ca        1 OQB      0.023600
     26 C8          8.5060   11.1520    2.1430 ca        1 OQB     -0.094000
     27 N2          8.6820   11.5800   -0.2990 n4        1 OQB     -0.617100
     28 C13        10.1240   11.8630   -0.5080 ca        1 OQB      0.315900
     29 C29        10.7800   11.3290   -1.6860 ca        1 OQB      0.322900
     30 N4         12.0530   11.5810   -1.9210 nb        1 OQB     -0.559000
     31 N5         10.7550   12.6170    0.4000 nb        1 OQB     -0.596000
     32 C32        12.0780   12.8940    0.1600 ca        1 OQB      0.296300
     33 C31        12.7420   12.3670   -1.0210 ca        1 OQB      0.326300
     34 C17        12.8200   13.7130    1.0690 ca        1 OQB     -0.154300
     35 C30        14.1410   13.9880    0.8150 ca        1 OQB     -0.084000
     36 C18        14.7890   13.4740   -0.3350 ca        1 OQB     -0.064000
     37 C7         14.1170   12.6820   -1.2350 ca        1 OQB     -0.157300
     38 H101        3.2760    1.2760   -3.3930 hc        1 OQB      0.095700
     39 H102        4.9660    1.9170   -3.5820 hc        1 OQB      0.095700
     40 H27         3.6430    0.4630   -1.1780 h1        1 OQB      0.114700
     41 H28         4.7080   -1.1410   -2.5900 h4        1 OQB      0.034200
     42 HN3         1.8750    2.8980   -2.9740 ho        1 OQB      0.444000
     43 H12         5.4510    4.3640    0.0510 h4        1 OQB      0.083100
     44 H23         5.9890    1.2800    3.0960 ha        1 OQB      0.193000
     45 H24         7.1500    3.0050    4.5210 ha        1 OQB      0.169000
     46 H191        7.8490    5.2310    4.8660 hx        1 OQB      0.118700
     47 H192        8.5990    5.8780    3.3200 hx        1 OQB      0.118700
     48 HN6         6.2110    6.7920    4.7960 hn        1 OQB      0.476300
     49 H22         8.3240   10.6570    4.2440 ha        1 OQB      0.192500
     50 H26         7.6620    7.3970    1.4140 ha        1 OQB      0.192500
     51 H25         8.0880    8.9130   -0.4530 ha        1 OQB      0.190000
     52 H8          8.7650   12.2060    2.3610 ha        1 OQB      0.190000
     53 HN2         8.1850   12.4680   -0.1170 hn        1 OQB      0.477800
     54 H29        10.2470   10.7060   -2.4280 h4        1 OQB      0.054100
     55 H17        12.3200   14.1210    1.9630 ha        1 OQB      0.170000
     56 H30        14.7170   14.6240    1.5110 ha        1 OQB      0.176000
     57 H18        15.8520   13.7210   -0.5030 ha        1 OQB      0.179000
     58 H7         14.6260   12.2850   -2.1320 ha        1 OQB      0.187000
     59 H32         6.0930    2.1420   -1.0160 hn        1 OQB      0.332500
     60 H62         6.2200    7.0130    3.1430 hn        1 OQB      0.476300
     61 H221        8.3160   11.1650   -1.1680 hn        1 OQB      0.477800
@<TRIPOS>BOND
     1    1    2 2   
     2    2    3 1   
     3    2    4 1   
     4    3   42 1   
     5    4    5 1   
     6    4   38 1   
     7    4   39 1   
     8    5    6 1   
     9    5    8 1   
    10    5   40 1   
    11    6    7 2   
    12    6   41 1   
    13    8    9 1   
    14    8   59 1   
    15    9   10 2   
    16    9   11 1   
    17   11   12 ar  
    18   11   14 ar  
    19   12   13 ar  
    20   12   43 1   
    21   13   16 ar  
    22   14   15 ar  
    23   14   44 1   
    24   15   16 ar  
    25   15   45 1   
    26   16   17 1   
    27   17   18 1   
    28   17   46 1   
    29   17   47 1   
    30   18   19 1   
    31   18   48 1   
    32   18   60 1   
    33   19   20 2   
    34   19   21 1   
    35   21   22 ar  
    36   21   23 ar  
    37   22   26 ar  
    38   22   49 1   
    39   23   24 ar  
    40   23   50 1   
    41   24   25 ar  
    42   24   51 1   
    43   25   26 ar  
    44   25   27 1   
    45   26   52 1   
    46   27   28 1   
    47   27   53 1   
    48   27   61 1   
    49   28   29 ar  
    50   28   31 ar  
    51   29   30 ar  
    52   29   54 1   
    53   30   33 ar  
    54   31   32 ar  
    55   32   33 ar  
    56   32   34 ar  
    57   33   37 ar  
    58   34   35 ar  
    59   34   55 1   
    60   35   36 ar  
    61   35   56 1   
    62   36   37 ar  
    63   36   57 1   
    64   37   58 1   
@<TRIPOS>SUBSTRUCTURE
     1 OQB         1 TEMP              0 ****  ****    0 ROOT
