@<TRIPOS>MOLECULE
OQB
   58    53     1     0     0
SMALL
bcc


@<TRIPOS>ATOM
      1 O37        -6.7560   -7.6010   -3.6410 o         1 OQB     -0.572000
      2 C9         -5.7110   -8.0710   -3.1160 c2        1 OQB      0.334000
      3 O33        -5.5610   -9.3220   -3.0220 o         1 OQB     -0.572000
      4 C10        -4.5870   -7.1380   -2.6990 c3        1 OQB     -0.236000
      5 C27        -4.2350   -7.3850   -1.2380 c3        1 OQB     -0.044000
      6 C28        -3.2910   -8.5520   -1.1360 c2        1 OQB      0.174000
      7 O35        -3.5830   -9.5070   -0.4440 o         1 OQB     -0.366000
      8 N3         -3.6140   -6.2200   -0.6960 n         1 OQB     -0.337000
      9 C16        -3.9190   -5.7960    0.6610 c2        1 OQB      0.339000
     10 O34        -4.7380   -6.4100    1.3200 o         1 OQB     -0.372000
     11 C21        -3.2970   -4.5080    1.2180 c2        1 OQB     -0.155000
     12 C12        -1.9770   -4.5070    1.6580 c2        1 OQB     -0.042000
     13 N1         -1.4350   -3.3740    2.1870 n1        1 OQB     -0.162000
     14 C23        -4.0470   -3.3770    1.3150 c1        1 OQB     -0.046000
     15 C24        -3.5030   -2.2420    1.8450 c1        1 OQB     -0.181000
     16 C14        -2.1840   -2.2420    2.2850 c1        1 OQB     -0.048000
     17 C19        -1.5870   -0.9770    2.9260 c3        1 OQB      0.013000
     18 N6         -0.7090   -0.3410    2.0000 n         1 OQB     -0.351000
     19 C15        -0.2210    0.9720    2.2710 c2        1 OQB      0.340000
     20 O36        -0.6960    1.6220    3.1960 o         1 OQB     -0.370000
     21 C20         0.8630    1.5980    1.3640 c2        1 OQB     -0.141000
     22 C22         0.5400    2.6670    0.5330 c2        1 OQB     -0.049000
     23 C26         2.1880    1.1520    1.4470 c1        1 OQB     -0.072000
     24 C25         3.1870    1.7840    0.6940 c1        1 OQB     -0.171000
     25 C11         2.8590    2.8540   -0.1360 c1        1 OQB      0.069000
     26 C8          1.5380    3.2960   -0.2180 c1        1 OQB     -0.187000
     27 N2          3.8840    3.4690   -0.9690 n3        1 OQB     -0.239000
     28 C13         4.3580    4.7900   -0.6650 c2        1 OQB      0.070000
     29 C29         4.8820    5.1870    0.5700 c2        1 OQB     -0.099000
     30 N4          5.1920    6.4760    0.7840 n1        1 OQB     -0.086000
     31 N5          4.1650    5.6960   -1.6350 n1        1 OQB     -0.165000
     32 C32         4.4840    7.0240   -1.4150 c1        1 OQB     -0.038000
     33 C31         4.9940    7.4100   -0.2120 c1        1 OQB     -0.038000
     34 C17         4.2870    7.9780   -2.4360 c1        1 OQB     -0.092500
     35 C30         4.6130    9.3110   -2.2160 c1        1 OQB     -0.126500
     36 C18         5.1330    9.7040   -0.9900 c1        1 OQB     -0.126500
     37 C7          5.3260    8.7670    0.0140 c1        1 OQB     -0.092500
     38 H101       -4.8760   -6.2100   -2.8130 hc        1 OQB      0.080000
     39 H102       -3.7980   -7.3060   -3.2580 hc        1 OQB      0.080000
     40 H27        -5.0440   -7.5800   -0.7410 h1        1 OQB      0.163000
     41 H28        -2.4680   -8.5720   -1.6820 h4        1 OQB      0.174000
     42 HN3        -3.0200   -5.7360   -1.2060 hn        1 OQB      0.215000
     43 H12        -1.4450   -5.3140    1.5910 h4        1 OQB      0.178000
     44 H23        -4.9390   -3.3540    0.9330 ha        1 OQB      0.162000
     45 H24        -4.0340   -1.4420    1.9150 ha        1 OQB      0.144000
     46 H191       -1.0860   -1.2240    3.7360 h1        1 OQB      0.113500
     47 H192       -2.3130   -0.3560    3.1670 h1        1 OQB      0.113500
     48 HN6        -0.4860   -0.7520    1.2410 hn        1 OQB      0.234000
     49 H22        -0.4090    2.9280    0.4070 ha        1 OQB      0.161000
     50 H26         2.4260    0.4430    2.0730 ha        1 OQB      0.144000
     51 H25         4.1030    1.4120    0.6790 ha        1 OQB      0.142000
     52 H8          1.2980    4.0110   -0.8530 ha        1 OQB      0.146000
     53 HN2         4.2870    2.9830   -1.6270 hn        1 OQB      0.231000
     54 H29         5.1040    4.5090    1.2500 h4        1 OQB      0.185000
     55 H17         4.0320    7.7010   -3.3480 ha        1 OQB      0.151000
     56 H30         4.4340   10.0450   -2.8540 ha        1 OQB      0.136000
     57 H18         5.4710   10.6060   -0.7590 ha        1 OQB      0.136000
     58 H7          5.9220    9.0210    0.7490 ha        1 OQB      0.151000
@<TRIPOS>BOND
     1    1    2 1   
     2    2    3 1   
     3    2    4 1   
     4    4    5 1   
     5    4   38 1   
     6    4   39 1   
     7    5    6 1   
     8    5    8 1   
     9    5   40 1   
    10    6    7 1   
    11    6   41 1   
    12    8    9 1   
    13    8   42 1   
    14    9   10 1   
    15    9   11 1   
    16   11   12 1   
    17   11   14 1   
    18   12   13 1   
    19   12   43 1   
    20   14   44 1   
    21   15   16 1   
    22   15   45 1   
    23   16   17 1   
    24   17   18 1   
    25   17   46 1   
    26   17   47 1   
    27   18   19 1   
    28   18   48 1   
    29   19   20 1   
    30   19   21 1   
    31   21   22 1   
    32   21   23 1   
    33   22   26 1   
    34   22   49 1   
    35   23   50 1   
    36   24   25 1   
    37   24   51 1   
    38   25   27 1   
    39   26   52 1   
    40   27   28 1   
    41   27   53 1   
    42   28   29 1   
    43   28   31 1   
    44   29   30 1   
    45   29   54 1   
    46   32   33 1   
    47   32   34 1   
    48   33   37 1   
    49   34   55 1   
    50   35   36 1   
    51   35   56 1   
    52   36   57 1   
    53   37   58 1   
@<TRIPOS>SUBSTRUCTURE
     1 OQB         1 TEMP              0 ****  ****    0 ROOT
