@<TRIPOS>MOLECULE
OQR
   42    43     1     0     0
SMALL
bcc


@<TRIPOS>ATOM
      1 C8          0.4530   -0.9660   -0.6130 c3        1 OQR     -0.100400
      2 C9          1.9120   -0.6570   -0.3340 c3        1 OQR     -0.048100
      3 C6          2.1780   -0.5090    1.1210 ca        1 OQR     -0.064300
      4 C1          3.0330    0.4620    1.6240 ca        1 OQR     -0.100000
      5 C2          3.2890    0.5650    3.0000 ca        1 OQR      0.005700
      6 C10         4.2240    1.6150    3.5100 c3        1 OQR      0.160700
      7 O3          4.6230    2.4420    2.4260 oh        1 OQR     -0.610800
      8 C3          2.6490   -0.3400    3.8680 ca        1 OQR     -0.175200
      9 N2          2.8450   -0.2860    5.3450 no        1 OQR      0.314200
     10 O1          2.0990   -0.9280    6.0370 o         1 OQR     -0.197000
     11 O2          3.7220    0.3890    5.8050 o         1 OQR     -0.197000
     12 C4          1.7830   -1.3340    3.3750 ca        1 OQR     -0.066000
     13 C5          1.5400   -1.4180    2.0010 ca        1 OQR      0.025600
     14 N1          0.6470   -2.4130    1.4950 nu        1 OQR     -0.729600
     15 C7         -0.1740   -1.9670    0.3760 c3        1 OQR      0.163500
     16 C11        -1.4880   -1.3170    0.9030 c3        1 OQR      0.101800
     17 N3         -2.1530   -2.1290    1.9590 ny        1 OQR     -0.758000
     18 C14        -3.5170   -1.5950    2.3370 c3        1 OQR      0.130500
     19 C12        -4.5820   -2.0250    1.3380 c3        1 OQR     -0.134600
     20 C13        -3.8990   -2.0500    3.7400 c3        1 OQR     -0.134600
     21 H1         -0.1240   -0.0030   -0.6030 hc        1 OQR      0.067200
     22 H2          0.3640   -1.3870   -1.6500 hc        1 OQR      0.067200
     23 H3          2.2020    0.2770   -0.8870 hc        1 OQR      0.081200
     24 H4          2.5600   -1.4870   -0.7310 hc        1 OQR      0.081200
     25 H5          3.5340    1.1700    0.9370 ha        1 OQR      0.187000
     26 H6          3.7080    2.2430    4.2920 h1        1 OQR      0.073700
     27 H7          5.1210    1.1200    3.9780 h1        1 OQR      0.073700
     28 H8          5.3090    3.0270    2.7700 ho        1 OQR      0.428000
     29 H9          1.3130   -2.0460    4.0780 ha        1 OQR      0.174000
     30 H10         1.1720   -3.2340    1.2420 hn        1 OQR      0.406800
     31 H11        -0.4680   -2.8940   -0.2050 h1        1 OQR      0.072700
     32 H12        -2.1990   -1.2010    0.0380 hx        1 OQR      0.105700
     33 H13        -1.2660   -0.3020    1.3400 hx        1 OQR      0.105700
     34 H14        -1.5560   -2.1370    2.7990 hn        1 OQR      0.455800
     35 H16        -3.4270   -0.4660    2.3270 hx        1 OQR      0.106700
     36 H17        -4.7150   -3.1340    1.3340 hc        1 OQR      0.078200
     37 H18        -4.3430   -1.6810    0.3020 hc        1 OQR      0.078200
     38 H19        -5.5540   -1.5600    1.6410 hc        1 OQR      0.078200
     39 H20        -4.0100   -3.1600    3.7950 hc        1 OQR      0.078200
     40 H21        -3.1500   -1.7180    4.5000 hc        1 OQR      0.078200
     41 H22        -4.8850   -1.5870    4.0010 hc        1 OQR      0.078200
     42 H32        -2.2470   -3.0970    1.6350 hn        1 OQR      0.455800
@<TRIPOS>BOND
     1    1    2 1   
     2    1   15 1   
     3    1   21 1   
     4    1   22 1   
     5    2    3 1   
     6    2   23 1   
     7    2   24 1   
     8    3    4 ar  
     9    3   13 ar  
    10    4    5 ar  
    11    4   25 1   
    12    5    6 1   
    13    5    8 ar  
    14    6    7 1   
    15    6   26 1   
    16    6   27 1   
    17    7   28 1   
    18    8    9 1   
    19    8   12 ar  
    20    9   10 1   
    21    9   11 1   
    22   12   13 ar  
    23   12   29 1   
    24   13   14 1   
    25   14   15 1   
    26   14   30 1   
    27   15   16 1   
    28   15   31 1   
    29   16   17 1   
    30   16   32 1   
    31   16   33 1   
    32   17   18 1   
    33   17   34 1   
    34   17   42 1   
    35   18   19 1   
    36   18   20 1   
    37   18   35 1   
    38   19   36 1   
    39   19   37 1   
    40   19   38 1   
    41   20   39 1   
    42   20   40 1   
    43   20   41 1   
@<TRIPOS>SUBSTRUCTURE
     1 OQR         1 TEMP              0 ****  ****    0 ROOT
