@<TRIPOS>MOLECULE
OQR
   42    43     1     0     0
SMALL
bcc


@<TRIPOS>ATOM
      1 C8          0.4450   -0.8720   -0.6150 c3        1 OQR     -0.100400
      2 C9          1.9020   -0.5560   -0.3290 c3        1 OQR     -0.048100
      3 C6          2.1700   -0.4570    1.1290 ca        1 OQR     -0.064300
      4 C1          3.0180    0.5050    1.6630 ca        1 OQR     -0.100000
      5 C2          3.2760    0.5640    3.0410 ca        1 OQR      0.005700
      6 C10         4.2020    1.6060    3.5850 c3        1 OQR      0.160700
      7 O3          4.5880    2.4730    2.5290 oh        1 OQR     -0.610800
      8 C3          2.6480   -0.3770    3.8780 ca        1 OQR     -0.175200
      9 N2          2.8490   -0.3730    5.3560 no        1 OQR      0.314200
     10 O1          2.1120   -1.0460    6.0270 o         1 OQR     -0.197000
     11 O2          3.7210    0.2950    5.8370 o         1 OQR     -0.197000
     12 C4          1.7920   -1.3630    3.3540 ca        1 OQR     -0.066000
     13 C5          1.5450   -1.4020    1.9790 ca        1 OQR      0.025600
     14 N1          0.6610   -2.3880    1.4410 nh        1 OQR     -0.729600
     15 C7         -0.1680   -1.9120    0.3410 c3        1 OQR      0.163500
     16 C11        -1.4860   -1.2940    0.8940 c3        1 OQR      0.101800
     17 N3         -2.1400   -2.1480    1.9240 n4        1 OQR     -0.758000
     18 C14        -3.5080   -1.6420    2.3240 c3        1 OQR      0.130500
     19 C12        -4.5720   -2.0480    1.3140 c3        1 OQR     -0.134600
     20 C13        -3.8800   -2.1480    3.7120 c3        1 OQR     -0.134600
     21 H1          0.3580   -1.2580   -1.6650 hc        1 OQR      0.067200
     22 H2         -0.1420    0.0850   -0.5710 hc        1 OQR      0.067200
     23 H3          2.5570   -1.3660   -0.7560 hc        1 OQR      0.081200
     24 H4          2.1800    0.3990   -0.8510 hc        1 OQR      0.081200
     25 H5          3.5080    1.2420    1.0000 ha        1 OQR      0.187000
     26 H6          5.1060    1.1040    4.0330 h1        1 OQR      0.073700
     27 H7          3.6820    2.2000    4.3890 h1        1 OQR      0.073700
     28 H8          5.2700    3.0540    2.8910 ho        1 OQR      0.428000
     29 H9          1.3310   -2.1040    4.0330 ha        1 OQR      0.174000
     30 H10         1.1940   -3.1940    1.1580 hn        1 OQR      0.406800
     31 H11        -0.4550   -2.8220   -0.2710 h1        1 OQR      0.072700
     32 H12        -2.2020   -1.1560    0.0350 hx        1 OQR      0.105700
     33 H13        -1.2730   -0.2930    1.3650 hx        1 OQR      0.105700
     34 H14        -1.5400   -2.1800    2.7600 hn        1 OQR      0.455800
     35 H16        -3.4290   -0.5120    2.3530 hx        1 OQR      0.106700
     36 H17        -4.3400   -1.6660    0.2900 hc        1 OQR      0.078200
     37 H18        -5.5480   -1.6030    1.6370 hc        1 OQR      0.078200
     38 H19        -4.6940   -3.1580    1.2730 hc        1 OQR      0.078200
     39 H20        -3.1320   -1.8340    4.4810 hc        1 OQR      0.078200
     40 H21        -3.9800   -3.2610    3.7290 hc        1 OQR      0.078200
     41 H22        -4.8690   -1.7050    3.9920 hc        1 OQR      0.078200
     42 H32        -2.2250   -3.1050    1.5660 hn        1 OQR      0.455800
@<TRIPOS>BOND
     1    1    2 1   
     2    1   15 1   
     3    1   21 1   
     4    1   22 1   
     5    2    3 1   
     6    2   23 1   
     7    2   24 1   
     8    3    4 ar  
     9    3   13 ar  
    10    4    5 ar  
    11    4   25 1   
    12    5    6 1   
    13    5    8 ar  
    14    6    7 1   
    15    6   26 1   
    16    6   27 1   
    17    7   28 1   
    18    8    9 1   
    19    8   12 ar  
    20    9   10 1   
    21    9   11 1   
    22   12   13 ar  
    23   12   29 1   
    24   13   14 1   
    25   14   15 1   
    26   14   30 1   
    27   15   16 1   
    28   15   31 1   
    29   16   17 1   
    30   16   32 1   
    31   16   33 1   
    32   17   18 1   
    33   17   34 1   
    34   17   42 1   
    35   18   19 1   
    36   18   20 1   
    37   18   35 1   
    38   19   36 1   
    39   19   37 1   
    40   19   38 1   
    41   20   39 1   
    42   20   40 1   
    43   20   41 1   
@<TRIPOS>SUBSTRUCTURE
     1 OQR         1 TEMP              0 ****  ****    0 ROOT
