@<TRIPOS>MOLECULE
OR5
   25    24     1     0     0
SMALL
bcc


@<TRIPOS>ATOM
      1 C1'         3.7950   -0.6060    1.1200 c3        1 OR5      0.119400
      2 O1'         5.1990   -0.4430    0.9850 oh        1 OR5     -0.642800
      3 C2'         3.0380   -0.1010   -0.1120 c3        1 OR5      0.104100
      4 O2'         3.4540    1.2410   -0.3410 oh        1 OR5     -0.664800
      5 C3'         1.5200   -0.2470    0.1070 c3        1 OR5      0.125100
      6 O3'         1.2790   -1.6170    0.3360 oh        1 OR5     -0.685800
      7 C4'         0.7270    0.2620   -1.1140 c3        1 OR5      0.079100
      8 O4'         0.7530    1.6860   -1.1150 oh        1 OR5     -0.672800
      9 C5'        -0.7390   -0.2360   -1.1190 c3        1 OR5      0.199400
     10 O5'        -1.4960    0.4990   -0.2410 os        1 OR5     -0.574200
     11 P          -2.1310   -0.4320    1.0880 p5        1 OR5      1.326900
     12 O1P        -2.7520   -1.6000    0.3800 o         1 OR5     -0.921833
     13 O2P        -0.8210   -0.7570    1.7780 o         1 OR5     -0.921833
     14 O3P        -3.0300    0.5460    1.7770 o         1 OR5     -0.921833
     15 H1'1        3.6220   -1.7060    1.2450 h1        1 OR5      0.053700
     16 H1'2        3.4480   -0.0590    2.0360 h1        1 OR5      0.053700
     17 HO'1        5.3380    0.4380    0.6170 ho        1 OR5      0.401000
     18 H2'         3.3590   -0.6890   -1.0160 h1        1 OR5      0.038700
     19 HO'2        2.6660    1.8000   -0.3550 ho        1 OR5      0.439000
     20 H3'         1.2070    0.3570    1.0080 h1        1 OR5      0.085700
     21 HO'3        0.4250   -1.6530    0.8550 ho        1 OR5      0.507000
     22 H4'         1.2460   -0.0430   -2.0620 h1        1 OR5      0.017700
     23 HO'4       -0.0130    1.9680   -0.5870 ho        1 OR5      0.442000
     24 H5'1       -1.1210   -0.0760   -2.1720 h1        1 OR5      0.006700
     25 H5'2       -0.7770   -1.3350   -0.8830 h1        1 OR5      0.006700
@<TRIPOS>BOND
     1    1    2 1   
     2    1    3 1   
     3    1   15 1   
     4    1   16 1   
     5    2   17 1   
     6    3    4 1   
     7    3    5 1   
     8    3   18 1   
     9    4   19 1   
    10    5    6 1   
    11    5    7 1   
    12    5   20 1   
    13    6   21 1   
    14    7    8 1   
    15    7    9 1   
    16    7   22 1   
    17    8   23 1   
    18    9   10 1   
    19    9   24 1   
    20    9   25 1   
    21   10   11 1   
    22   11   12 1   
    23   11   13 1   
    24   11   14 1   
@<TRIPOS>SUBSTRUCTURE
     1 OR5         1 TEMP              0 ****  ****    0 ROOT
