@<TRIPOS>MOLECULE
OR5
   25    24     1     0     0
SMALL
bcc


@<TRIPOS>ATOM
      1 C1'         0.1300    0.7130    0.0230 c3        1 OR5      0.117400
      2 O1'        -0.4760    0.1020    1.1520 oh        1 OR5     -0.652800
      3 C2'         1.6120    0.3340   -0.1080 c3        1 OR5      0.148100
      4 O2'         2.2050    0.5040    1.1660 oh        1 OR5     -0.675800
      5 C3'         2.2910    1.1800   -1.1880 c3        1 OR5      0.044100
      6 O3'         1.3880    1.3350   -2.2820 oh        1 OR5     -0.647800
      7 C4'         3.6090    0.5500   -1.6880 c3        1 OR5      0.097100
      8 O4'         4.3040   -0.0310   -0.6070 oh        1 OR5     -0.655800
      9 C5'         4.4680    1.6550   -2.3690 c3        1 OR5      0.194400
     10 O5'         5.3730    2.2320   -1.5160 os        1 OR5     -0.573200
     11 P           4.7860    3.5130   -0.5030 p5        1 OR5      1.330900
     12 O1P         3.6910    4.1080   -1.3490 o         1 OR5     -0.928167
     13 O2P         4.2400    2.6110    0.5890 o         1 OR5     -0.928167
     14 O3P         5.9890    4.3480   -0.2040 o         1 OR5     -0.928167
     15 H1'1       -0.4470    0.3480   -0.8660 h1        1 OR5      0.036200
     16 H1'2        0.0280    1.8260    0.1100 h1        1 OR5      0.036200
     17 HO'1        0.1740    0.1440    1.8660 ho        1 OR5      0.416000
     18 H2'         1.6990   -0.7610   -0.3540 h1        1 OR5      0.029700
     19 HO'2        2.9190    1.1780    1.1020 ho        1 OR5      0.501000
     20 H3'         2.5620    2.2010   -0.7470 h1        1 OR5      0.153700
     21 HO'3        1.6430    2.1720   -2.6900 ho        1 OR5      0.416000
     22 H4'         3.3910   -0.2870   -2.4030 h1        1 OR5      0.013700
     23 HO'4        4.6620    0.7300   -0.0890 ho        1 OR5      0.474000
     24 H5'1        3.7820    2.4360   -2.8040 h1        1 OR5     -0.009800
     25 H5'2        5.0390    1.1620   -3.2110 h1        1 OR5     -0.009800
@<TRIPOS>BOND
     1    1    2 1   
     2    1    3 1   
     3    1   15 1   
     4    1   16 1   
     5    2   17 1   
     6    3    4 1   
     7    3    5 1   
     8    3   18 1   
     9    4   19 1   
    10    5    6 1   
    11    5    7 1   
    12    5   20 1   
    13    6   21 1   
    14    7    8 1   
    15    7    9 1   
    16    7   22 1   
    17    8   23 1   
    18    9   10 1   
    19    9   24 1   
    20    9   25 1   
    21   10   11 1   
    22   11   12 1   
    23   11   13 1   
    24   11   14 1   
@<TRIPOS>SUBSTRUCTURE
     1 OR5         1 TEMP              0 ****  ****    0 ROOT
