@<TRIPOS>MOLECULE
OR5
   25    24     1     0     0
SMALL
bcc


@<TRIPOS>ATOM
      1 C1'         0.2610    0.8010    0.2420 c3        1 OR5      0.107400
      2 O1'        -0.2040    0.2300    1.4550 oh        1 OR5     -0.652800
      3 C2'         1.6840    0.3320   -0.0930 c3        1 OR5      0.149100
      4 O2'         2.4780    0.4520    1.0720 oh        1 OR5     -0.674800
      5 C3'         2.2520    1.1450   -1.2590 c3        1 OR5      0.037100
      6 O3'         1.2440    1.2640   -2.2640 oh        1 OR5     -0.644800
      7 C4'         3.5100    0.5090   -1.8830 c3        1 OR5      0.088100
      8 O4'         4.1230   -0.4070   -0.9950 oh        1 OR5     -0.638800
      9 C5'         4.5050    1.6260   -2.2930 c3        1 OR5      0.182400
     10 O5'         5.1940    2.1140   -1.2150 os        1 OR5     -0.574200
     11 P           4.6400    3.6180   -0.5420 p5        1 OR5      1.329900
     12 O1P         3.8610    4.2190   -1.6800 o         1 OR5     -0.926833
     13 O2P         3.7470    3.0330    0.5350 o         1 OR5     -0.926833
     14 O3P         5.8980    4.3040   -0.1120 o         1 OR5     -0.926833
     15 H1'1       -0.4600    0.4690   -0.5480 h1        1 OR5      0.039700
     16 H1'2        0.2410    1.9190    0.3320 h1        1 OR5      0.039700
     17 HO'1        0.5490    0.2370    2.0630 ho        1 OR5      0.416000
     18 H2'         1.6760   -0.7660   -0.3360 h1        1 OR5      0.041700
     19 HO'2        2.9340    1.3260    1.0570 ho        1 OR5      0.500000
     20 H3'         2.5400    2.1800   -0.8590 h1        1 OR5      0.160700
     21 HO'3        1.4690    2.0750   -2.7370 ho        1 OR5      0.409000
     22 H4'         3.2180   -0.1060   -2.7770 h1        1 OR5      0.019700
     23 HO'4        4.5280    0.1350   -0.2980 ho        1 OR5      0.440000
     24 H5'1        3.9340    2.4410   -2.8220 h1        1 OR5      0.002200
     25 H5'2        5.2400    1.1580   -3.0150 h1        1 OR5      0.002200
@<TRIPOS>BOND
     1    1    2 1   
     2    1    3 1   
     3    1   15 1   
     4    1   16 1   
     5    2   17 1   
     6    3    4 1   
     7    3    5 1   
     8    3   18 1   
     9    4   19 1   
    10    5    6 1   
    11    5    7 1   
    12    5   20 1   
    13    6   21 1   
    14    7    8 1   
    15    7    9 1   
    16    7   22 1   
    17    8   23 1   
    18    9   10 1   
    19    9   24 1   
    20    9   25 1   
    21   10   11 1   
    22   11   12 1   
    23   11   13 1   
    24   11   14 1   
@<TRIPOS>SUBSTRUCTURE
     1 OR5         1 TEMP              0 ****  ****    0 ROOT
