@<TRIPOS>MOLECULE
OR5
   25    24     1     0     0
SMALL
bcc


@<TRIPOS>ATOM
      1 C1'        -2.8140   -1.1530    0.9310 c3        1 OR5      0.119400
      2 O1'        -3.3790   -2.4620    1.2180 oh        1 OR5     -0.642800
      3 C2'        -1.3340   -1.2770    0.7390 c3        1 OR5      0.104100
      4 O2'        -0.7110   -1.4300    1.9850 oh        1 OR5     -0.664800
      5 C3'        -0.8080   -0.0190    0.0580 c3        1 OR5      0.125100
      6 O3'        -1.4270    0.1270   -1.1910 oh        1 OR5     -0.685800
      7 C4'         0.6760   -0.1310   -0.1290 c3        1 OR5      0.079100
      8 O4'         1.2890   -0.4400    1.1180 oh        1 OR5     -0.672800
      9 C5'         1.2300    1.2140   -0.6610 c3        1 OR5      0.199400
     10 O5'         2.6090    1.0850   -0.9140 os        1 OR5     -0.574200
     11 P           3.4180    2.3750   -1.4360 p5        1 OR5      1.326900
     12 O1P         4.8770    2.0420   -1.5370 o         1 OR5     -0.921833
     13 O2P         3.2280    3.5100   -0.4670 o         1 OR5     -0.921833
     14 O3P         2.8980    2.7820   -2.8000 o         1 OR5     -0.921833
     15 H1'1       -3.2340   -0.7820    0.0850 h1        1 OR5      0.053700
     16 H1'2       -2.9970   -0.5390    1.6890 h1        1 OR5      0.053700
     17 HO'1       -4.2760   -2.3840    1.3380 ho        1 OR5      0.401000
     18 H2'        -1.1420   -2.0530    0.1820 h1        1 OR5      0.038700
     19 HO'2       -0.6150   -2.3250    2.1720 ho        1 OR5      0.439000
     20 H3'        -1.0050    0.7470    0.6050 h1        1 OR5      0.085700
     21 HO'3       -1.2250   -0.5510   -1.6950 ho        1 OR5      0.507000
     22 H4'         0.8770   -0.8630   -0.7920 h1        1 OR5      0.017700
     23 HO'4        2.0200   -0.8620    0.9800 ho        1 OR5      0.442000
     24 H5'1        1.0820    1.9300    0.0210 h1        1 OR5      0.006700
     25 H5'2        0.7620    1.4570   -1.5020 h1        1 OR5      0.006700
@<TRIPOS>BOND
     1    1    2 1   
     2    1    3 1   
     3    1   15 1   
     4    1   16 1   
     5    2   17 1   
     6    3    4 1   
     7    3    5 1   
     8    3   18 1   
     9    4   19 1   
    10    5    6 1   
    11    5    7 1   
    12    5   20 1   
    13    6   21 1   
    14    7    8 1   
    15    7    9 1   
    16    7   22 1   
    17    8   23 1   
    18    9   10 1   
    19    9   24 1   
    20    9   25 1   
    21   10   11 1   
    22   11   12 1   
    23   11   13 1   
    24   11   14 1   
@<TRIPOS>SUBSTRUCTURE
     1 OR5         1 TEMP              0 ****  ****    0 ROOT
