@<TRIPOS>MOLECULE
OR8
   45    47     1     0     0
SMALL
bcc


@<TRIPOS>ATOM
      1 CL         -4.7390   -1.9960    0.2730 cl        1 OR8      0.008600
      2 C18        -4.5790   -0.4140   -0.2460 cc        1 OR8      0.110100
      3 N19        -5.5040    0.2350   -1.0600 na        1 OR8      0.115400
      4 C26        -6.7360   -0.3490   -1.5390 c3        1 OR8      0.026600
      5 N20        -5.1150    1.4980   -1.3270 nc        1 OR8     -0.508800
      6 C21        -3.9300    1.7010   -0.6960 cd        1 OR8      0.434600
      7 C24        -3.1610    2.9610   -0.7360 c3        1 OR8     -0.143400
      8 C15        -3.5280    0.4970    0.0280 cd        1 OR8     -0.559800
      9 S14        -2.1870    0.3010    0.9830 sy        1 OR8      1.552200
     10 O16        -1.5450    1.5540    1.1190 o         1 OR8     -0.661300
     11 O17        -2.5480   -0.3510    2.1810 o         1 OR8     -0.661300
     12 N13        -1.2540   -0.7100    0.1260 n3        1 OR8     -0.916100
     13 C12        -0.4440   -0.3230   -0.9900 c3        1 OR8      0.284100
     14 C5          1.0300   -0.2490   -0.6990 ca        1 OR8     -0.119300
     15 C6          1.9180   -1.1290   -1.3210 ca        1 OR8     -0.115000
     16 C1          3.2860   -1.0400   -1.0730 ca        1 OR8     -0.124500
     17 C4          1.5210    0.7220    0.1800 ca        1 OR8     -0.115000
     18 C3          2.8870    0.8110    0.4310 ca        1 OR8     -0.124500
     19 C2          3.7860   -0.0710   -0.1910 ca        1 OR8      0.002000
     20 C7          5.1990    0.0360    0.0690 cc        1 OR8     -0.275600
     21 C11         5.9520    1.1850    0.2700 cd        1 OR8      0.281000
     22 C22         5.6800    2.6200    0.3020 c3        1 OR8     -0.142400
     23 O10         7.2920    0.7880    0.4850 os        1 OR8     -0.118100
     24 N9          7.3910   -0.5240    0.4380 nd        1 OR8     -0.365300
     25 C8          6.1770   -1.0580    0.1910 cc        1 OR8      0.336600
     26 C23         5.8800   -2.4980    0.0760 c3        1 OR8     -0.135400
     27 H261       -7.3750   -0.6330   -0.6610 h1        1 OR8      0.071367
     28 H262       -7.2900    0.3840   -2.1830 h1        1 OR8      0.071367
     29 H263       -6.4950   -1.2670   -2.1400 h1        1 OR8      0.071367
     30 H241       -3.0070    3.3360    0.3100 hc        1 OR8      0.070700
     31 H242       -2.1520    2.7670   -1.1810 hc        1 OR8      0.070700
     32 H243       -3.6790    3.7490   -1.3360 hc        1 OR8      0.070700
     33 H13        -1.1350   -1.6560    0.4020 hn        1 OR8      0.449800
     34 H121       -0.6150   -1.0460   -1.8410 h1        1 OR8      0.052200
     35 H122       -0.7830    0.7000   -1.3360 h1        1 OR8      0.052200
     36 H6          1.5410   -1.8950   -2.0160 ha        1 OR8      0.148500
     37 H4          0.8200    1.4180    0.6730 ha        1 OR8      0.148500
     38 H1          3.9800   -1.7290   -1.5780 ha        1 OR8      0.137000
     39 H3          3.2690    1.5750    1.1260 ha        1 OR8      0.137000
     40 H221        5.4720    2.9450    1.3540 hc        1 OR8      0.068367
     41 H222        6.5600    3.1970   -0.0780 hc        1 OR8      0.068367
     42 H223        4.7850    2.8520   -0.3290 hc        1 OR8      0.068367
     43 H231        5.9890   -2.8240   -0.9900 hc        1 OR8      0.059700
     44 H232        6.5750   -3.1110    0.7030 hc        1 OR8      0.059700
     45 H233        4.8300   -2.6930    0.4070 hc        1 OR8      0.059700
@<TRIPOS>BOND
     1    1    2 1   
     2    2    3 1   
     3    2    8 2   
     4    3    4 1   
     5    3    5 1   
     6    4   27 1   
     7    4   28 1   
     8    4   29 1   
     9    5    6 2   
    10    6    7 1   
    11    6    8 1   
    12    7   30 1   
    13    7   31 1   
    14    7   32 1   
    15    8    9 1   
    16    9   10 2   
    17    9   11 2   
    18    9   12 1   
    19   12   13 1   
    20   12   33 1   
    21   13   14 1   
    22   13   34 1   
    23   13   35 1   
    24   14   15 ar  
    25   14   17 ar  
    26   15   16 ar  
    27   15   36 1   
    28   16   19 ar  
    29   16   38 1   
    30   17   18 ar  
    31   17   37 1   
    32   18   19 ar  
    33   18   39 1   
    34   19   20 1   
    35   20   21 2   
    36   20   25 1   
    37   21   22 1   
    38   21   23 1   
    39   22   40 1   
    40   22   41 1   
    41   22   42 1   
    42   23   24 1   
    43   24   25 2   
    44   25   26 1   
    45   26   43 1   
    46   26   44 1   
    47   26   45 1   
@<TRIPOS>SUBSTRUCTURE
     1 OR8         1 TEMP              0 ****  ****    0 ROOT
