@<TRIPOS>MOLECULE
OR8
   45    39     1     0     0
SMALL
bcc


@<TRIPOS>ATOM
      1 CL         -3.0930    5.2980    0.2610 cl        1 OR8      0.094000
      2 C18        -2.9730    3.9590   -0.8440 c2        1 OR8      0.052000
      3 N19        -3.9830    3.4450   -1.5810 n2        1 OR8     -0.097000
      4 C26        -5.3520    3.8050   -1.4820 c2        1 OR8     -0.144000
      5 N20        -3.4630    2.4550   -2.3830 n2        1 OR8     -0.076000
      6 C21        -2.1370    2.3660   -2.1340 c1        1 OR8      0.017000
      7 C24        -1.1620    1.4650   -2.8440 c2        1 OR8     -0.144000
      8 C15        -1.8230    3.2950   -1.1810 c1        1 OR8     -0.945000
      9 S14        -0.1810    3.6850   -0.5980 ss        1 OR8      2.897000
     10 O16         0.7360    3.8600   -1.6950 o         1 OR8     -0.943500
     11 O17        -0.1390    4.9880    0.0130 o         1 OR8     -0.943500
     12 N13         0.3570    2.5000    0.4610 n2        1 OR8     -0.885000
     13 C12         1.7250    2.0330    0.3900 c3        1 OR8      0.031000
     14 C5          1.7580    0.5020    0.5910 c2        1 OR8     -0.110000
     15 C6          2.2470   -0.0340    1.7790 c2        1 OR8     -0.117000
     16 C1          2.2120   -1.4120    1.9900 c1        1 OR8     -0.124000
     17 C4          1.2340   -0.3380   -0.3850 c1        1 OR8     -0.119000
     18 C3          1.1990   -1.7160   -0.1740 c1        1 OR8     -0.127000
     19 C2          1.6880   -2.2510    1.0130 c1        1 OR8      0.001000
     20 C7          1.5990   -3.7600    1.2670 c2        1 OR8     -0.145000
     21 C11         2.4400   -4.7170    0.7440 c1        1 OR8     -0.008000
     22 C22         3.7150   -4.4540   -0.0470 c2        1 OR8     -0.144000
     23 O10         1.9530   -5.9350    1.0880 os        1 OR8     -0.061000
     24 N9          0.7930   -5.7410    1.8350 n2        1 OR8     -0.030000
     25 C8          0.5810   -4.4100    1.9410 c1        1 OR8     -0.086000
     26 C23        -0.5830   -3.7440    2.6590 c2        1 OR8     -0.144000
     27 H261       -5.6160    3.8230   -0.5410 ha        1 OR8      0.107667
     28 H262       -5.4860    4.6890   -1.8760 ha        1 OR8      0.107667
     29 H263       -5.8970    3.1480   -1.9610 ha        1 OR8      0.107667
     30 H241       -0.3920    1.9870   -3.1410 ha        1 OR8      0.107667
     31 H242       -0.8640    0.7600   -2.2320 ha        1 OR8      0.107667
     32 H243       -1.6020    1.0580   -3.6230 ha        1 OR8      0.107667
     33 H13        -0.2070    2.1590    1.0840 hn        1 OR8      0.237000
     34 H121        2.2560    2.4670    1.0900 h1        1 OR8      0.100500
     35 H122        2.1000    2.2550   -0.4890 h1        1 OR8      0.100500
     36 H6          2.6130    0.5520    2.4610 ha        1 OR8      0.132000
     37 H4          0.8930    0.0360   -1.2140 ha        1 OR8      0.165000
     38 H1          2.5550   -1.7860    2.8220 ha        1 OR8      0.137000
     39 H3          0.8350   -2.3010   -0.8540 ha        1 OR8      0.136000
     40 H221        4.2440   -3.7720    0.4080 ha        1 OR8      0.107667
     41 H222        4.2340   -5.2800   -0.1130 ha        1 OR8      0.107667
     42 H223        3.4830   -4.1420   -0.9450 ha        1 OR8      0.107667
     43 H231       -0.2400   -3.1780    3.3840 ha        1 OR8      0.107667
     44 H232       -1.0850   -3.1920    2.0240 ha        1 OR8      0.107667
     45 H233       -1.1730   -4.4300    3.0310 ha        1 OR8      0.107667
@<TRIPOS>BOND
     1    1    2 1   
     2    2    3 1   
     3    2    8 1   
     4    3    5 1   
     5    4   27 1   
     6    4   28 1   
     7    4   29 1   
     8    5    6 1   
     9    6    8 1   
    10    7   30 1   
    11    7   31 1   
    12    7   32 1   
    13    9   10 1   
    14    9   11 1   
    15   12   13 1   
    16   12   33 1   
    17   13   14 1   
    18   13   34 1   
    19   13   35 1   
    20   14   15 1   
    21   14   17 1   
    22   15   16 1   
    23   15   36 1   
    24   16   38 1   
    25   17   37 1   
    26   18   19 1   
    27   18   39 1   
    28   19   20 1   
    29   20   21 1   
    30   20   25 1   
    31   21   23 1   
    32   22   40 1   
    33   22   41 1   
    34   22   42 1   
    35   23   24 1   
    36   24   25 1   
    37   26   43 1   
    38   26   44 1   
    39   26   45 1   
@<TRIPOS>SUBSTRUCTURE
     1 OR8         1 TEMP              0 ****  ****    0 ROOT
