@<TRIPOS>MOLECULE
OR8
   46    48     1     0     0
SMALL
bcc


@<TRIPOS>ATOM
      1 Cl          0.2000   -1.3760   -1.6170 cl        1 OR8      0.076600
      2 C18         1.4040   -0.6480   -0.7310 cc        1 OR8      0.143100
      3 N19         1.3590   -0.4250    0.6280 na        1 OR8      0.166400
      4 C26         0.2660   -0.8180    1.5020 c3        1 OR8      0.007600
      5 N20         2.4830    0.1880    1.0720 nc        1 OR8     -0.462800
      6 C21         3.2960    0.3790    0.0120 cd        1 OR8      0.470600
      7 C24         4.6360    0.9970    0.0710 c3        1 OR8     -0.164400
      8 C15         2.6630   -0.1420   -1.2170 cd        1 OR8     -0.761800
      9 S14         3.3240   -0.2080   -2.6370 sy        1 OR8      1.535200
     10 O16         4.6910   -0.0170   -2.6570 o         1 OR8     -0.580800
     11 O17         2.7210   -1.0590   -3.5420 o         1 OR8     -0.580800
     12 N13         2.6800    1.4730   -3.3100 ny        1 OR8     -0.703900
     13 C12         3.7560    2.3220   -3.8860 c3        1 OR8      0.178100
     14 C5          3.2330    3.5910   -4.4680 ca        1 OR8     -0.186300
     15 C6          3.3200    4.7870   -3.7480 ca        1 OR8     -0.098500
     16 C1          2.8570    5.9750   -4.3060 ca        1 OR8     -0.124500
     17 C4          2.6850    3.5960   -5.7550 ca        1 OR8     -0.098500
     18 C3          2.2200    4.7820   -6.3130 ca        1 OR8     -0.124500
     19 C2          2.2950    5.9890   -5.5930 ca        1 OR8      0.063000
     20 C7          1.8160    7.2100   -6.1810 cc        1 OR8     -0.323600
     21 C11         1.8590    7.5970   -7.5180 cd        1 OR8      0.315000
     22 C22         2.3540    7.0140   -8.7630 c3        1 OR8     -0.153400
     23 O10         1.2750    8.8750   -7.6080 os        1 OR8     -0.100100
     24 N9          0.8720    9.2830   -6.4220 nd        1 OR8     -0.342300
     25 C8          1.1620    8.3410   -5.5010 cc        1 OR8      0.342600
     26 C23         0.8580    8.4360   -4.0610 c3        1 OR8     -0.137400
     27 H261       -0.6860   -0.3620    1.1180 h1        1 OR8      0.096367
     28 H262        0.4610   -0.4580    2.5500 h1        1 OR8      0.096367
     29 H263        0.1850   -1.9390    1.5000 h1        1 OR8      0.096367
     30 H241        4.6840    1.8700   -0.6280 hc        1 OR8      0.087033
     31 H242        4.8860    1.3510    1.1030 hc        1 OR8      0.087033
     32 H243        5.4100    0.2480   -0.2470 hc        1 OR8      0.087033
     33 H13         2.2060    2.0020   -2.5820 hn        1 OR8      0.442300
     34 H121        4.2790    1.7140   -4.6830 hx        1 OR8      0.105200
     35 H122        4.5010    2.5360   -3.0640 hx        1 OR8      0.105200
     36 H6          3.7730    4.8000   -2.7440 ha        1 OR8      0.136500
     37 H4          2.6320    2.6630   -6.3380 ha        1 OR8      0.136500
     38 H1          2.9470    6.9170   -3.7400 ha        1 OR8      0.156500
     39 H3          1.7900    4.7820   -7.3280 ha        1 OR8      0.156500
     40 H221        3.2210    6.3390   -8.5540 hc        1 OR8      0.076033
     41 H222        2.6770    7.8190   -9.4730 hc        1 OR8      0.076033
     42 H223        1.5400    6.4200   -9.2550 hc        1 OR8      0.076033
     43 H231        1.7270    8.8890   -3.5180 hc        1 OR8      0.061700
     44 H232        0.6620    7.4170   -3.6460 hc        1 OR8      0.061700
     45 H233       -0.0410    9.0780   -3.8750 hc        1 OR8      0.061700
     46 H132        1.9910    1.2960   -4.0420 hn        1 OR8      0.442300
@<TRIPOS>BOND
     1    1    2 1   
     2    2    3 1   
     3    2    8 2   
     4    3    4 1   
     5    3    5 1   
     6    4   27 1   
     7    4   28 1   
     8    4   29 1   
     9    5    6 2   
    10    6    7 1   
    11    6    8 1   
    12    7   30 1   
    13    7   31 1   
    14    7   32 1   
    15    8    9 1   
    16    9   10 2   
    17    9   11 2   
    18    9   12 1   
    19   12   13 1   
    20   12   33 1   
    21   12   46 1   
    22   13   14 1   
    23   13   34 1   
    24   13   35 1   
    25   14   15 ar  
    26   14   17 ar  
    27   15   16 ar  
    28   15   36 1   
    29   16   19 ar  
    30   16   38 1   
    31   17   18 ar  
    32   17   37 1   
    33   18   19 ar  
    34   18   39 1   
    35   19   20 1   
    36   20   21 2   
    37   20   25 1   
    38   21   22 1   
    39   21   23 1   
    40   22   40 1   
    41   22   41 1   
    42   22   42 1   
    43   23   24 1   
    44   24   25 2   
    45   25   26 1   
    46   26   43 1   
    47   26   44 1   
    48   26   45 1   
@<TRIPOS>SUBSTRUCTURE
     1 OR8         1 TEMP              0 ****  ****    0 ROOT
