@<TRIPOS>MOLECULE
OR8
   46    48     1     0     0
SMALL
bcc


@<TRIPOS>ATOM
      1 CL          0.2620   -1.3760   -1.5480 cl        1 OR8      0.076600
      2 C18         1.4570   -0.6210   -0.6720 cc        1 OR8      0.144100
      3 N19         1.4090   -0.3800    0.6840 na        1 OR8      0.165400
      4 C26         0.3210   -0.7750    1.5640 c3        1 OR8      0.007600
      5 N20         2.5250    0.2530    1.1180 nc        1 OR8     -0.462800
      6 C21         3.3360    0.4400    0.0560 cd        1 OR8      0.470600
      7 C24         4.6680    1.0760    0.1050 c3        1 OR8     -0.164400
      8 C15         2.7090   -0.1060   -1.1660 cd        1 OR8     -0.761800
      9 S14         3.3700   -0.1830   -2.5850 sy        1 OR8      1.535200
     10 O16         4.7350    0.0250   -2.6080 o         1 OR8     -0.580800
     11 O17         2.7770   -1.0530   -3.4780 o         1 OR8     -0.580800
     12 N13         2.7060    1.4810   -3.2800 n4        1 OR8     -0.703900
     13 C12         3.7700    2.3330   -3.8750 c3        1 OR8      0.178100
     14 C5          3.2310    3.5870   -4.4720 ca        1 OR8     -0.186300
     15 C6          3.3170    4.7960   -3.7750 ca        1 OR8     -0.098500
     16 C1          2.8400    5.9710   -4.3480 ca        1 OR8     -0.124500
     17 C4          2.6680    3.5650   -5.7530 ca        1 OR8     -0.098500
     18 C3          2.1890    4.7380   -6.3260 ca        1 OR8     -0.124500
     19 C2          2.2630    5.9580   -5.6290 ca        1 OR8      0.063000
     20 C7          1.7680    7.1650   -6.2330 cc        1 OR8     -0.323600
     21 C11         1.7930    7.5280   -7.5760 cd        1 OR8      0.315000
     22 C22         2.2770    6.9270   -8.8170 c3        1 OR8     -0.153400
     23 O10         1.1990    8.8010   -7.6830 os        1 OR8     -0.100100
     24 N9          0.8060    9.2260   -6.4990 nd        1 OR8     -0.342300
     25 C8          1.1140    8.3040   -5.5650 cc        1 OR8      0.342600
     26 C23         0.8260    8.4220   -4.1230 c3        1 OR8     -0.137400
     27 H261       -0.6360   -0.3370    1.1730 h1        1 OR8      0.096367
     28 H262        0.5120   -0.3990    2.6060 h1        1 OR8      0.096367
     29 H263        0.2550   -1.8970    1.5770 h1        1 OR8      0.096367
     30 H241        4.7050    1.9380   -0.6070 hc        1 OR8      0.087033
     31 H242        4.9130    1.4480    1.1330 hc        1 OR8      0.087033
     32 H243        5.4500    0.3320   -0.2010 hc        1 OR8      0.087033
     33 H13         2.2300    2.0160   -2.5580 hn        1 OR8      0.442300
     34 H121        4.2950    1.7180   -4.6640 hx        1 OR8      0.105200
     35 H122        4.5170    2.5660   -3.0600 hx        1 OR8      0.105200
     36 H6          3.7810    4.8300   -2.7770 ha        1 OR8      0.136000
     37 H4          2.6160    2.6220   -6.3190 ha        1 OR8      0.136000
     38 H1          2.9290    6.9230   -3.8010 ha        1 OR8      0.156500
     39 H3          1.7470    4.7160   -7.3360 ha        1 OR8      0.156500
     40 H221        1.4630    6.3180   -9.2880 hc        1 OR8      0.076033
     41 H222        3.1520    6.2620   -8.6060 hc        1 OR8      0.076033
     42 H223        2.5860    7.7210   -9.5450 hc        1 OR8      0.076033
     43 H231        1.6980    8.8900   -3.6000 hc        1 OR8      0.061700
     44 H232        0.6420    7.4080   -3.6890 hc        1 OR8      0.061700
     45 H233       -0.0750    9.0600   -3.9390 hc        1 OR8      0.061700
     46 H132        2.0150    1.2860   -4.0060 hn        1 OR8      0.442300
@<TRIPOS>BOND
     1    1    2 1   
     2    2    3 1   
     3    2    8 2   
     4    3    4 1   
     5    3    5 1   
     6    4   27 1   
     7    4   28 1   
     8    4   29 1   
     9    5    6 2   
    10    6    7 1   
    11    6    8 1   
    12    7   30 1   
    13    7   31 1   
    14    7   32 1   
    15    8    9 1   
    16    9   10 2   
    17    9   11 2   
    18    9   12 1   
    19   12   13 1   
    20   12   33 1   
    21   12   46 1   
    22   13   14 1   
    23   13   34 1   
    24   13   35 1   
    25   14   15 ar  
    26   14   17 ar  
    27   15   16 ar  
    28   15   36 1   
    29   16   19 ar  
    30   16   38 1   
    31   17   18 ar  
    32   17   37 1   
    33   18   19 ar  
    34   18   39 1   
    35   19   20 1   
    36   20   21 2   
    37   20   25 1   
    38   21   22 1   
    39   21   23 1   
    40   22   40 1   
    41   22   41 1   
    42   22   42 1   
    43   23   24 1   
    44   24   25 2   
    45   25   26 1   
    46   26   43 1   
    47   26   44 1   
    48   26   45 1   
@<TRIPOS>SUBSTRUCTURE
     1 OR8         1 TEMP              0 ****  ****    0 ROOT
