@<TRIPOS>MOLECULE
ORA
   37    39     1     0     0
SMALL
bcc


@<TRIPOS>ATOM
      1 C1          0.0900    0.4910   -0.1370 ca        1 ORA     -0.151000
      2 N1          1.8630   -0.5330    3.5830 ne        1 ORA     -0.179400
      3 O1         -1.8700    0.0320   11.0480 o         1 ORA     -0.751533
      4 S1         -0.7070   -0.7620   11.1630 s6        1 ORA      1.456100
      5 C2          1.4230    0.0940   -0.0510 ca        1 ORA     -0.157500
      6 N2          1.5130   -0.0180    4.6420 nf        1 ORA     -0.153400
      7 O2         -0.4310   -2.0070    4.8970 o         1 ORA     -0.748200
      8 S2         -1.0920   -1.1050    5.7680 s6        1 ORA      1.451100
      9 C3         -0.6820    0.5730    1.0200 ca        1 ORA     -0.157500
     10 O3          0.2530   -0.2110   12.0620 o         1 ORA     -0.751533
     11 C4          3.5650   -0.3970    8.3390 ca        1 ORA     -0.068000
     12 O4         -0.9710   -2.1250   11.4410 o         1 ORA     -0.751533
     13 C5          1.9870   -0.2220    1.1820 ca        1 ORA     -0.101500
     14 O5         -1.3940    0.1350    5.1460 o         1 ORA     -0.748200
     15 C6         -0.1350    0.2680    2.2650 ca        1 ORA     -0.101500
     16 O6         -2.2410   -1.6860    6.3620 o         1 ORA     -0.748200
     17 C7          4.2880   -0.2690    7.1870 ca        1 ORA     -0.243000
     18 O7          4.3410   -0.0400    4.7900 oh        1 ORA     -0.502100
     19 C8          1.4580   -0.5930    9.5390 ca        1 ORA     -0.022000
     20 C9         -0.5910   -0.8300    8.3590 ca        1 ORA      0.047000
     21 C10         2.1520   -0.5150    8.3020 ca        1 ORA     -0.116000
     22 C11         1.4330   -0.5460    7.0690 ca        1 ORA      0.132000
     23 C12         1.2130   -0.1340    2.3590 ca        1 ORA      0.126400
     24 C13         2.2060   -0.3180    5.8620 ca        1 ORA      0.104400
     25 C14         3.6000   -0.2250    5.9470 ca        1 ORA      0.089100
     26 C15         0.0950   -0.7210    9.5890 ca        1 ORA     -0.284500
     27 C16         0.0280   -0.7780    7.1190 ca        1 ORA     -0.288500
     28 H1         -0.3500    0.7350   -1.1140 ha        1 ORA      0.102000
     29 H2          2.0350    0.0240   -0.9610 ha        1 ORA      0.113000
     30 H3         -1.7360    0.8800    0.9590 ha        1 ORA      0.113000
     31 H4          4.0670   -0.4090    9.3190 ha        1 ORA      0.118000
     32 H5          3.0380   -0.5410    1.2340 ha        1 ORA      0.179500
     33 H6         -0.7610    0.3270    3.1840 ha        1 ORA      0.179500
     34 H7          5.3830   -0.1920    7.1970 ha        1 ORA      0.106000
     35 HO7         5.1890    0.3380    5.0600 ho        1 ORA      0.392000
     36 H8          2.0380   -0.5310   10.4780 ha        1 ORA      0.139000
     37 H9         -1.6910   -0.9830    8.4070 ha        1 ORA      0.177000
@<TRIPOS>BOND
     1    1    5 ar  
     2    1    9 ar  
     3    1   28 1   
     4    2    6 2   
     5    2   23 1   
     6    3    4 1   
     7    4   10 1   
     8    4   12 1   
     9    4   26 1   
    10    5   13 ar  
    11    5   29 1   
    12    6   24 1   
    13    7    8 1   
    14    8   14 1   
    15    8   16 1   
    16    8   27 1   
    17    9   15 ar  
    18    9   30 1   
    19   11   17 ar  
    20   11   21 ar  
    21   11   31 1   
    22   13   23 ar  
    23   13   32 1   
    24   15   23 ar  
    25   15   33 1   
    26   17   25 ar  
    27   17   34 1   
    28   18   25 1   
    29   18   35 1   
    30   19   21 ar  
    31   19   26 ar  
    32   19   36 1   
    33   20   26 ar  
    34   20   27 ar  
    35   20   37 1   
    36   21   22 ar  
    37   22   24 ar  
    38   22   27 ar  
    39   24   25 ar  
@<TRIPOS>SUBSTRUCTURE
     1 ORA         1 TEMP              0 ****  ****    0 ROOT
