@<TRIPOS>MOLECULE
ORA
   37    39     1     0     0
SMALL
bcc


@<TRIPOS>ATOM
      1 C1          0.1660   -0.4740   -0.1620 ca        1 ORA     -0.150000
      2 N1          2.0070    0.1350    3.6110 ne        1 ORA     -0.300400
      3 O1         -1.0480   -0.4580   11.7290 o         1 ORA     -0.751533
      4 S1         -0.6970   -1.6090   10.9820 s6        1 ORA      1.457100
      5 C2          1.5120   -0.1280   -0.0510 ca        1 ORA     -0.154500
      6 N2          1.4880   -0.1820    4.6840 nf        1 ORA     -0.111400
      7 O2         -1.4230   -0.4340    5.0510 o         1 ORA     -0.750867
      8 S2         -1.1020    0.5620    6.0120 s6        1 ORA      1.458100
      9 C3         -0.6030   -0.6290    0.9900 ca        1 ORA     -0.154500
     10 O3          0.3030   -2.3850   11.6380 o         1 ORA     -0.751533
     11 C4          3.5670   -0.4370    8.3480 ca        1 ORA     -0.051000
     12 O4         -1.8080   -2.3770   10.5660 o         1 ORA     -0.751533
     13 C5          2.0900    0.0610    1.2000 ca        1 ORA     -0.107000
     14 O5         -0.4380    1.6840    5.4540 o         1 ORA     -0.750867
     15 C6         -0.0420   -0.4460    2.2530 ca        1 ORA     -0.107000
     16 O6         -2.2430    0.9440    6.7640 o         1 ORA     -0.750867
     17 C7          4.2740   -0.0360    7.2480 ca        1 ORA     -0.218000
     18 O7          4.4350    0.5040    4.9910 oh        1 ORA     -0.532100
     19 C8          1.4650   -0.9700    9.4750 ca        1 ORA     -0.013000
     20 C9         -0.6100   -0.5800    8.3740 ca        1 ORA      0.062000
     21 C10         2.1550   -0.5530    8.3060 ca        1 ORA     -0.133000
     22 C11         1.4240   -0.2440    7.1220 ca        1 ORA      0.150000
     23 C12         1.3190   -0.0990    2.3740 ca        1 ORA      0.136400
     24 C13         2.2010   -0.0360    5.9090 ca        1 ORA      0.013400
     25 C14         3.5840    0.1730    6.0220 ca        1 ORA      0.154100
     26 C15         0.0950   -1.0260    9.5150 ca        1 ORA     -0.292500
     27 C16         0.0080   -0.1630    7.2040 ca        1 ORA     -0.294500
     28 H1         -0.2850   -0.6190   -1.1530 ha        1 ORA      0.104000
     29 H2          2.1230   -0.0020   -0.9550 ha        1 ORA      0.115000
     30 H3         -1.6670   -0.8960    0.9110 ha        1 ORA      0.115000
     31 H4          4.0850   -0.6590    9.2940 ha        1 ORA      0.119000
     32 H5          3.1530    0.3360    1.2690 ha        1 ORA      0.182000
     33 H6         -0.6750   -0.5650    3.1640 ha        1 ORA      0.182000
     34 H7          5.3610    0.1110    7.2680 ha        1 ORA      0.124000
     35 HO7         3.9240    0.8620    4.2510 ho        1 ORA      0.443000
     36 H8          2.0520   -1.2640   10.3630 ha        1 ORA      0.138000
     37 H9         -1.7180   -0.5420    8.4390 ha        1 ORA      0.173000
@<TRIPOS>BOND
     1    1    5 ar  
     2    1    9 ar  
     3    1   28 1   
     4    2    6 2   
     5    2   23 1   
     6    3    4 1   
     7    4   10 1   
     8    4   12 1   
     9    4   26 1   
    10    5   13 ar  
    11    5   29 1   
    12    6   24 1   
    13    7    8 1   
    14    8   14 1   
    15    8   16 1   
    16    8   27 1   
    17    9   15 ar  
    18    9   30 1   
    19   11   17 ar  
    20   11   21 ar  
    21   11   31 1   
    22   13   23 ar  
    23   13   32 1   
    24   15   23 ar  
    25   15   33 1   
    26   17   25 ar  
    27   17   34 1   
    28   18   25 1   
    29   18   35 1   
    30   19   21 ar  
    31   19   26 ar  
    32   19   36 1   
    33   20   26 ar  
    34   20   27 ar  
    35   20   37 1   
    36   21   22 ar  
    37   22   24 ar  
    38   22   27 ar  
    39   24   25 ar  
@<TRIPOS>SUBSTRUCTURE
     1 ORA         1 TEMP              0 ****  ****    0 ROOT
