@<TRIPOS>MOLECULE
ORA
   37    39     1     0     0
SMALL
bcc


@<TRIPOS>ATOM
      1 C1         -6.3770    1.4600   -0.6620 ca        1 ORA     -0.150000
      2 N1         -3.0190   -0.9540    0.2810 ne        1 ORA     -0.300400
      3 O1          4.6640    1.7230   -1.4670 o         1 ORA     -0.751533
      4 S1          4.8210    0.5590   -0.6810 s6        1 ORA      1.457100
      5 C2         -6.5130    0.1130   -0.3310 ca        1 ORA     -0.154500
      6 N2         -1.8510   -0.6100    0.0810 nf        1 ORA     -0.111400
      7 O2         -0.9800    1.1670    2.0470 o         1 ORA     -0.750867
      8 S2         -0.2150    1.7380    0.9970 s6        1 ORA      1.458100
      9 C3         -5.1100    2.0380   -0.6890 ca        1 ORA     -0.154500
     10 O3          5.3870   -0.5300   -1.4070 o         1 ORA     -0.751533
     11 C4          1.4480   -3.2390    0.1500 ca        1 ORA     -0.051000
     12 O4          5.4960    0.7850    0.5430 o         1 ORA     -0.751533
     13 C5         -5.3930   -0.6560   -0.0300 ca        1 ORA     -0.107000
     14 O5         -1.0100    2.2080   -0.0820 o         1 ORA     -0.750867
     15 C6         -3.9740    1.2850   -0.3940 ca        1 ORA     -0.107000
     16 O6          0.6640    2.7440    1.4720 o         1 ORA     -0.750867
     17 C7          0.2170   -3.7650    0.4290 ca        1 ORA     -0.218000
     18 O7         -2.0790   -3.5690    0.7420 oh        1 ORA     -0.532100
     19 C8          2.9380   -1.3400   -0.2320 ca        1 ORA     -0.013000
     20 C9          2.1430    0.8820    0.0850 ca        1 ORA      0.062000
     21 C10         1.6410   -1.8380    0.0560 ca        1 ORA     -0.133000
     22 C11         0.5600   -0.9300    0.2600 ca        1 ORA      0.150000
     23 C12        -4.1030   -0.0790   -0.0600 ca        1 ORA      0.136400
     24 C13        -0.7740   -1.5070    0.3340 ca        1 ORA      0.013400
     25 C14        -0.9000   -2.8910    0.5280 ca        1 ORA      0.154100
     26 C15         3.1980    0.0070   -0.2600 ca        1 ORA     -0.292500
     27 C16         0.8550    0.4550    0.3740 ca        1 ORA     -0.294500
     28 H1         -7.2660    2.0620   -0.8960 ha        1 ORA      0.104000
     29 H2         -7.5100   -0.3480   -0.3050 ha        1 ORA      0.115000
     30 H3         -4.9940    3.1020   -0.9440 ha        1 ORA      0.115000
     31 H4          2.3190   -3.8990    0.0130 ha        1 ORA      0.119000
     32 H5         -5.5190   -1.7170    0.2320 ha        1 ORA      0.182000
     33 H6         -2.9680    1.7670   -0.4110 ha        1 ORA      0.182000
     34 H7          0.0520   -4.8420    0.5580 ha        1 ORA      0.124000
     35 HO7        -2.7630   -2.9490    1.0340 ho        1 ORA      0.443000
     36 H8          3.7480   -2.0590   -0.4480 ha        1 ORA      0.138000
     37 H9          2.3760    1.9650    0.1480 ha        1 ORA      0.173000
@<TRIPOS>BOND
     1    1    5 ar  
     2    1    9 ar  
     3    1   28 1   
     4    2    6 2   
     5    2   23 1   
     6    3    4 1   
     7    4   10 1   
     8    4   12 1   
     9    4   26 1   
    10    5   13 ar  
    11    5   29 1   
    12    6   24 1   
    13    7    8 1   
    14    8   14 1   
    15    8   16 1   
    16    8   27 1   
    17    9   15 ar  
    18    9   30 1   
    19   11   17 ar  
    20   11   21 ar  
    21   11   31 1   
    22   13   23 ar  
    23   13   32 1   
    24   15   23 ar  
    25   15   33 1   
    26   17   25 ar  
    27   17   34 1   
    28   18   25 1   
    29   18   35 1   
    30   19   21 ar  
    31   19   26 ar  
    32   19   36 1   
    33   20   26 ar  
    34   20   27 ar  
    35   20   37 1   
    36   21   22 ar  
    37   22   24 ar  
    38   22   27 ar  
    39   24   25 ar  
@<TRIPOS>SUBSTRUCTURE
     1 ORA         1 TEMP              0 ****  ****    0 ROOT
