@<TRIPOS>MOLECULE
ORA
   37    29     1     0     0
SMALL
bcc


@<TRIPOS>ATOM
      1 C1         -0.6650    2.5460   -3.9100 c1        1 ORA     -0.145000
      2 N1          0.6160    2.8170    0.0940 n1        1 ORA      0.029500
      3 O1         -0.2650   -3.7470    4.7450 o         1 ORA     -1.072833
      4 S1         -1.1760   -3.8510    3.5410 s4        1 ORA      2.868500
      5 C2          0.6590    2.2700   -3.5840 c1        1 ORA     -0.145000
      6 N2          1.0460    1.8420    0.7730 n1        1 ORA      0.029500
      7 O2         -2.6350    0.3700    0.7630 o         1 ORA     -1.072833
      8 S2         -1.8620    0.6360    2.0370 s4        1 ORA      2.868500
      9 C3         -1.5780    2.8540   -2.9090 c1        1 ORA     -0.145000
     10 O3         -1.1770   -5.2530    2.9740 o         1 ORA     -1.072833
     11 C4          1.4230   -2.0990   -0.6840 c1        1 ORA     -0.024500
     12 O4         -2.6290   -3.6930    3.9360 o         1 ORA     -1.072833
     13 C5          1.0690    2.3020   -2.2550 c1        1 ORA     -0.145000
     14 O5         -1.6130    2.1140    2.2300 o         1 ORA     -1.072833
     15 C6         -1.1690    2.8860   -1.5800 c1        1 ORA     -0.057000
     16 O6         -2.6920    0.3160    3.2610 o         1 ORA     -1.072833
     17 C7          2.0850   -1.0520   -1.3250 c1        1 ORA     -0.183000
     18 O7          3.2680    0.3480   -1.2730 oh        1 ORA     -0.295000
     19 C8          0.0180   -2.9060    1.1430 c1        1 ORA     -0.057000
     20 C9         -0.8830   -1.3430    2.7520 c1        1 ORA     -0.024500
     21 C10         0.5760   -1.8330    0.4140 c1        1 ORA     -0.418500
     22 C11         0.4030   -0.5360    0.8540 c2        1 ORA      0.121000
     23 C12         0.1550    2.6100   -1.2520 c1        1 ORA     -0.398000
     24 C13         1.0760    0.5280    0.2030 c1        1 ORA     -0.126000
     25 C14         1.9100    0.2630   -0.8800 c2        1 ORA      0.034000
     26 C15        -0.7070   -2.6550    2.3070 c1        1 ORA     -0.398000
     27 C16        -0.3320   -0.2840    2.0340 c1        1 ORA     -0.418500
     28 H1         -0.9540    2.5230   -4.8490 ha        1 ORA      0.117250
     29 H2          1.3090    2.0780   -4.2930 ha        1 ORA      0.117250
     30 H3         -2.5030    3.0850   -3.1430 ha        1 ORA      0.117250
     31 H4          1.8770   -2.9620   -0.8040 ha        1 ORA      0.148500
     32 H5          2.0010    2.1080   -2.0260 ha        1 ORA      0.117250
     33 H6         -1.8140    3.1040   -0.8740 ha        1 ORA      0.183500
     34 H7          2.7090   -1.4330   -1.9820 ha        1 ORA      0.121000
     35 HO7         3.6500    1.0470   -0.8720 ho        1 ORA      0.212000
     36 H8          0.1530   -3.8290    0.8380 ha        1 ORA      0.183500
     37 H9         -1.3470   -1.1720    3.5980 ha        1 ORA      0.148500
@<TRIPOS>BOND
     1    1    9 1   
     2    1   28 1   
     3    2    6 1   
     4    3    4 1   
     5    4   10 1   
     6    4   12 1   
     7    5   13 1   
     8    5   29 1   
     9    7    8 1   
    10    8   14 1   
    11    8   16 1   
    12    9   30 1   
    13   11   21 1   
    14   11   31 1   
    15   13   32 1   
    16   15   23 1   
    17   15   33 1   
    18   17   25 1   
    19   17   34 1   
    20   18   25 1   
    21   18   35 1   
    22   19   26 1   
    23   19   36 1   
    24   20   27 1   
    25   20   37 1   
    26   21   22 1   
    27   22   24 1   
    28   22   27 1   
    29   24   25 1   
@<TRIPOS>SUBSTRUCTURE
     1 ORA         1 TEMP              0 ****  ****    0 ROOT
