@<TRIPOS>MOLECULE
ORA
   37    39     1     0     0
SMALL
bcc


@<TRIPOS>ATOM
      1 C1          0.0810    0.4970   -0.1410 ca        1 ORA     -0.151000
      2 N1          1.8600   -0.5160    3.5790 ne        1 ORA     -0.179400
      3 O1         -1.8810    0.0160   11.0410 o         1 ORA     -0.751533
      4 S1         -0.7110   -0.7680   11.1580 s6        1 ORA      1.456100
      5 C2          1.4180    0.1100   -0.0540 ca        1 ORA     -0.157500
      6 N2          1.5060   -0.0040    4.6380 nf        1 ORA     -0.153400
      7 O2         -0.4220   -2.0090    4.8920 o         1 ORA     -0.748200
      8 S2         -1.0910   -1.1130    5.7630 s6        1 ORA      1.451100
      9 C3         -0.6920    0.5720    1.0160 ca        1 ORA     -0.157500
     10 O3          0.2430   -0.2070   12.0570 o         1 ORA     -0.751533
     11 C4          3.5590   -0.3690    8.3360 ca        1 ORA     -0.068000
     12 O4         -0.9630   -2.1330   11.4360 o         1 ORA     -0.751533
     13 C5          1.9830   -0.2020    1.1780 ca        1 ORA     -0.101500
     14 O5         -1.4020    0.1250    5.1410 o         1 ORA     -0.748200
     15 C6         -0.1420    0.2700    2.2610 ca        1 ORA     -0.101500
     16 O6         -2.2350   -1.7030    6.3560 o         1 ORA     -0.748200
     17 C7          4.2820   -0.2360    7.1840 ca        1 ORA     -0.243000
     18 O7          4.3350   -0.0050    4.7880 oh        1 ORA     -0.502100
     19 C8          1.4540   -0.5810    9.5350 ca        1 ORA     -0.022000
     20 C9         -0.5940   -0.8340    8.3540 ca        1 ORA      0.047000
     21 C10         2.1470   -0.4980    8.2980 ca        1 ORA     -0.116000
     22 C11         1.4290   -0.5350    7.0650 ca        1 ORA      0.132000
     23 C12         1.2080   -0.1210    2.3550 ca        1 ORA      0.126400
     24 C13         2.2010   -0.3000    5.8590 ca        1 ORA      0.104400
     25 C14         3.5940   -0.1970    5.9440 ca        1 ORA      0.089100
     26 C15         0.0910   -0.7200    9.5840 ca        1 ORA     -0.284500
     27 C16         0.0260   -0.7770    7.1140 ca        1 ORA     -0.288500
     28 H1         -0.3600    0.7370   -1.1180 ha        1 ORA      0.102000
     29 H2          2.0300    0.0450   -0.9640 ha        1 ORA      0.113000
     30 H3         -1.7480    0.8700    0.9540 ha        1 ORA      0.113000
     31 H4          4.0610   -0.3780    9.3160 ha        1 ORA      0.118000
     32 H5          3.0370   -0.5130    1.2310 ha        1 ORA      0.179500
     33 H6         -0.7700    0.3230    3.1790 ha        1 ORA      0.179500
     34 H7          5.3760   -0.1500    7.1940 ha        1 ORA      0.106000
     35 HO7         5.1800    0.3770    5.0580 ho        1 ORA      0.392000
     36 H8          2.0320   -0.5150   10.4740 ha        1 ORA      0.139000
     37 H9         -1.6920   -0.9960    8.4010 ha        1 ORA      0.177000
@<TRIPOS>BOND
     1    1    5 ar  
     2    1    9 ar  
     3    1   28 1   
     4    2    6 2   
     5    2   23 1   
     6    3    4 1   
     7    4   10 1   
     8    4   12 1   
     9    4   26 1   
    10    5   13 ar  
    11    5   29 1   
    12    6   24 1   
    13    7    8 1   
    14    8   14 1   
    15    8   16 1   
    16    8   27 1   
    17    9   15 ar  
    18    9   30 1   
    19   11   17 ar  
    20   11   21 ar  
    21   11   31 1   
    22   13   23 ar  
    23   13   32 1   
    24   15   23 ar  
    25   15   33 1   
    26   17   25 ar  
    27   17   34 1   
    28   18   25 1   
    29   18   35 1   
    30   19   21 ar  
    31   19   26 ar  
    32   19   36 1   
    33   20   26 ar  
    34   20   27 ar  
    35   20   37 1   
    36   21   22 ar  
    37   22   24 ar  
    38   22   27 ar  
    39   24   25 ar  
@<TRIPOS>SUBSTRUCTURE
     1 ORA         1 TEMP              0 ****  ****    0 ROOT
