@<TRIPOS>MOLECULE
ORB
   45    47     1     0     0
SMALL
bcc


@<TRIPOS>ATOM
      1 F2         -0.2730    0.5970    0.9710 f         1 ORB     -0.112900
      2 C2          0.9700    0.1140    0.7680 ca        1 ORB      0.018600
      3 C3          1.9770    0.2800    1.7300 ca        1 ORB     -0.115000
      4 C4          3.2530   -0.2440    1.4780 cp        1 ORB     -0.152300
      5 C5          3.4700   -0.9080    0.2450 ca        1 ORB      0.493300
      6 CL2         5.0210   -1.5280   -0.1210 cl        1 ORB     -0.126000
      7 N6          2.5000   -1.0720   -0.6900 nb        1 ORB     -0.621000
      8 C1          1.2850   -0.5790   -0.4350 ca        1 ORB      0.401200
      9 C7          4.3030   -0.0820    2.4810 cp        1 ORB      0.012000
     10 C12         4.9280   -1.1990    3.0530 ca        1 ORB     -0.101000
     11 C11         5.9220   -1.0320    4.0150 ca        1 ORB     -0.105000
     12 C10         6.3090    0.2530    4.4080 ca        1 ORB     -0.176300
     13 C9          5.6810    1.3710    3.8470 ca        1 ORB     -0.105000
     14 C8          4.6820    1.2050    2.8930 ca        1 ORB     -0.101000
     15 C13         7.4210    0.4140    5.4030 c3        1 ORB      0.193800
     16 C25         8.5330    1.2990    4.8520 c3        1 ORB     -0.124100
     17 N14         6.8850    0.9380    6.7100 n4        1 ORB     -0.714900
     18 S15         6.1870   -0.3870    7.8750 sy        1 ORB      1.531200
     19 O16         4.8520   -0.0260    7.9150 o         1 ORB     -0.577800
     20 O17         6.6010   -1.5710    7.3020 o         1 ORB     -0.577800
     21 C18         6.9860    0.0430    9.1730 cc        1 ORB     -0.831100
     22 C22         6.5560    0.7150   10.3410 cd        1 ORB      0.535000
     23 C24         5.2860    1.3020   10.7620 c3        1 ORB     -0.212400
     24 O21         7.6180    0.7680   11.2240 os        1 ORB     -0.064100
     25 N20         8.6930    0.1770   10.7130 nd        1 ORB     -0.304300
     26 C19         8.4010   -0.2910    9.4910 cc        1 ORB      0.428600
     27 C23         9.3100   -1.0330    8.5960 c3        1 ORB     -0.173400
     28 H3          1.7640    0.8100    2.6710 ha        1 ORB      0.161000
     29 H1          0.5160   -0.7330   -1.2160 h4        1 ORB      0.059100
     30 H12         4.6350   -2.2140    2.7390 ha        1 ORB      0.163000
     31 H8          4.1920    2.0870    2.4480 ha        1 ORB      0.163000
     32 H11         6.4020   -1.9190    4.4620 ha        1 ORB      0.144000
     33 H9          5.9850    2.3890    4.1390 ha        1 ORB      0.144000
     34 H13         7.8690   -0.6050    5.6360 hx        1 ORB      0.113700
     35 H251        8.8830    0.8580    3.8840 hc        1 ORB      0.073367
     36 H252        8.1750    2.3380    4.6500 hc        1 ORB      0.073367
     37 H253        9.4010    1.3390    5.5540 hc        1 ORB      0.073367
     38 H14         7.6300    1.4580    7.1690 hn        1 ORB      0.446800
     39 H241        4.4940    1.1530    9.9830 hc        1 ORB      0.118367
     40 H242        4.9470    0.8260   11.7230 hc        1 ORB      0.118367
     41 H243        5.4150    2.4000   10.9610 hc        1 ORB      0.118367
     42 H231        8.8350   -2.0030    8.2910 hc        1 ORB      0.088367
     43 H232        9.5190   -0.4260    7.6790 hc        1 ORB      0.088367
     44 H233       10.2860   -1.2610    9.0970 hc        1 ORB      0.088367
     45 H142        6.1400    1.6040    6.4940 hn        1 ORB      0.446800
@<TRIPOS>BOND
     1    1    2 1   
     2    2    3 ar  
     3    2    8 ar  
     4    3    4 ar  
     5    3   28 1   
     6    4    5 ar  
     7    4    9 1   
     8    5    6 1   
     9    5    7 ar  
    10    7    8 ar  
    11    8   29 1   
    12    9   10 ar  
    13    9   14 ar  
    14   10   11 ar  
    15   10   30 1   
    16   11   12 ar  
    17   11   32 1   
    18   12   13 ar  
    19   12   15 1   
    20   13   14 ar  
    21   13   33 1   
    22   14   31 1   
    23   15   16 1   
    24   15   17 1   
    25   15   34 1   
    26   16   35 1   
    27   16   36 1   
    28   16   37 1   
    29   17   18 1   
    30   17   38 1   
    31   17   45 1   
    32   18   19 2   
    33   18   20 2   
    34   18   21 1   
    35   21   22 2   
    36   21   26 1   
    37   22   23 1   
    38   22   24 1   
    39   23   39 1   
    40   23   40 1   
    41   23   41 1   
    42   24   25 1   
    43   25   26 2   
    44   26   27 1   
    45   27   42 1   
    46   27   43 1   
    47   27   44 1   
@<TRIPOS>SUBSTRUCTURE
     1 ORB         1 TEMP              0 ****  ****    0 ROOT
