@<TRIPOS>MOLECULE
ORB
   44    39     1     0     0
SMALL
bcc


@<TRIPOS>ATOM
      1 F2         -0.8140    0.6090   -7.9450 f         1 ORB     -0.090000
      2 C2         -1.3950    0.2070   -6.8080 c2        1 ORB      0.039000
      3 C3         -0.6950    0.2330   -5.6380 c2        1 ORB     -0.118000
      4 C4         -1.3000   -0.1440   -4.4740 c1        1 ORB     -0.047000
      5 C5         -2.6240   -0.5530   -4.4820 c1        1 ORB     -0.012000
      6 CL2        -3.3850   -1.0710   -3.0020 cl        1 ORB      0.036000
      7 N6         -3.3220   -0.5780   -5.6520 n1        1 ORB     -0.107000
      8 C1         -2.7200   -0.2020   -6.8150 c1        1 ORB     -0.084000
      9 C7         -0.5220   -0.1250   -3.1760 c2        1 ORB     -0.046000
     10 C12         0.2250   -1.2300   -2.8000 c1        1 ORB     -0.108000
     11 C11         0.8950   -1.2330   -1.5870 c1        1 ORB     -0.114000
     12 C10         0.8180   -0.1310   -0.7490 c1        1 ORB     -0.087000
     13 C9          0.0710    0.9740   -1.1260 c1        1 ORB     -0.120000
     14 C8         -0.6000    0.9770   -2.3390 c2        1 ORB     -0.101000
     15 C13         1.6340   -0.0920    0.5230 c3        1 ORB      0.081000
     16 C25         2.7060    0.9670    0.4010 c3        1 ORB     -0.227000
     17 N14         0.7850    0.2170    1.6210 n3        1 ORB     -0.887000
     18 S15         0.5680   -0.8810    2.8250 s4        1 ORB      2.109800
     19 O16        -0.4170   -1.8630    2.4630 o         1 ORB     -0.545900
     20 O17         1.7320   -1.7040    2.9970 o         1 ORB     -0.545900
     21 C18         0.1320   -0.0580    4.3360 c1        1 ORB     -0.956000
     22 C22        -1.0860    0.5090    4.6230 c1        1 ORB      0.154000
     23 C24        -2.2860    0.5540    3.7010 c2        1 ORB     -0.196500
     24 O21        -1.0440    0.9680    5.8970 os        1 ORB     -0.053000
     25 N20         0.2160    0.6860    6.4140 n2        1 ORB     -0.032000
     26 C19         0.9300    0.0590    5.4550 c1        1 ORB     -0.005000
     27 C23         2.3410   -0.4730    5.6010 c2        1 ORB     -0.196500
     28 H3          0.2370    0.5200   -5.6320 ha        1 ORB      0.164000
     29 H1         -3.2210   -0.2200   -7.6520 ha        1 ORB      0.183000
     30 H12         0.2790   -2.0060   -3.3890 ha        1 ORB      0.141000
     31 H8         -1.1260    1.7550   -2.6040 ha        1 ORB      0.143000
     32 H11         1.4210   -2.0110   -1.3220 ha        1 ORB      0.146000
     33 H9          0.0160    1.7500   -0.5370 ha        1 ORB      0.132000
     34 H13         2.0520   -0.9630    0.6690 h1        1 ORB      0.115000
     35 H251        3.5860    0.5580    0.5380 hc        1 ORB      0.085667
     36 H252        2.5590    1.6600    1.0780 hc        1 ORB      0.085667
     37 H253        2.6680    1.3700   -0.4920 hc        1 ORB      0.085667
     38 H14         0.3890    1.0370    1.6740 hn        1 ORB      0.242000
     39 H241       -2.4890   -0.3510    3.3830 ha        1 ORB      0.122833
     40 H242       -2.0880    1.1330    2.9350 ha        1 ORB      0.122833
     41 H243       -3.0590    0.9100    4.1880 ha        1 ORB      0.122833
     42 H231        2.9350    0.0010    4.9830 ha        1 ORB      0.122833
     43 H232        2.6490   -0.3340    6.5220 ha        1 ORB      0.122833
     44 H233        2.3520   -1.4310    5.3940 ha        1 ORB      0.122833
@<TRIPOS>BOND
     1    1    2 1   
     2    2    3 1   
     3    2    8 1   
     4    3    4 1   
     5    3   28 1   
     6    4    9 1   
     7    5    6 1   
     8    5    7 1   
     9    8   29 1   
    10    9   10 1   
    11    9   14 1   
    12   10   30 1   
    13   11   12 1   
    14   11   32 1   
    15   12   15 1   
    16   13   14 1   
    17   13   33 1   
    18   14   31 1   
    19   15   16 1   
    20   15   17 1   
    21   15   34 1   
    22   16   35 1   
    23   16   36 1   
    24   16   37 1   
    25   17   18 1   
    26   17   38 1   
    27   18   19 1   
    28   18   20 1   
    29   21   22 1   
    30   21   26 1   
    31   22   24 1   
    32   23   39 1   
    33   23   40 1   
    34   23   41 1   
    35   24   25 1   
    36   25   26 1   
    37   27   42 1   
    38   27   43 1   
    39   27   44 1   
@<TRIPOS>SUBSTRUCTURE
     1 ORB         1 TEMP              0 ****  ****    0 ROOT
