@<TRIPOS>MOLECULE
ORB
   44    46     1     0     0
SMALL
bcc


@<TRIPOS>ATOM
      1 F2         -6.5390   -3.0970    0.1140 f         1 ORB     -0.123900
      2 C2         -6.0800   -1.8330   -0.0050 ca        1 ORB      0.009600
      3 C3         -4.7080   -1.5490    0.0780 ca        1 ORB     -0.117000
      4 C4         -4.2770   -0.2220   -0.0530 cp        1 ORB     -0.112300
      5 C5         -5.2610    0.7790   -0.2530 ca        1 ORB      0.482300
      6 CL2        -4.7850    2.4170   -0.3850 cl        1 ORB     -0.134000
      7 N6         -6.5880    0.5130   -0.3360 nb        1 ORB     -0.633000
      8 C1         -6.9860   -0.7580   -0.2170 ca        1 ORB      0.381200
      9 C7         -2.8480    0.0750    0.0260 cp        1 ORB     -0.046000
     10 C12        -2.1750    0.6600   -1.0550 ca        1 ORB     -0.104000
     11 C11        -0.8080    0.9150   -0.9750 ca        1 ORB     -0.117000
     12 C10        -0.0980    0.5990    0.1880 ca        1 ORB     -0.094300
     13 C9         -0.7670    0.0100    1.2650 ca        1 ORB     -0.117000
     14 C8         -2.1320   -0.2540    1.1850 ca        1 ORB     -0.104000
     15 C13         1.3820    0.9010    0.2700 c3        1 ORB      0.285800
     16 C25         1.6120    1.9420    1.3720 c3        1 ORB     -0.109100
     17 N14         2.1760   -0.2920    0.4420 n3        1 ORB     -0.915100
     18 S15         3.1980   -0.8940   -0.6560 sy        1 ORB      1.554200
     19 O16         3.2000   -2.3040   -0.5410 o         1 ORB     -0.658800
     20 O17         2.9220   -0.3510   -1.9290 o         1 ORB     -0.658800
     21 C18         4.6880   -0.3540   -0.1470 cc        1 ORB     -0.642100
     22 C22         5.6800   -1.0290    0.5620 cd        1 ORB      0.444000
     23 C24         5.7980   -2.3700    1.1370 c3        1 ORB     -0.183400
     24 O21         6.7770   -0.1730    0.7060 os        1 ORB     -0.110100
     25 N20         6.5300    0.9920    0.1280 nd        1 ORB     -0.366300
     26 C19         5.2960    0.9640   -0.4100 cc        1 ORB      0.417600
     27 C23         4.6470    2.0610   -1.1530 c3        1 ORB     -0.162400
     28 H3         -3.9800   -2.3590    0.2390 ha        1 ORB      0.166000
     29 H1         -8.0730   -0.9430   -0.2910 h4        1 ORB      0.046100
     30 H12        -2.7280    0.9150   -1.9720 ha        1 ORB      0.142000
     31 H8         -2.6530   -0.7190    2.0350 ha        1 ORB      0.142000
     32 H11        -0.2870    1.3610   -1.8370 ha        1 ORB      0.139000
     33 H9         -0.2170   -0.2440    2.1830 ha        1 ORB      0.139000
     34 H13         1.7030    1.3700   -0.7160 h1        1 ORB      0.075700
     35 H251        1.3160    1.5400    2.3700 hc        1 ORB      0.046700
     36 H252        2.6850    2.2460    1.4120 hc        1 ORB      0.046700
     37 H253        0.9900    2.8420    1.1530 hc        1 ORB      0.046700
     38 H14         1.9980   -0.7610    1.2980 hn        1 ORB      0.445800
     39 H241        6.8320   -2.7700    0.9840 hc        1 ORB      0.091700
     40 H242        5.5960   -2.3270    2.2380 hc        1 ORB      0.091700
     41 H243        5.0550   -3.0590    0.6540 hc        1 ORB      0.091700
     42 H231        3.8550    2.5270   -0.5130 hc        1 ORB      0.075033
     43 H232        5.3800    2.8530   -1.4460 hc        1 ORB      0.075033
     44 H233        4.1650    1.6510   -2.0800 hc        1 ORB      0.075033
@<TRIPOS>BOND
     1    1    2 1   
     2    2    3 ar  
     3    2    8 ar  
     4    3    4 ar  
     5    3   28 1   
     6    4    5 ar  
     7    4    9 1   
     8    5    6 1   
     9    5    7 ar  
    10    7    8 ar  
    11    8   29 1   
    12    9   10 ar  
    13    9   14 ar  
    14   10   11 ar  
    15   10   30 1   
    16   11   12 ar  
    17   11   32 1   
    18   12   13 ar  
    19   12   15 1   
    20   13   14 ar  
    21   13   33 1   
    22   14   31 1   
    23   15   16 1   
    24   15   17 1   
    25   15   34 1   
    26   16   35 1   
    27   16   36 1   
    28   16   37 1   
    29   17   18 1   
    30   17   38 1   
    31   18   19 2   
    32   18   20 2   
    33   18   21 1   
    34   21   22 2   
    35   21   26 1   
    36   22   23 1   
    37   22   24 1   
    38   23   39 1   
    39   23   40 1   
    40   23   41 1   
    41   24   25 1   
    42   25   26 2   
    43   26   27 1   
    44   27   42 1   
    45   27   43 1   
    46   27   44 1   
@<TRIPOS>SUBSTRUCTURE
     1 ORB         1 TEMP              0 ****  ****    0 ROOT
