@<TRIPOS>MOLECULE
ORB
   45    47     1     0     0
SMALL
bcc


@<TRIPOS>ATOM
      1 F2         -0.1190   -1.4700    1.0980 f         1 ORB     -0.112900
      2 C2          1.0480   -0.8540    0.8210 ca        1 ORB      0.019600
      3 C3          2.0600   -0.7520    1.7880 ca        1 ORB     -0.114000
      4 C4          3.2560   -0.0980    1.4560 cp        1 ORB     -0.152300
      5 C5          3.3920    0.4180    0.1440 ca        1 ORB      0.492300
      6 Cl2         4.8490    1.1860   -0.3170 cl        1 ORB     -0.128000
      7 N6          2.4180    0.3240   -0.7950 nb        1 ORB     -0.621000
      8 C1          1.2780   -0.2910   -0.4670 ca        1 ORB      0.401200
      9 C7          4.3080    0.0190    2.4640 cp        1 ORB      0.012000
     10 C12         4.8400   -1.1360    3.0550 ca        1 ORB     -0.101000
     11 C11         5.8380   -1.0360    4.0220 ca        1 ORB     -0.105000
     12 C10         6.3180    0.2210    4.4050 ca        1 ORB     -0.175300
     13 C9          5.7820    1.3770    3.8260 ca        1 ORB     -0.105000
     14 C8          4.7820    1.2780    2.8630 ca        1 ORB     -0.101000
     15 C13         7.4300    0.3100    5.4090 c3        1 ORB      0.193800
     16 C25         8.6170    1.0870    4.8510 c3        1 ORB     -0.124100
     17 N14         6.9270    0.9070    6.6990 ny        1 ORB     -0.714900
     18 S15         6.1310   -0.3300    7.8960 sy        1 ORB      1.531200
     19 O16         4.8230    0.1170    7.9090 o         1 ORB     -0.577800
     20 O17         6.4710   -1.5570    7.3650 o         1 ORB     -0.577800
     21 C18         6.9450    0.0880    9.1890 cc        1 ORB     -0.831100
     22 C22         6.5500    0.8240   10.3300 cd        1 ORB      0.535000
     23 C24         5.3180    1.5080   10.7170 c3        1 ORB     -0.213400
     24 O21         7.6050    0.8350   11.2220 os        1 ORB     -0.064100
     25 N20         8.6430    0.1580   10.7430 nd        1 ORB     -0.304300
     26 C19         8.3320   -0.3290    9.5330 cc        1 ORB      0.428600
     27 C23         9.1980   -1.1580    8.6720 c3        1 ORB     -0.172400
     28 H3          1.9130   -1.1780    2.7920 ha        1 ORB      0.163000
     29 H1          0.5030   -0.3490   -1.2540 h4        1 ORB      0.059100
     30 H12         4.4710   -2.1280    2.7490 ha        1 ORB      0.163000
     31 H8          4.3670    2.1900    2.4050 ha        1 ORB      0.163000
     32 H11         6.2490   -1.9520    4.4780 ha        1 ORB      0.143500
     33 H9          6.1570    2.3720    4.1120 ha        1 ORB      0.143500
     34 H13         7.7890   -0.7370    5.6690 hx        1 ORB      0.113700
     35 H251        8.9400    0.5950    3.8990 hc        1 ORB      0.073367
     36 H252        8.3470    2.1460    4.6190 hc        1 ORB      0.073367
     37 H253        9.4770    1.0740    5.5640 hc        1 ORB      0.073367
     38 H14         7.7060    1.3850    7.1480 hn        1 ORB      0.447300
     39 H241        5.5180    2.6010   10.8800 hc        1 ORB      0.118367
     40 H242        4.5250    1.3850    9.9350 hc        1 ORB      0.118367
     41 H243        4.9410    1.0890   11.6900 hc        1 ORB      0.118367
     42 H231        9.4550   -0.5960    7.7390 hc        1 ORB      0.088367
     43 H232        8.6630   -2.1040    8.3930 hc        1 ORB      0.088367
     44 H233       10.1530   -1.4330    9.1910 hc        1 ORB      0.088367
     45 H142        6.2320    1.6180    6.4590 hn        1 ORB      0.447300
@<TRIPOS>BOND
     1    1    2 1   
     2    2    3 ar  
     3    2    8 ar  
     4    3    4 ar  
     5    3   28 1   
     6    4    5 ar  
     7    4    9 1   
     8    5    6 1   
     9    5    7 ar  
    10    7    8 ar  
    11    8   29 1   
    12    9   10 ar  
    13    9   14 ar  
    14   10   11 ar  
    15   10   30 1   
    16   11   12 ar  
    17   11   32 1   
    18   12   13 ar  
    19   12   15 1   
    20   13   14 ar  
    21   13   33 1   
    22   14   31 1   
    23   15   16 1   
    24   15   17 1   
    25   15   34 1   
    26   16   35 1   
    27   16   36 1   
    28   16   37 1   
    29   17   18 1   
    30   17   38 1   
    31   17   45 1   
    32   18   19 2   
    33   18   20 2   
    34   18   21 1   
    35   21   22 2   
    36   21   26 1   
    37   22   23 1   
    38   22   24 1   
    39   23   39 1   
    40   23   40 1   
    41   23   41 1   
    42   24   25 1   
    43   25   26 2   
    44   26   27 1   
    45   27   42 1   
    46   27   43 1   
    47   27   44 1   
@<TRIPOS>SUBSTRUCTURE
     1 ORB         1 TEMP              0 ****  ****    0 ROOT
