@<TRIPOS>MOLECULE
ORC
   47    49     1     0     0
SMALL
bcc


@<TRIPOS>ATOM
      1 O13        -2.4740   -0.5740   -2.0790 o         1 ORC     -0.658800
      2 S10        -2.7050    0.3590   -1.0410 sy        1 ORC      1.555200
      3 O11        -2.7050    1.7250   -1.3920 o         1 ORC     -0.658800
      4 C12        -4.1730   -0.0090   -0.3450 cc        1 ORC     -0.640100
      5 C17        -4.9260    0.8220    0.6140 cc        1 ORC      0.413600
      6 C19        -4.4680    2.1230    1.1390 c3        1 ORC     -0.161400
      7 N16        -6.0840    0.2060    0.9130 nd        1 ORC     -0.364300
      8 O15        -6.1540   -0.9330    0.2410 os        1 ORC     -0.111100
      9 C14        -5.0070   -1.1070   -0.5430 cd        1 ORC      0.445000
     10 C18        -4.9330   -2.3180   -1.3590 c3        1 ORC     -0.182400
     11 N8         -1.6510    0.1370    0.1630 n3        1 ORC     -0.915100
     12 C7         -0.8170   -1.0300    0.3320 c3        1 ORC      0.286800
     13 C9         -1.0850   -1.7780    1.6430 c3        1 ORC     -0.107100
     14 C5          0.6560   -0.6950    0.2550 ca        1 ORC     -0.102300
     15 C6          1.4440   -1.2510   -0.7570 ca        1 ORC     -0.114500
     16 C1          2.8050   -0.9640   -0.8280 ca        1 ORC     -0.121000
     17 C4          1.2430    0.1670    1.1870 ca        1 ORC     -0.114500
     18 C3          2.6020    0.4600    1.1150 ca        1 ORC     -0.121000
     19 C2          3.4010   -0.1070    0.1090 ca        1 ORC      0.004000
     20 C20         4.8060    0.2050    0.0410 cc        1 ORC     -0.277600
     21 C24         5.4330    1.4150    0.3050 cd        1 ORC      0.282000
     22 C26         5.0010    2.7500    0.7120 c3        1 ORC     -0.143400
     23 O23         6.8200    1.2320    0.1030 os        1 ORC     -0.117100
     24 N22         7.0680   -0.0120   -0.2570 nd        1 ORC     -0.363300
     25 C21         5.9100   -0.7000   -0.3210 cc        1 ORC      0.337600
     26 C25         5.7760   -2.1230   -0.6830 c3        1 ORC     -0.135400
     27 H8         -1.4890    0.8380    0.8460 hn        1 ORC      0.445800
     28 H191       -4.0690    2.7470    0.2950 hc        1 ORC      0.074367
     29 H192       -5.2970    2.6820    1.6390 hc        1 ORC      0.074367
     30 H193       -3.6510    1.9580    1.8860 hc        1 ORC      0.074367
     31 H181       -4.7080   -3.2010   -0.7070 hc        1 ORC      0.091700
     32 H182       -5.9110   -2.5010   -1.8720 hc        1 ORC      0.091700
     33 H183       -4.1220   -2.2130   -2.1290 hc        1 ORC      0.091700
     34 H7         -1.0620   -1.7380   -0.5240 h1        1 ORC      0.077700
     35 H91C       -2.1500   -2.1070    1.7000 hc        1 ORC      0.045033
     36 H92C       -0.4270   -2.6780    1.6850 hc        1 ORC      0.045033
     37 H93C       -0.8630   -1.1320    2.5250 hc        1 ORC      0.045033
     38 H6          0.9890   -1.9150   -1.5090 ha        1 ORC      0.135500
     39 H4          0.6320    0.6130    1.9860 ha        1 ORC      0.135500
     40 H1          3.4150   -1.4010   -1.6330 ha        1 ORC      0.138000
     41 H3          3.0580    1.1380    1.8530 ha        1 ORC      0.138000
     42 H261        3.9440    2.9220    0.3870 hc        1 ORC      0.068367
     43 H262        5.0560    2.8450    1.8270 hc        1 ORC      0.068367
     44 H263        5.6590    3.5330    0.2580 hc        1 ORC      0.068367
     45 H251        5.6380   -2.2210   -1.7900 hc        1 ORC      0.060033
     46 H252        6.6830   -2.7080   -0.3890 hc        1 ORC      0.060033
     47 H253        4.8830   -2.5600   -0.1700 hc        1 ORC      0.060033
@<TRIPOS>BOND
     1    1    2 2   
     2    2    3 2   
     3    2    4 1   
     4    2   11 1   
     5    4    5 1   
     6    4    9 2   
     7    5    6 1   
     8    5    7 2   
     9    6   28 1   
    10    6   29 1   
    11    6   30 1   
    12    7    8 1   
    13    8    9 1   
    14    9   10 1   
    15   10   31 1   
    16   10   32 1   
    17   10   33 1   
    18   11   12 1   
    19   11   27 1   
    20   12   13 1   
    21   12   14 1   
    22   12   34 1   
    23   13   35 1   
    24   13   36 1   
    25   13   37 1   
    26   14   15 ar  
    27   14   17 ar  
    28   15   16 ar  
    29   15   38 1   
    30   16   19 ar  
    31   16   40 1   
    32   17   18 ar  
    33   17   39 1   
    34   18   19 ar  
    35   18   41 1   
    36   19   20 1   
    37   20   21 2   
    38   20   25 1   
    39   21   22 1   
    40   21   23 1   
    41   22   42 1   
    42   22   43 1   
    43   22   44 1   
    44   23   24 1   
    45   24   25 2   
    46   25   26 1   
    47   26   45 1   
    48   26   46 1   
    49   26   47 1   
@<TRIPOS>SUBSTRUCTURE
     1 ORC         1 TEMP              0 ****  ****    0 ROOT
