@<TRIPOS>MOLECULE
ORC
   48    50     1     0     0
SMALL
bcc


@<TRIPOS>ATOM
      1 O13        -0.1590    0.3610   -1.9690 o         1 ORC     -0.577800
      2 S10         0.8610    0.3020   -1.0370 sy        1 ORC      1.530200
      3 O11         0.9030    1.1520    0.0490 o         1 ORC     -0.577800
      4 C12         1.3490   -1.1780   -0.7470 cc        1 ORC     -0.828100
      5 C17         2.2970   -1.6070    0.3170 cc        1 ORC      0.429600
      6 C19         2.9990   -0.6940    1.2410 c3        1 ORC     -0.174400
      7 N16         2.3900   -2.9440    0.3010 nd        1 ORC     -0.305300
      8 O15         1.5970   -3.4270   -0.6500 os        1 ORC     -0.064100
      9 C14         0.9400   -2.4080   -1.3130 cd        1 ORC      0.532000
     10 C18         0.0060   -2.7740   -2.3750 c3        1 ORC     -0.211400
     11 N8          2.3900    0.8820   -1.9920 n4        1 ORC     -0.715900
     12 C7          2.0940    1.5800   -3.2960 c3        1 ORC      0.198800
     13 C9          3.2510    1.4540   -4.2800 c3        1 ORC     -0.124100
     14 C5          1.7410    3.0160   -3.0490 ca        1 ORC     -0.193300
     15 C6          0.4270    3.4480   -3.2630 ca        1 ORC     -0.097500
     16 C1          0.0930    4.7870   -3.0850 ca        1 ORC     -0.122500
     17 C4          2.7130    3.9370   -2.6390 ca        1 ORC     -0.097500
     18 C3          2.3780    5.2730   -2.4550 ca        1 ORC     -0.122500
     19 C2          1.0630    5.7200   -2.6840 ca        1 ORC      0.067000
     20 C20         0.7280    7.1060   -2.5000 cc        1 ORC     -0.323600
     21 C24         1.2420    8.0000   -1.5650 cd        1 ORC      0.312000
     22 C26         2.2240    7.9400   -0.4840 c3        1 ORC     -0.152400
     23 O23         0.6050    9.2390   -1.7670 os        1 ORC     -0.100100
     24 N22        -0.2470    9.1600   -2.7700 nd        1 ORC     -0.341300
     25 C21        -0.2400    7.9070   -3.2690 cc        1 ORC      0.346600
     26 C25        -1.0540    7.4380   -4.4070 c3        1 ORC     -0.140400
     27 H8          2.9070    1.5400   -1.4040 hn        1 ORC      0.446300
     28 H191        2.2670    0.0170    1.7070 hc        1 ORC      0.089367
     29 H192        3.5130   -1.2580    2.0620 hc        1 ORC      0.089367
     30 H193        3.7730   -0.1100    0.6820 hc        1 ORC      0.089367
     31 H181       -0.5300   -1.8720   -2.7700 hc        1 ORC      0.117033
     32 H182       -0.7510   -3.5070   -1.9810 hc        1 ORC      0.117033
     33 H183        0.5560   -3.2810   -3.2130 hc        1 ORC      0.117033
     34 H7          1.1950    1.0420   -3.7380 hx        1 ORC      0.110700
     35 H91C        2.9660    1.9880   -5.2230 hc        1 ORC      0.072367
     36 H92C        3.4570    0.3850   -4.5290 hc        1 ORC      0.072367
     37 H93C        4.1840    1.9240   -3.8850 hc        1 ORC      0.072367
     38 H6         -0.3500    2.7280   -3.5710 ha        1 ORC      0.140500
     39 H4          3.7540    3.6150   -2.4770 ha        1 ORC      0.140500
     40 H1         -0.9460    5.1170   -3.2510 ha        1 ORC      0.157500
     41 H3          3.1480    5.9950   -2.1390 ha        1 ORC      0.157500
     42 H261        1.9640    8.6700    0.3250 hc        1 ORC      0.074367
     43 H262        2.2560    6.9090   -0.0510 hc        1 ORC      0.074367
     44 H263        3.2400    8.2010   -0.8790 hc        1 ORC      0.074367
     45 H251       -1.2870    8.2750   -5.1130 hc        1 ORC      0.064033
     46 H252       -0.5020    6.6420   -4.9650 hc        1 ORC      0.064033
     47 H253       -2.0220    7.0180   -4.0330 hc        1 ORC      0.064033
     48 H82         3.0140    0.1010   -2.1870 hn        1 ORC      0.446300
@<TRIPOS>BOND
     1    1    2 2   
     2    2    3 2   
     3    2    4 1   
     4    2   11 1   
     5    4    5 1   
     6    4    9 2   
     7    5    6 1   
     8    5    7 2   
     9    6   28 1   
    10    6   29 1   
    11    6   30 1   
    12    7    8 1   
    13    8    9 1   
    14    9   10 1   
    15   10   31 1   
    16   10   32 1   
    17   10   33 1   
    18   11   12 1   
    19   11   27 1   
    20   11   48 1   
    21   12   13 1   
    22   12   14 1   
    23   12   34 1   
    24   13   35 1   
    25   13   36 1   
    26   13   37 1   
    27   14   15 ar  
    28   14   17 ar  
    29   15   16 ar  
    30   15   38 1   
    31   16   19 ar  
    32   16   40 1   
    33   17   18 ar  
    34   17   39 1   
    35   18   19 ar  
    36   18   41 1   
    37   19   20 1   
    38   20   21 2   
    39   20   25 1   
    40   21   22 1   
    41   21   23 1   
    42   22   42 1   
    43   22   43 1   
    44   22   44 1   
    45   23   24 1   
    46   24   25 2   
    47   25   26 1   
    48   26   45 1   
    49   26   46 1   
    50   26   47 1   
@<TRIPOS>SUBSTRUCTURE
     1 ORC         1 TEMP              0 ****  ****    0 ROOT
