@<TRIPOS>MOLECULE
ORC
   47    41     1     0     0
SMALL
bcc


@<TRIPOS>ATOM
      1 O13        -1.0970    3.0520    0.5370 o         1 ORC     -0.938000
      2 S10         0.2430    3.0920    0.0220 ss        1 ORC      2.893000
      3 O11         0.9900    3.3920    1.2110 o         1 ORC     -0.938000
      4 C12         0.4280    4.3700   -1.1930 c1        1 ORC     -0.955000
      5 C17         1.4250    5.3230   -1.2220 c1        1 ORC     -0.005000
      6 C19         2.6040    5.4040   -0.2790 c2        1 ORC     -0.179750
      7 N16         1.1800    6.1520   -2.2580 n2        1 ORC     -0.032000
      8 O15         0.0190    5.7200   -2.8890 os        1 ORC     -0.053000
      9 C14        -0.4340    4.6280   -2.2300 c1        1 ORC      0.154000
     10 C18        -1.6820    3.8430   -2.5640 c2        1 ORC     -0.179750
     11 N8          0.6830    1.6410   -0.6080 n2        1 ORC     -0.888000
     12 C7          1.4600    0.7380    0.1650 c3        1 ORC      0.082000
     13 C9          2.7220    0.3860   -0.5900 c3        1 ORC     -0.226000
     14 C5          0.6610   -0.5200    0.4260 c2        1 ORC     -0.097000
     15 C6          0.6590   -1.0890    1.6900 c2        1 ORC     -0.111000
     16 C1         -0.0120   -2.2810    1.9120 c1        1 ORC     -0.118000
     17 C4         -0.0080   -1.1440   -0.6160 c1        1 ORC     -0.116000
     18 C3         -0.6800   -2.3350   -0.3930 c1        1 ORC     -0.124000
     19 C2         -0.6820   -2.9040    0.8710 c1        1 ORC      0.004000
     20 C20        -1.4220   -4.2010    1.1150 c2        1 ORC     -0.147000
     21 C24        -0.9020   -5.4640    0.9810 c1        1 ORC     -0.009000
     22 C26         0.5300   -5.8040    0.6320 c2        1 ORC     -0.179750
     23 O23        -1.8810   -6.3530    1.2740 os        1 ORC     -0.061000
     24 N22        -3.0270   -5.6370    1.5970 n2        1 ORC     -0.029000
     25 C21        -2.7410   -4.3220    1.4980 c1        1 ORC     -0.084000
     26 C25        -3.6810   -3.1820    1.8180 c2        1 ORC     -0.179750
     27 H8          0.4170    1.4100   -1.4490 hn        1 ORC      0.242000
     28 H191        3.2090    6.1170   -0.5720 ha        1 ORC      0.113250
     29 H192        3.0830    4.5480   -0.2800 ha        1 ORC      0.113250
     30 H193        2.2850    5.5980    0.6270 ha        1 ORC      0.113250
     31 H181       -2.1100    4.2320   -3.3550 ha        1 ORC      0.113250
     32 H182       -2.3020    3.8780   -1.8070 ha        1 ORC      0.113250
     33 H183       -1.4410    2.9100   -2.7470 ha        1 ORC      0.113250
     34 H7          1.6960    1.1570    1.0170 h1        1 ORC      0.114000
     35 H91C        3.0080    1.1560   -1.1240 hc        1 ORC      0.085000
     36 H92C        2.5470   -0.3750   -1.1820 hc        1 ORC      0.085000
     37 H93C        3.4280    0.1490    0.0460 hc        1 ORC      0.085000
     38 H6          1.1310   -0.6500    2.4230 ha        1 ORC      0.144000
     39 H4         -0.0070   -0.7430   -1.5050 ha        1 ORC      0.129000
     40 H1         -0.0140   -2.6810    2.8020 ha        1 ORC      0.141000
     41 H3         -1.1510   -2.7740   -1.1270 ha        1 ORC      0.135000
     42 H261        0.7420   -5.4510   -0.2570 ha        1 ORC      0.113250
     43 H262        0.6450   -6.7780    0.6330 ha        1 ORC      0.113250
     44 H263        1.1320   -5.4030    1.2940 ha        1 ORC      0.113250
     45 H251       -4.0840   -2.8480    0.9880 ha        1 ORC      0.113250
     46 H252       -3.1820   -2.4590    2.2530 ha        1 ORC      0.113250
     47 H253       -4.3860   -3.4990    2.4180 ha        1 ORC      0.113250
@<TRIPOS>BOND
     1    1    2 1   
     2    2    3 1   
     3    4    5 1   
     4    4    9 1   
     5    5    7 1   
     6    6   28 1   
     7    6   29 1   
     8    6   30 1   
     9    7    8 1   
    10    8    9 1   
    11   10   31 1   
    12   10   32 1   
    13   10   33 1   
    14   11   12 1   
    15   11   27 1   
    16   12   13 1   
    17   12   14 1   
    18   12   34 1   
    19   13   35 1   
    20   13   36 1   
    21   13   37 1   
    22   14   15 1   
    23   14   17 1   
    24   15   16 1   
    25   15   38 1   
    26   16   40 1   
    27   17   39 1   
    28   18   19 1   
    29   18   41 1   
    30   19   20 1   
    31   20   21 1   
    32   20   25 1   
    33   21   23 1   
    34   22   42 1   
    35   22   43 1   
    36   22   44 1   
    37   23   24 1   
    38   24   25 1   
    39   26   45 1   
    40   26   46 1   
    41   26   47 1   
@<TRIPOS>SUBSTRUCTURE
     1 ORC         1 TEMP              0 ****  ****    0 ROOT
