@<TRIPOS>MOLECULE
ORC
   48    50     1     0     0
SMALL
bcc


@<TRIPOS>ATOM
      1 O13        -0.1420    0.3500   -1.9590 o         1 ORC     -0.577800
      2 S10         0.8960    0.2890   -1.0480 sy        1 ORC      1.530200
      3 O11         0.9540    1.1280    0.0460 o         1 ORC     -0.577800
      4 C12         1.3980   -1.1910   -0.7820 cc        1 ORC     -0.828100
      5 C17         2.3700   -1.6240    0.2590 cc        1 ORC      0.429600
      6 C19         3.0840   -0.7160    1.1780 c3        1 ORC     -0.174400
      7 N16         2.4700   -2.9600    0.2280 nd        1 ORC     -0.305300
      8 O15         1.6620   -3.4390   -0.7130 os        1 ORC     -0.064100
      9 C14         0.9850   -2.4180   -1.3520 cd        1 ORC      0.532000
     10 C18         0.0330   -2.7800   -2.3990 c3        1 ORC     -0.211400
     11 N8          2.4030    0.8880   -2.0260 ny        1 ORC     -0.715900
     12 C7          2.0770    1.5960   -3.3170 c3        1 ORC      0.198800
     13 C9          3.2160    1.4880   -4.3240 c3        1 ORC     -0.124100
     14 C5          1.7200    3.0280   -3.0500 ca        1 ORC     -0.193300
     15 C6          0.3990    3.4530   -3.2340 ca        1 ORC     -0.097500
     16 C1          0.0590    4.7880   -3.0370 ca        1 ORC     -0.122500
     17 C4          2.6940    3.9510   -2.6490 ca        1 ORC     -0.097500
     18 C3          2.3530    5.2830   -2.4460 ca        1 ORC     -0.122500
     19 C2          1.0310    5.7230   -2.6450 ca        1 ORC      0.067000
     20 C20         0.6910    7.1050   -2.4410 cc        1 ORC     -0.323600
     21 C24         1.2170    7.9930   -1.5070 cd        1 ORC      0.312000
     22 C26         2.2190    7.9290   -0.4450 c3        1 ORC     -0.152400
     23 O23         0.5680    9.2300   -1.6850 os        1 ORC     -0.100100
     24 N22        -0.3030    9.1550   -2.6720 nd        1 ORC     -0.341300
     25 C21        -0.2970    7.9080   -3.1830 cc        1 ORC      0.346600
     26 C25        -1.1290    7.4440   -4.3100 c3        1 ORC     -0.140400
     27 H8          2.9260    1.5440   -1.4410 hn        1 ORC      0.446300
     28 H191        3.8440   -0.1220    0.6100 hc        1 ORC      0.089367
     29 H192        3.6180   -1.2850    1.9830 hc        1 ORC      0.089367
     30 H193        2.3580   -0.0140    1.6650 hc        1 ORC      0.089367
     31 H181       -0.7120   -3.5190   -1.9970 hc        1 ORC      0.117367
     32 H182        0.5690   -3.2760   -3.2520 hc        1 ORC      0.117367
     33 H183       -0.5150   -1.8770   -2.7750 hc        1 ORC      0.117367
     34 H7          1.1740    1.0570   -3.7480 hx        1 ORC      0.110700
     35 H91C        2.9100    2.0290   -5.2560 hc        1 ORC      0.072367
     36 H92C        3.4240    0.4230   -4.5880 hc        1 ORC      0.072367
     37 H93C        4.1530    1.9610   -3.9420 hc        1 ORC      0.072367
     38 H6         -0.3790    2.7310   -3.5340 ha        1 ORC      0.140500
     39 H4          3.7390    3.6340   -2.5100 ha        1 ORC      0.140500
     40 H1         -0.9840    5.1120   -3.1790 ha        1 ORC      0.157500
     41 H3          3.1240    6.0070   -2.1370 ha        1 ORC      0.157500
     42 H261        1.9700    8.6500    0.3750 hc        1 ORC      0.074367
     43 H262        3.2260    8.2010   -0.8570 hc        1 ORC      0.074367
     44 H263        2.2670    6.8940   -0.0240 hc        1 ORC      0.074367
     45 H251       -2.0870    7.0130   -3.9220 hc        1 ORC      0.064033
     46 H252       -0.5830    6.6570   -4.8870 hc        1 ORC      0.064033
     47 H253       -1.3810    8.2860   -5.0040 hc        1 ORC      0.064033
     48 H82         3.0270    0.1130   -2.2400 hn        1 ORC      0.446300
@<TRIPOS>BOND
     1    1    2 2   
     2    2    3 2   
     3    2    4 1   
     4    2   11 1   
     5    4    5 1   
     6    4    9 2   
     7    5    6 1   
     8    5    7 2   
     9    6   28 1   
    10    6   29 1   
    11    6   30 1   
    12    7    8 1   
    13    8    9 1   
    14    9   10 1   
    15   10   31 1   
    16   10   32 1   
    17   10   33 1   
    18   11   12 1   
    19   11   27 1   
    20   11   48 1   
    21   12   13 1   
    22   12   14 1   
    23   12   34 1   
    24   13   35 1   
    25   13   36 1   
    26   13   37 1   
    27   14   15 ar  
    28   14   17 ar  
    29   15   16 ar  
    30   15   38 1   
    31   16   19 ar  
    32   16   40 1   
    33   17   18 ar  
    34   17   39 1   
    35   18   19 ar  
    36   18   41 1   
    37   19   20 1   
    38   20   21 2   
    39   20   25 1   
    40   21   22 1   
    41   21   23 1   
    42   22   42 1   
    43   22   43 1   
    44   22   44 1   
    45   23   24 1   
    46   24   25 2   
    47   25   26 1   
    48   26   45 1   
    49   26   46 1   
    50   26   47 1   
@<TRIPOS>SUBSTRUCTURE
     1 ORC         1 TEMP              0 ****  ****    0 ROOT
