@<TRIPOS>MOLECULE
ORD
   20    19     1     0     0
SMALL
bcc


@<TRIPOS>ATOM
      1 N          -0.7790    1.7910    0.5200 n3        1 ORD     -0.892800
      2 CA         -0.7590    0.3340    0.4690 c3        1 ORD      0.017500
      3 CB          0.4060   -0.2280   -0.3480 c3        1 ORD     -0.060400
      4 CG          1.7480    0.0730    0.2800 c3        1 ORD     -0.112400
      5 CD          2.8790   -0.5700   -0.5220 c3        1 ORD      0.136800
      6 NE          4.2180   -0.3570   -0.0230 n3        1 ORD     -0.906800
      7 C          -2.0830   -0.3130   -0.0600 c         1 ORD      0.887600
      8 H          -0.7210    2.1420   -0.4200 hn        1 ORD      0.329800
      9 H2         -1.6870    2.0620    0.8630 hn        1 ORD      0.329800
     10 HA         -0.6410   -0.0190    1.5360 h1        1 ORD      0.039700
     11 HB2         0.2530   -1.3390   -0.4190 hc        1 ORD      0.047200
     12 HB3         0.3770    0.1810   -1.3920 hc        1 ORD      0.047200
     13 HG2         1.9030    1.1820    0.3330 hc        1 ORD      0.034700
     14 HG3         1.7610   -0.3150    1.3320 hc        1 ORD      0.034700
     15 HD2         2.7030   -1.6820   -0.5710 h1        1 ORD      0.047200
     16 HD3         2.8420   -0.1780   -1.5780 h1        1 ORD      0.047200
     17 HE1         4.4150    0.6250    0.0250 hn        1 ORD      0.330800
     18 HE2         4.3020   -0.7290    0.9040 hn        1 ORD      0.330800
     19 O          -3.0370    0.4570   -0.3730 o         1 ORD     -0.844300
     20 OXT        -2.1310   -1.5720   -0.1250 o         1 ORD     -0.844300
@<TRIPOS>BOND
     1    1    2 1   
     2    1    8 1   
     3    1    9 1   
     4    2    3 1   
     5    2    7 1   
     6    2   10 1   
     7    3    4 1   
     8    3   11 1   
     9    3   12 1   
    10    4    5 1   
    11    4   13 1   
    12    4   14 1   
    13    5    6 1   
    14    5   15 1   
    15    5   16 1   
    16    6   17 1   
    17    6   18 1   
    18    7   19 1   
    19    7   20 1   
@<TRIPOS>SUBSTRUCTURE
     1 ORD         1 TEMP              0 ****  ****    0 ROOT
