@<TRIPOS>MOLECULE
ORD
   20    19     1     0     0
SMALL
bcc


@<TRIPOS>ATOM
      1 N          -2.1720    0.5660   -1.3370 n3        1 ORD     -0.892800
      2 CA         -0.7490    0.5660   -1.3370 c3        1 ORD      0.017500
      3 CB         -0.2450    0.5660    0.0880 c3        1 ORD     -0.060400
      4 CG          0.4550   -0.7440    0.3750 c3        1 ORD     -0.112400
      5 CD          0.9420   -0.7520    1.8080 c3        1 ORD      0.136800
      6 NE          1.6220   -1.9770    2.0720 n3        1 ORD     -0.906800
      7 O           0.5550    1.6870   -3.0150 o         1 ORD     -0.844300
      8 OXT        -0.6260    2.9410   -1.6780 o         1 ORD     -0.844300
      9 C          -0.2450    1.8000   -2.0490 c         1 ORD      0.887600
     10 H          -2.4760    1.1070   -2.0050 hn        1 ORD      0.329800
     11 H2         -2.4760   -0.2830   -1.4720 hn        1 ORD      0.329800
     12 HA         -0.4240   -0.2310   -1.7970 h1        1 ORD      0.039700
     13 HB2        -0.9990    0.6730    0.7000 hc        1 ORD      0.047200
     14 HB3         0.3810    1.3040    0.2120 hc        1 ORD      0.047200
     15 HG2        -0.1680   -1.4830    0.2390 hc        1 ORD      0.034700
     16 HG3         1.2170   -0.8450   -0.2270 hc        1 ORD      0.034700
     17 HD2         1.5520   -0.0040    1.9480 h1        1 ORD      0.047200
     18 HD3         0.1790   -0.6670    2.4110 h1        1 ORD      0.047200
     19 HE1         2.4810   -1.8000    2.3210 hn        1 ORD      0.330800
     20 HE2         1.1960   -2.4230    2.7440 hn        1 ORD      0.330800
@<TRIPOS>BOND
     1    1    2 1   
     2    1   10 1   
     3    1   11 1   
     4    2    3 1   
     5    2    9 1   
     6    2   12 1   
     7    3    4 1   
     8    3   13 1   
     9    3   14 1   
    10    4    5 1   
    11    4   15 1   
    12    4   16 1   
    13    5    6 1   
    14    5   17 1   
    15    5   18 1   
    16    6   19 1   
    17    6   20 1   
    18    7    9 1   
    19    8    9 1   
@<TRIPOS>SUBSTRUCTURE
     1 ORD         1 TEMP              0 ****  ****    0 ROOT
