@<TRIPOS>MOLECULE
ORE
   38    33     1     0     0
SMALL
bcc


@<TRIPOS>ATOM
      1 O7         -3.0920    0.9840    5.0440 o         1 ORE     -0.576000
      2 C21        -2.5560   -0.0870    4.6550 c2        1 ORE      0.353000
      3 O6         -2.6780   -1.1360    5.3400 o         1 ORE     -0.576000
      4 C17        -1.7760   -0.1150    3.3610 c2        1 ORE     -0.083000
      5 C18        -2.4280   -0.3720    2.1650 c2        1 ORE     -0.100000
      6 C19        -1.7210   -0.3560    0.9720 c1        1 ORE     -0.063000
      7 C20        -2.4370   -0.6210   -0.3360 c1        1 ORE      0.351000
      8 O5         -2.4500   -1.7820   -0.8240 o         1 ORE     -0.565500
      9 O4         -3.0370    0.3170   -0.9260 o         1 ORE     -0.565500
     10 C16        -0.4170    0.1570    3.3640 c1        1 ORE     -0.134000
     11 C15         0.2900    0.1730    2.1720 c1        1 ORE     -0.150000
     12 C14        -0.3620   -0.0840    0.9760 c1        1 ORE     -0.148000
     13 C10         0.3410   -0.0550   -0.2160 c1        1 ORE      0.226000
     14 C9          0.9390   -1.2430   -0.6440 c1        1 ORE     -0.181000
     15 C8          0.8450   -2.4050    0.1480 c2        1 ORE     -0.055000
     16 C7          1.4540   -3.5820   -0.2710 c1        1 ORE     -0.063000
     17 F2          1.5290   -4.7430    0.3930 f         1 ORE     -0.103500
     18 C6          2.1590   -3.6140   -1.4720 c2        1 ORE      0.303000
     19 O3          2.6880   -4.6440   -1.8390 o         1 ORE     -0.368000
     20 C4          1.6360   -1.2740   -1.8320 c1        1 ORE      0.166000
     21 C5          2.2530   -2.4670   -2.2540 c1        1 ORE     -0.338000
     22 C11         0.4500    1.1000   -0.9930 c1        1 ORE     -0.126000
     23 C12        -0.1540    2.2980   -0.5640 c1        1 ORE     -0.006000
     24 C13        -0.0470    3.4460   -1.3390 c1        1 ORE      0.032000
     25 F1         -0.7690    4.5300   -1.0300 f         1 ORE     -0.103500
     26 C3          1.1470    1.0670   -2.1810 c2        1 ORE      0.117000
     27 O2          1.7440   -0.1190   -2.6080 os        1 ORE     -0.142000
     28 C2          1.2550    2.2310   -2.9650 c2        1 ORE     -0.254000
     29 C1          0.6580    3.4130   -2.5410 c2        1 ORE      0.076000
     30 O1          0.7270    4.5510   -3.3680 oh        1 ORE     -0.246000
     31 H18        -3.3850   -0.5630    2.1620 ha        1 ORE      0.163000
     32 H16         0.0420    0.3380    4.2060 ha        1 ORE      0.145000
     33 H15         1.2480    0.3660    2.1750 ha        1 ORE      0.101000
     34 H8          0.5570   -2.6320    1.0550 ha        1 ORE      0.182000
     35 H5          2.6990   -2.5040   -3.1220 ha        1 ORE      0.146000
     36 H12        -0.6480    2.3210    0.2770 ha        1 ORE      0.238000
     37 H2          1.7490    2.2080   -3.8070 ha        1 ORE      0.141000
     38 HO1         1.5460    4.8950   -3.3320 ho        1 ORE      0.208000
@<TRIPOS>BOND
     1    1    2 1   
     2    2    3 1   
     3    2    4 1   
     4    4    5 1   
     5    4   10 1   
     6    5    6 1   
     7    5   31 1   
     8    6   12 1   
     9    7    8 1   
    10    7    9 1   
    11   10   32 1   
    12   11   12 1   
    13   11   33 1   
    14   13   22 1   
    15   14   15 1   
    16   14   20 1   
    17   15   16 1   
    18   15   34 1   
    19   16   18 1   
    20   18   19 1   
    21   18   21 1   
    22   20   27 1   
    23   21   35 1   
    24   22   26 1   
    25   23   24 1   
    26   23   36 1   
    27   24   29 1   
    28   26   27 1   
    29   26   28 1   
    30   28   29 1   
    31   28   37 1   
    32   29   30 1   
    33   30   38 1   
@<TRIPOS>SUBSTRUCTURE
     1 ORE         1 TEMP              0 ****  ****    0 ROOT
