@<TRIPOS>MOLECULE
ORE
   38    41     1     0     0
SMALL
bcc


@<TRIPOS>ATOM
      1 O7         21.2760   28.9170   43.4250 o         1 ORE     -0.841300
      2 C21        22.2540   28.1170   43.4390 c         1 ORE      0.904200
      3 O6         23.0950   28.0670   44.3860 o         1 ORE     -0.841300
      4 C17        22.4430   27.1660   42.2690 ca        1 ORE     -0.103600
      5 C18        21.6080   27.1940   41.1530 ca        1 ORE     -0.100000
      6 C19        21.8080   26.3290   40.0650 ca        1 ORE     -0.083600
      7 C20        20.8510   26.4010   38.8840 c         1 ORE      0.902200
      8 O5         21.0970   27.2600   37.9840 o         1 ORE     -0.830800
      9 O4         19.8720   25.6080   38.8450 o         1 ORE     -0.830800
     10 C16        23.4930   26.2340   42.3080 ca        1 ORE     -0.134000
     11 C15        23.6970   25.3620   41.2530 ca        1 ORE     -0.150000
     12 C14        22.8700   25.4140   40.1090 ca        1 ORE     -0.148000
     13 C10        23.1790   24.4840   39.0280 cc        1 ORE      0.226000
     14 C9         23.1620   23.1150   39.2220 cd        1 ORE     -0.258100
     15 C8         22.6930   22.5050   40.4410 cd        1 ORE     -0.043200
     16 C7         22.7060   21.1530   40.6160 cc        1 ORE     -0.019700
     17 F2         22.2620   20.5960   41.7720 f         1 ORE     -0.175500
     18 C6         23.1900   20.2200   39.5720 c         1 ORE      0.580500
     19 O3         23.2210   18.9860   39.7450 o         1 ORE     -0.607100
     20 C4         23.6020   22.2040   38.1910 cd        1 ORE      0.360700
     21 C5         23.6280   20.8470   38.3380 cc        1 ORE     -0.357200
     22 C11        23.6340   24.9710   37.7380 ca        1 ORE     -0.191300
     23 C12        23.6740   26.3400   37.4140 ca        1 ORE     -0.006000
     24 C13        24.1840   26.7640   36.1800 ca        1 ORE      0.066900
     25 F1         24.2540   28.0810   35.8760 f         1 ORE     -0.128900
     26 C3         24.0690   24.0410   36.7730 ca        1 ORE      0.377000
     27 O2         24.0630   22.6730   36.9680 os        1 ORE     -0.400800
     28 C2         24.5680   24.4390   35.5230 ca        1 ORE     -0.319300
     29 C1         24.6270   25.8010   35.2340 ca        1 ORE      0.121100
     30 O1         25.1230   26.2770   34.0420 oh        1 ORE     -0.492100
     31 H18        20.7740   27.9150   41.1300 ha        1 ORE      0.163000
     32 H16        24.1430   26.2190   43.1970 ha        1 ORE      0.145000
     33 H15        24.5160   24.6300   41.2900 ha        1 ORE      0.101000
     34 H8         22.3110   23.1810   41.2280 ha        1 ORE      0.182000
     35 H5         23.9750   20.1910   37.5310 ha        1 ORE      0.146000
     36 H12        23.2420   27.0880   38.1170 ha        1 ORE      0.238000
     37 H2         24.8920   23.6850   34.7950 ha        1 ORE      0.141000
     38 HO1        25.2820   25.5140   33.4680 ho        1 ORE      0.409000
@<TRIPOS>BOND
     1    1    2 1   
     2    2    3 1   
     3    2    4 1   
     4    4    5 ar  
     5    4   10 ar  
     6    5    6 ar  
     7    5   31 1   
     8    6    7 1   
     9    6   12 ar  
    10    7    8 1   
    11    7    9 1   
    12   10   11 ar  
    13   10   32 1   
    14   11   12 ar  
    15   11   33 1   
    16   12   13 1   
    17   13   14 2   
    18   13   22 1   
    19   14   15 1   
    20   14   20 1   
    21   15   16 2   
    22   15   34 1   
    23   16   17 1   
    24   16   18 1   
    25   18   19 2   
    26   18   21 1   
    27   20   21 2   
    28   20   27 1   
    29   21   35 1   
    30   22   23 ar  
    31   22   26 ar  
    32   23   24 ar  
    33   23   36 1   
    34   24   25 1   
    35   24   29 ar  
    36   26   27 1   
    37   26   28 ar  
    38   28   29 ar  
    39   28   37 1   
    40   29   30 1   
    41   30   38 1   
@<TRIPOS>SUBSTRUCTURE
     1 ORE         1 TEMP              0 ****  ****    0 ROOT
