@<TRIPOS>MOLECULE
ORE
   38    41     1     0     0
SMALL
bcc


@<TRIPOS>ATOM
      1 O7          0.1340    0.0760    0.1690 o         1 ORE     -0.840800
      2 C21         1.3880   -0.0450    0.0730 c         1 ORE      0.904200
      3 O6          2.1520   -0.1520    1.0790 o         1 ORE     -0.840800
      4 C17         2.0220   -0.0580   -1.3080 ca        1 ORE     -0.103600
      5 C18         1.2690    0.1170   -2.4670 ca        1 ORE     -0.100000
      6 C19         1.8680    0.1350   -3.7370 ca        1 ORE     -0.084600
      7 C20         0.9840    0.3200   -4.9610 c         1 ORE      0.902200
      8 O5          0.6920    1.5070   -5.2980 o         1 ORE     -0.831800
      9 O4          0.5890   -0.7000   -5.5870 o         1 ORE     -0.831800
     10 C16         3.4090   -0.2470   -1.4210 ca        1 ORE     -0.134000
     11 C15         4.0170   -0.2500   -2.6650 ca        1 ORE     -0.150000
     12 C14         3.2570   -0.0360   -3.8360 ca        1 ORE     -0.147000
     13 C10         3.9860   -0.0110   -5.1000 cc        1 ORE      0.224000
     14 C9          4.7260   -1.0950   -5.5350 cd        1 ORE     -0.257100
     15 C8          4.7110   -2.3700   -4.8650 cd        1 ORE     -0.044200
     16 C7          5.4670   -3.4170   -5.3010 cc        1 ORE     -0.019700
     17 F2          5.4420   -4.6120   -4.6560 f         1 ORE     -0.175500
     18 C6          6.3460   -3.3230   -6.4910 c         1 ORE      0.580500
     19 O3          7.0530   -4.2760   -6.8720 o         1 ORE     -0.607100
     20 C4          5.5550   -1.0120   -6.7150 cd        1 ORE      0.359700
     21 C5          6.3240   -2.0430   -7.1740 cc        1 ORE     -0.356200
     22 C11         4.0540    1.2050   -5.8900 ca        1 ORE     -0.196300
     23 C12         3.3270    2.3640   -5.5580 ca        1 ORE      0.009000
     24 C13         3.4750    3.5230   -6.3230 ca        1 ORE      0.002900
     25 F1          2.8050    4.6640   -6.0120 f         1 ORE     -0.148900
     26 C3          4.8880    1.2390   -7.0270 ca        1 ORE      0.375000
     27 O2          5.6400    0.1600   -7.4530 os        1 ORE     -0.398800
     28 C2          5.0360    2.3880   -7.8220 ca        1 ORE     -0.264300
     29 C1          4.3250    3.5290   -7.4610 ca        1 ORE      0.127100
     30 O1          4.4900    4.6530   -8.2400 oh        1 ORE     -0.507100
     31 H18         0.1780    0.2490   -2.3780 ha        1 ORE      0.163000
     32 H16         3.9920   -0.3920   -0.4990 ha        1 ORE      0.145000
     33 H15         5.1020   -0.4040   -2.7500 ha        1 ORE      0.101000
     34 H8          4.0500   -2.4690   -3.9840 ha        1 ORE      0.181000
     35 H5          6.9450   -1.9370   -8.0730 ha        1 ORE      0.147000
     36 H12         2.5910    2.3400   -4.7220 ha        1 ORE      0.237000
     37 H2          5.6870    2.3810   -8.7040 ha        1 ORE      0.156000
     38 HO1         3.8500    5.3130   -7.9310 ho        1 ORE      0.426000
@<TRIPOS>BOND
     1    1    2 1   
     2    2    3 1   
     3    2    4 1   
     4    4    5 ar  
     5    4   10 ar  
     6    5    6 ar  
     7    5   31 1   
     8    6    7 1   
     9    6   12 ar  
    10    7    8 1   
    11    7    9 1   
    12   10   11 ar  
    13   10   32 1   
    14   11   12 ar  
    15   11   33 1   
    16   12   13 1   
    17   13   14 2   
    18   13   22 1   
    19   14   15 1   
    20   14   20 1   
    21   15   16 2   
    22   15   34 1   
    23   16   17 1   
    24   16   18 1   
    25   18   19 2   
    26   18   21 1   
    27   20   21 2   
    28   20   27 1   
    29   21   35 1   
    30   22   23 ar  
    31   22   26 ar  
    32   23   24 ar  
    33   23   36 1   
    34   24   25 1   
    35   24   29 ar  
    36   26   27 1   
    37   26   28 ar  
    38   28   29 ar  
    39   28   37 1   
    40   29   30 1   
    41   30   38 1   
@<TRIPOS>SUBSTRUCTURE
     1 ORE         1 TEMP              0 ****  ****    0 ROOT
