@<TRIPOS>MOLECULE
ORG
   42    44     1     0     0
SMALL
bcc


@<TRIPOS>ATOM
      1 N1         -0.8970    1.3100   -0.2690 nb        1 ORG     -0.781000
      2 C2         -0.6510   -0.0650   -0.3090 ca        1 ORG      0.925900
      3 N3          0.6100   -0.6360   -0.1990 nb        1 ORG     -0.835000
      4 C4          1.6660    0.2480   -0.0660 ca        1 ORG      0.923900
      5 N5          1.5160    1.6410   -0.0670 nb        1 ORG     -0.786000
      6 C6          0.2280    2.0720   -0.1590 ca        1 ORG      0.816000
      7 N7         -1.7100   -0.9390   -0.5450 nh        1 ORG     -0.825900
      8 N8          2.9540   -0.2770    0.1510 nh        1 ORG     -0.730300
      9 C9          0.0290    3.5060   -0.1390 cg        1 ORG      0.148800
     10 C10         4.0870    0.6190   -0.0130 c3        1 ORG      0.167300
     11 C11         5.4270    0.0060    0.4510 c3        1 ORG      0.143300
     12 N12         5.6740   -1.3500    0.0130 n3        1 ORG     -0.797200
     13 C13         4.5480   -2.2070    0.3120 c3        1 ORG      0.143300
     14 C14         3.1720   -1.6820   -0.1530 c3        1 ORG      0.167300
     15 N15        -0.1300    4.6550   -0.1230 n1        1 ORG     -0.324800
     16 C16        -3.0950   -0.5360   -0.3780 c3        1 ORG      0.216500
     17 C17        -4.0330   -1.5550   -1.0540 c3        1 ORG     -0.093400
     18 C18        -5.4680   -1.0790   -0.9640 c3        1 ORG     -0.074900
     19 C19        -5.8910   -0.8610    0.4740 c3        1 ORG     -0.081400
     20 C20        -4.9540    0.0960    1.1790 c3        1 ORG     -0.074900
     21 C21        -3.5160   -0.3700    1.0930 c3        1 ORG     -0.093400
     22 HN7        -1.5220   -1.9070   -0.3870 hn        1 ORG      0.435800
     23 H10         4.1770    0.9300   -1.0930 h1        1 ORG      0.060450
     24 H10A        3.9160    1.5460    0.6040 h1        1 ORG      0.060450
     25 H11         6.2520    0.6720    0.0740 h1        1 ORG      0.065200
     26 H11A        5.4600    0.0100    1.5770 h1        1 ORG      0.065200
     27 HN12        5.8730   -1.3670   -0.9720 hn        1 ORG      0.354800
     28 H13         4.7090   -3.2100   -0.1700 h1        1 ORG      0.065200
     29 H13A        4.5230   -2.3530    1.4290 h1        1 ORG      0.065200
     30 H14         2.3880   -2.2980    0.3720 h1        1 ORG      0.060450
     31 H14A        3.0670   -1.8550   -1.2630 h1        1 ORG      0.060450
     32 H16        -3.2350    0.4590   -0.8990 h1        1 ORG      0.089700
     33 H17        -3.7490   -1.6810   -2.1310 hc        1 ORG      0.048200
     34 H17A       -3.9360   -2.5540   -0.5540 hc        1 ORG      0.048200
     35 H18        -5.5820   -0.1220   -1.5370 hc        1 ORG      0.046450
     36 H18A       -6.1380   -1.8400   -1.4420 hc        1 ORG      0.046450
     37 H19        -6.9350   -0.4530    0.4990 hc        1 ORG      0.042700
     38 H19A       -5.9010   -1.8440    1.0150 hc        1 ORG      0.042700
     39 H20        -5.0440    1.1160    0.7200 hc        1 ORG      0.046450
     40 H20A       -5.2490    0.1860    2.2570 hc        1 ORG      0.046450
     41 H21        -3.4030   -1.3450    1.6330 hc        1 ORG      0.048200
     42 H21A       -2.8520    0.3810    1.5950 hc        1 ORG      0.048200
@<TRIPOS>BOND
     1    1    2 ar  
     2    1    6 ar  
     3    2    3 ar  
     4    2    7 1   
     5    3    4 ar  
     6    4    5 ar  
     7    4    8 1   
     8    5    6 ar  
     9    6    9 1   
    10    7   16 1   
    11    7   22 1   
    12    8   10 1   
    13    8   14 1   
    14    9   15 3   
    15   10   11 1   
    16   10   23 1   
    17   10   24 1   
    18   11   12 1   
    19   11   25 1   
    20   11   26 1   
    21   12   13 1   
    22   12   27 1   
    23   13   14 1   
    24   13   28 1   
    25   13   29 1   
    26   14   30 1   
    27   14   31 1   
    28   16   17 1   
    29   16   21 1   
    30   16   32 1   
    31   17   18 1   
    32   17   33 1   
    33   17   34 1   
    34   18   19 1   
    35   18   35 1   
    36   18   36 1   
    37   19   20 1   
    38   19   37 1   
    39   19   38 1   
    40   20   21 1   
    41   20   39 1   
    42   20   40 1   
    43   21   41 1   
    44   21   42 1   
@<TRIPOS>SUBSTRUCTURE
     1 ORG         1 TEMP              0 ****  ****    0 ROOT
