@<TRIPOS>MOLECULE
ORG
   42    44     1     0     0
SMALL
bcc


@<TRIPOS>ATOM
      1 N1         -0.3390    0.0350   -0.1090 nb        1 ORG     -0.782000
      2 C2          1.0370    0.2730   -0.0610 ca        1 ORG      0.925900
      3 N3          1.7740    0.3630    1.1130 nb        1 ORG     -0.835000
      4 C4          1.0580    0.2250    2.2890 ca        1 ORG      0.923900
      5 N5         -0.3290    0.0360    2.3350 nb        1 ORG     -0.786000
      6 C6         -0.9290   -0.0570    1.1170 ca        1 ORG      0.816000
      7 N7          1.7280    0.5110   -1.2460 nh        1 ORG     -0.826900
      8 N8          1.7680    0.2070    3.5050 nh        1 ORG     -0.730300
      9 C9         -2.3600   -0.2780    1.1230 cg        1 ORG      0.148800
     10 C10         1.0090    0.3690    4.7340 c3        1 ORG      0.167300
     11 C11         1.8450    0.1240    6.0100 c3        1 ORG      0.143300
     12 N12         3.1480    0.7520    6.0280 n3        1 ORG     -0.797200
     13 C13         3.8880    0.4510    4.8230 c3        1 ORG      0.143300
     14 C14         3.1330    0.7060    3.4990 c3        1 ORG      0.167300
     15 N15        -3.5070   -0.4550    1.1270 n1        1 ORG     -0.324800
     16 C16         1.1790    0.1570   -2.5440 c3        1 ORG      0.216500
     17 C17         1.9670    0.8600   -3.6670 c3        1 ORG     -0.093400
     18 C18         1.3290    0.5680   -5.0090 c3        1 ORG     -0.074900
     19 C19         1.2600   -0.9200   -5.2790 c3        1 ORG     -0.081400
     20 C20         0.5360   -1.6440   -4.1630 c3        1 ORG     -0.074900
     21 C21         1.1650   -1.3580   -2.8170 c3        1 ORG     -0.093400
     22 HN7         2.7240    0.4950   -1.1830 hn        1 ORG      0.436800
     23 H10         0.1620   -0.3740    4.7460 h1        1 ORG      0.060450
     24 H10A        0.5660    1.4050    4.7770 h1        1 ORG      0.060450
     25 H11         2.0020   -0.9850    6.1350 h1        1 ORG      0.065200
     26 H11A        1.2440    0.4940    6.8850 h1        1 ORG      0.065200
     27 HN12        3.0540    1.7460    6.1410 hn        1 ORG      0.354800
     28 H13         4.8270    1.0700    4.8010 h1        1 ORG      0.065200
     29 H13A        4.1830   -0.6350    4.8690 h1        1 ORG      0.065200
     30 H14         3.7120    0.1880    2.6830 h1        1 ORG      0.060450
     31 H14A        3.1360    1.8130    3.2800 h1        1 ORG      0.060450
     32 H16         0.1120    0.5320   -2.5860 h1        1 ORG      0.089700
     33 H17         3.0300    0.5010   -3.6700 hc        1 ORG      0.048200
     34 H17A        1.9780    1.9670   -3.4920 hc        1 ORG      0.048200
     35 H18         1.9250    1.0700   -5.8150 hc        1 ORG      0.046450
     36 H18A        0.2950    1.0020   -5.0350 hc        1 ORG      0.046450
     37 H19         0.7290   -1.1010   -6.2500 hc        1 ORG      0.042700
     38 H19A        2.2980   -1.3320   -5.3810 hc        1 ORG      0.042700
     39 H20        -0.5410   -1.3280   -4.1470 hc        1 ORG      0.046450
     40 H20A        0.5590   -2.7490   -4.3540 hc        1 ORG      0.046450
     41 H21         0.5820   -1.8820   -2.0150 hc        1 ORG      0.048200
     42 H21A        2.2130   -1.7570   -2.7970 hc        1 ORG      0.048200
@<TRIPOS>BOND
     1    1    2 ar  
     2    1    6 ar  
     3    2    3 ar  
     4    2    7 1   
     5    3    4 ar  
     6    4    5 ar  
     7    4    8 1   
     8    5    6 ar  
     9    6    9 1   
    10    7   16 1   
    11    7   22 1   
    12    8   10 1   
    13    8   14 1   
    14    9   15 3   
    15   10   11 1   
    16   10   23 1   
    17   10   24 1   
    18   11   12 1   
    19   11   25 1   
    20   11   26 1   
    21   12   13 1   
    22   12   27 1   
    23   13   14 1   
    24   13   28 1   
    25   13   29 1   
    26   14   30 1   
    27   14   31 1   
    28   16   17 1   
    29   16   21 1   
    30   16   32 1   
    31   17   18 1   
    32   17   33 1   
    33   17   34 1   
    34   18   19 1   
    35   18   35 1   
    36   18   36 1   
    37   19   20 1   
    38   19   37 1   
    39   19   38 1   
    40   20   21 1   
    41   20   39 1   
    42   20   40 1   
    43   21   41 1   
    44   21   42 1   
@<TRIPOS>SUBSTRUCTURE
     1 ORG         1 TEMP              0 ****  ****    0 ROOT
