@<TRIPOS>MOLECULE
ORG
   42    43     1     0     0
SMALL
bcc


@<TRIPOS>ATOM
      1 N1         -0.3650   -0.0780    0.1030 nb        1 ORG     -0.782000
      2 C2          1.0110    0.1620    0.0880 ca        1 ORG      0.924900
      3 N3          1.7900    0.3160    1.2280 nb        1 ORG     -0.834000
      4 C4          1.1170    0.2450    2.4350 ca        1 ORG      0.923900
      5 N5         -0.2670    0.0590    2.5410 nb        1 ORG     -0.785000
      6 C6         -0.9100   -0.1020    1.3520 ca        1 ORG      0.816000
      7 N7          1.6580    0.3380   -1.1340 nu        1 ORG     -0.827900
      8 N8          1.8710    0.2860    3.6230 nh        1 ORG     -0.727300
      9 C9         -2.3400   -0.3230    1.4220 cg        1 ORG      0.149800
     10 C10         1.1630    0.5530    4.8670 c3        1 ORG      0.203300
     11 C11         2.0290    0.3160    6.1220 c3        1 ORG      0.152800
     12 N12         3.3330    0.9390    6.0370 n7        1 ORG     -0.820200
     13 C13         4.0450    0.5560    4.8360 c3        1 ORG      0.152800
     14 C14         3.2300    0.7990    3.5480 c3        1 ORG      0.203300
     15 N15        -3.4850   -0.5000    1.4770 n1        1 ORG     -0.325800
     16 C16         1.0660   -0.1040   -2.3890 c3        1 ORG      0.216500
     17 C17         1.8030    0.5490   -3.5750 c3        1 ORG     -0.084400
     18 C18         0.9570    0.5660   -4.8350 c3        1 ORG     -0.050200
     19 C19         1.0690   -0.6770   -5.6380 c2        1 ORG     -0.170200
     20 C20         0.0340   -1.2820   -6.2150 c2        1 ORG     -0.221000
     21 C21         1.0650   -1.6240   -2.5540 c3        1 ORG     -0.127100
     22 HN7         2.6560    0.3200   -1.1040 hn        1 ORG      0.434800
     23 H10         0.2770   -0.1380    4.9490 h1        1 ORG      0.063950
     24 H10A        0.7890    1.6170    4.8760 h1        1 ORG      0.063950
     25 H11         2.0980   -0.7980    6.3000 h1        1 ORG      0.040700
     26 H11A        1.4840    0.7720    6.9960 h1        1 ORG      0.040700
     27 HN12        3.8780    0.7210    6.8500 hn        1 ORG      0.369800
     28 H13         4.3630   -0.5270    4.8540 h1        1 ORG      0.040700
     29 H13A        4.9750    1.1880    4.7690 h1        1 ORG      0.040700
     30 H14         3.2130    1.9050    3.3280 h1        1 ORG      0.063950
     31 H14A        3.7800    0.2790    2.7140 h1        1 ORG      0.063950
     32 H16        -0.0070    0.2560   -2.4050 h1        1 ORG      0.089700
     33 H17         2.0620    1.6110   -3.3190 hc        1 ORG      0.049700
     34 H17A       -0.1150    0.7730   -4.5730 hc        1 ORG      0.053700
     35 H18         1.3060    1.4210   -5.4800 hc        1 ORG      0.053700
     36 H18A        2.7650    0.0040   -3.7630 hc        1 ORG      0.049700
     37 H19         2.0930   -1.0710   -5.7500 ha        1 ORG      0.119000
     38 H19A       -0.9980   -0.9180   -6.1200 ha        1 ORG      0.114000
     39 H20         0.1510   -2.1870   -6.8260 ha        1 ORG      0.114000
     40 H20A        2.1020   -2.0360   -2.5190 hc        1 ORG      0.048700
     41 H21         0.6160   -1.8770   -3.5470 hc        1 ORG      0.048700
     42 H21A        0.4570   -2.1090   -1.7540 hc        1 ORG      0.048700
@<TRIPOS>BOND
     1    1    2 ar  
     2    1    6 ar  
     3    2    3 ar  
     4    2    7 1   
     5    3    4 ar  
     6    4    5 ar  
     7    4    8 1   
     8    5    6 ar  
     9    6    9 1   
    10    7   16 1   
    11    7   22 1   
    12    8   10 1   
    13    8   14 1   
    14    9   15 3   
    15   10   11 1   
    16   10   23 1   
    17   10   24 1   
    18   11   12 1   
    19   11   25 1   
    20   11   26 1   
    21   12   13 1   
    22   12   27 1   
    23   13   14 1   
    24   13   28 1   
    25   13   29 1   
    26   14   30 1   
    27   14   31 1   
    28   16   17 1   
    29   16   21 1   
    30   16   32 1   
    31   17   18 1   
    32   17   33 1   
    33   17   36 1   
    34   18   19 1   
    35   18   34 1   
    36   18   35 1   
    37   19   20 2   
    38   19   37 1   
    39   20   38 1   
    40   20   39 1   
    41   21   40 1   
    42   21   41 1   
    43   21   42 1   
@<TRIPOS>SUBSTRUCTURE
     1 ORG         1 TEMP              0 ****  ****    0 ROOT
