@<TRIPOS>MOLECULE
ORG
   43    44     1     0     0
SMALL
bcc


@<TRIPOS>ATOM
      1 N1         -0.2410    0.3770   -0.1070 nb        1 ORG     -0.755000
      2 C2          1.1100    0.5850    0.0090 ca        1 ORG      0.718500
      3 N3          1.8570    0.6100    1.1480 nb        1 ORG     -0.779000
      4 C4          1.1250    0.3890    2.3330 ca        1 ORG      0.928900
      5 N5         -0.2720    0.1920    2.3290 nb        1 ORG     -0.720000
      6 C6         -0.8640    0.1910    1.1160 ca        1 ORG      0.844000
      7 N7          1.8330    0.8670   -1.2270 nh        1 ORG     -0.273900
      8 N8          1.8020    0.3270    3.5290 nh        1 ORG     -0.690300
      9 C9         -2.2920   -0.0180    1.0700 cg        1 ORG      0.112800
     10 C10         1.0520    0.3000    4.7820 c3        1 ORG      0.199800
     11 C11         1.8710   -0.2020    5.9890 c3        1 ORG      0.152800
     12 N12         3.1830    0.4010    6.0570 n3        1 ORG     -0.823200
     13 C13         3.9400    0.1760    4.8460 c3        1 ORG      0.152800
     14 C14         3.2100    0.6970    3.5900 c3        1 ORG      0.199800
     15 N15        -3.4390   -0.1860    1.0320 n1        1 ORG     -0.243800
     16 C16         1.8890    0.0710   -2.2760 c2        1 ORG      0.445300
     17 C17         2.6090    0.5130   -3.5250 c3        1 ORG     -0.183200
     18 C18         1.6810    0.3900   -4.7240 c3        1 ORG     -0.081900
     19 C19         1.0920   -0.9980   -4.8380 c3        1 ORG     -0.100400
     20 C20         0.3820   -1.4070   -3.5660 c3        1 ORG     -0.081900
     21 C21         1.2990   -1.3040   -2.3560 c3        1 ORG     -0.183200
     22 HN7        -1.8800    0.8590   -5.1940 ha        1 ORG      0.000500
     23 H10         0.1630   -0.3870    4.6840 h1        1 ORG      0.077450
     24 H10A        0.6800    1.3440    4.9920 h1        1 ORG      0.077450
     25 H11         1.9150   -1.3300    5.9440 h1        1 ORG      0.054950
     26 H11A        1.3010    0.0870    6.9180 h1        1 ORG      0.054950
     27 HN12        3.6870    0.0860    6.8640 hn        1 ORG      0.392800
     28 H13         4.1860   -0.9150    4.6860 h1        1 ORG      0.054950
     29 H13A        4.9100    0.7440    4.9260 h1        1 ORG      0.054950
     30 H14         3.2820    1.8230    3.5600 h1        1 ORG      0.077450
     31 H14A        3.7580    0.2760    2.7000 h1        1 ORG      0.077450
     32 H16        -1.2820    0.5610   -5.0800 ha        1 ORG      0.000500
     33 H17         2.9980    1.5640   -3.4570 hc        1 ORG      0.103450
     34 H17A        3.4950   -0.1700   -3.6600 hc        1 ORG      0.103450
     35 H18         2.2710    0.6310   -5.6490 hc        1 ORG      0.081700
     36 H18A        0.8570    1.1490   -4.6450 hc        1 ORG      0.081700
     37 H19         1.9010   -1.7370   -5.0790 hc        1 ORG      0.075700
     38 H19A        0.3580   -1.0160   -5.6900 hc        1 ORG      0.075700
     39 H20        -0.5260   -0.7650   -3.4080 hc        1 ORG      0.081700
     40 H20A        0.0320   -2.4700   -3.6500 hc        1 ORG      0.081700
     41 H21         2.1630   -2.0200   -2.4750 hc        1 ORG      0.103450
     42 H21A        0.7380   -1.6060   -1.4330 hc        1 ORG      0.103450
     43 H72         2.3000    1.7630   -1.2350 hn        1 ORG      0.343700
@<TRIPOS>BOND
     1    1    2 ar  
     2    1    6 ar  
     3    2    3 ar  
     4    2    7 1   
     5    3    4 ar  
     6    4    5 ar  
     7    4    8 1   
     8    5    6 ar  
     9    6    9 1   
    10    7   16 2   
    11    7   43 1   
    12    8   10 1   
    13    8   14 1   
    14    9   15 3   
    15   10   11 1   
    16   10   23 1   
    17   10   24 1   
    18   11   12 1   
    19   11   25 1   
    20   11   26 1   
    21   12   13 1   
    22   12   27 1   
    23   13   14 1   
    24   13   28 1   
    25   13   29 1   
    26   14   30 1   
    27   14   31 1   
    28   16   17 1   
    29   16   21 1   
    30   17   18 1   
    31   17   33 1   
    32   17   34 1   
    33   18   19 1   
    34   18   35 1   
    35   18   36 1   
    36   19   20 1   
    37   19   37 1   
    38   19   38 1   
    39   20   21 1   
    40   20   39 1   
    41   20   40 1   
    42   21   41 1   
    43   21   42 1   
    44   22   32 1   
@<TRIPOS>SUBSTRUCTURE
     1 ORG         1 TEMP              0 ****  ****    0 ROOT
