@<TRIPOS>MOLECULE
ORG
   42    41     1     0     0
SMALL
bcc


@<TRIPOS>ATOM
      1 N1         -1.4350    0.3030   -0.3840 n1        1 ORG     -0.453800
      2 C2         -0.0870    0.3140   -0.3980 c1        1 ORG      0.587600
      3 N3          0.6150    0.3050    0.7870 n1        1 ORG     -0.633800
      4 C4         -0.0360    0.2860    1.9390 c1        1 ORG      0.586600
      5 N5         -1.3820    0.2750    1.9510 n1        1 ORG     -0.584800
      6 C6         -2.0830    0.2840    0.7660 cg        1 ORG      0.382300
      7 N7          0.6210    0.3230   -1.6620 n3        1 ORG     -0.689800
      8 N8          0.6750    0.2820    3.1520 n3        1 ORG     -0.590200
      9 C9         -3.6400    0.2410    0.7810 cg        1 ORG      0.382300
     10 C10         0.2700   -0.8520    3.9330 c3        1 ORG      0.203300
     11 C11         0.8780   -0.8430    5.3270 c3        1 ORG      0.152800
     12 N12         0.6710    0.3860    6.0020 n3        1 ORG     -0.820200
     13 C13         1.0760    1.5210    5.2240 c3        1 ORG      0.152800
     14 C14         0.4640    1.5130    3.8270 c3        1 ORG      0.203300
     15 N15        -4.7810    0.2100    0.7930 n1        1 ORG     -0.453800
     16 C16         0.0380   -0.0490   -2.7130 c3        1 ORG      0.218500
     17 C17         0.3360    0.9250   -3.9180 c3        1 ORG     -0.094400
     18 C18        -0.3390    0.4740   -5.2510 c3        1 ORG     -0.073400
     19 C19        -0.6770   -0.8120   -5.2170 c3        1 ORG     -0.081400
     20 C20         0.0720   -1.8110   -4.6520 c3        1 ORG     -0.073400
     21 C21         0.7320   -1.3480   -3.3460 c3        1 ORG     -0.094400
     22 HN7         1.5200    0.6270   -1.7010 hn        1 ORG      0.435800
     23 H10         0.5320   -1.6230    3.4980 h1        1 ORG      0.063950
     24 H10A       -0.7550   -0.8500    4.0170 h1        1 ORG      0.063950
     25 H11         1.8870   -1.0130    5.2510 h1        1 ORG      0.040700
     26 H11A        0.4560   -1.5920    5.8740 h1        1 ORG      0.040700
     27 HN12        1.1380    0.3790    6.7940 hn        1 ORG      0.369800
     28 H13         0.7950    2.3450    5.6920 h1        1 ORG      0.040700
     29 H13A        2.1020    1.5200    5.1390 h1        1 ORG      0.040700
     30 H14         0.8850    2.2870    3.2640 h1        1 ORG      0.063950
     31 H14A       -0.4890    1.6640    3.9050 h1        1 ORG      0.063950
     32 H16        -0.8870   -0.1730   -2.5840 h1        1 ORG      0.088700
     33 H17         0.0190    1.7890   -3.6930 hc        1 ORG      0.048950
     34 H17A        1.3420    0.9720   -4.0600 hc        1 ORG      0.048950
     35 H18         0.2930    0.6190   -5.9940 hc        1 ORG      0.042950
     36 H18A       -1.0970    0.9840   -5.3970 hc        1 ORG      0.042950
     37 H19        -1.4970   -0.8470   -4.8000 hc        1 ORG      0.045200
     38 H19A       -0.8290   -1.0870   -6.1820 hc        1 ORG      0.045200
     39 H20        -0.5180   -2.5980   -4.4620 hc        1 ORG      0.042950
     40 H20A        0.7950   -2.0880   -5.3020 hc        1 ORG      0.042950
     41 H21         1.6390   -1.1530   -3.5190 hc        1 ORG      0.048950
     42 H21A        0.6850   -2.0890   -2.6830 hc        1 ORG      0.048950
@<TRIPOS>BOND
     1    1    6 3   
     2    2    3 3   
     3    2    7 1   
     4    4    5 3   
     5    4    8 1   
     6    6    9 1   
     7    7   16 1   
     8    7   22 1   
     9    8   10 1   
    10    8   14 1   
    11    9   15 3   
    12   10   11 1   
    13   10   23 1   
    14   10   24 1   
    15   11   12 1   
    16   11   25 1   
    17   11   26 1   
    18   12   13 1   
    19   12   27 1   
    20   13   14 1   
    21   13   28 1   
    22   13   29 1   
    23   14   30 1   
    24   14   31 1   
    25   16   17 1   
    26   16   21 1   
    27   16   32 1   
    28   17   18 1   
    29   17   33 1   
    30   17   34 1   
    31   18   19 1   
    32   18   35 1   
    33   18   36 1   
    34   19   20 1   
    35   19   37 1   
    36   19   38 1   
    37   20   21 1   
    38   20   39 1   
    39   20   40 1   
    40   21   41 1   
    41   21   42 1   
@<TRIPOS>SUBSTRUCTURE
     1 ORG         1 TEMP              0 ****  ****    0 ROOT
