@<TRIPOS>MOLECULE
ORH
   49    51     1     0     0
SMALL
bcc


@<TRIPOS>ATOM
      1 C1          0.1190   -0.0180   -0.1410 c3        1 ORH      0.176800
      2 F1         -6.3610   -5.0040   -5.8830 f         1 ORH     -0.232633
      3 N1          1.5740   -0.0540   -0.0690 n3        1 ORH     -0.729600
      4 O1         -2.7360    2.8860   -2.4940 o         1 ORH     -0.553500
      5 C2         -0.4110    0.1960   -1.5590 c3        1 ORH     -0.103400
      6 F2         -4.9030   -5.1570   -4.2860 f         1 ORH     -0.232633
      7 N2         -2.5640    0.5990   -2.7730 n         1 ORH     -0.482400
      8 C3         -1.9240    0.3960   -1.4830 c3        1 ORH      0.087000
      9 F3         -4.5260   -6.1150   -6.1960 f         1 ORH     -0.232633
     10 N3         -3.3730   -0.3030   -4.8990 n         1 ORH     -0.131000
     11 C4         -2.7630   -0.5270   -3.6010 c         1 ORH      0.792500
     12 N4         -3.7250    0.8920   -5.3440 nc        1 ORH     -0.332300
     13 C5         -2.9180    1.8930   -3.2060 c         1 ORH      0.614200
     14 C6         -3.5340    1.9510   -4.5740 cd        1 ORH      0.298200
     15 C7         -4.1620   -2.6040   -5.2900 ca        1 ORH     -0.059000
     16 C8         -4.3340   -3.6860   -6.1530 ca        1 ORH     -0.160300
     17 C9         -3.5500   -1.4330   -5.7770 ca        1 ORH      0.050600
     18 C10        -3.9200   -3.6220   -7.4840 ca        1 ORH     -0.072000
     19 C11        -3.1280   -1.3630   -7.1190 ca        1 ORH     -0.084000
     20 C12        -3.3200   -2.4580   -7.9590 ca        1 ORH     -0.128000
     21 C14        -3.9190    3.2430   -5.0350 ch        1 ORH      0.219600
     22 C15         2.0460    0.1570    1.2940 c3        1 ORH      0.169800
     23 N15        -4.2260    4.3050   -5.3920 n1        1 ORH     -0.305800
     24 C17         3.5680    0.1190    1.4200 c3        1 ORH     -0.077400
     25 C18         2.1340   -1.2500   -0.6850 c3        1 ORH      0.169800
     26 C19         4.1340   -1.1520    0.8260 c3        1 ORH     -0.078400
     27 C20         3.6580   -1.3200   -0.6010 c3        1 ORH     -0.077400
     28 H1         -0.2350    0.8410    0.5000 h1        1 ORH      0.033200
     29 H1A        -0.3440   -0.9620    0.2750 h1        1 ORH      0.033200
     30 H2         -0.1820   -0.6960   -2.1990 hc        1 ORH      0.064200
     31 H2A         0.0790    1.0910   -2.0220 hc        1 ORH      0.064200
     32 H3         -2.3930   -0.5140   -1.0080 h1        1 ORH      0.080700
     33 H3A        -2.1550    1.3000   -0.8470 h1        1 ORH      0.080700
     34 H7         -4.4760   -2.6870   -4.2360 ha        1 ORH      0.175000
     35 H10        -4.0640   -4.4900   -8.1480 ha        1 ORH      0.159000
     36 H11        -2.6540   -0.4510   -7.5180 ha        1 ORH      0.158000
     37 H12        -2.9900   -2.4000   -9.0080 ha        1 ORH      0.152000
     38 H15         1.6110   -0.6090    2.0030 h1        1 ORH      0.030200
     39 H15A        1.6840    1.1720    1.6240 h1        1 ORH      0.030200
     40 H17         3.8330    0.1900    2.5060 hc        1 ORH      0.047450
     41 H17A        4.0110    1.0080    0.9000 hc        1 ORH      0.047450
     42 H18         1.7080   -2.1900   -0.2230 h1        1 ORH      0.030200
     43 H18A        1.8360   -1.2410   -1.7720 h1        1 ORH      0.030200
     44 H19         5.2530   -1.1190    0.8520 hc        1 ORH      0.040700
     45 H19A        3.8080   -2.0330    1.4390 hc        1 ORH      0.040700
     46 H20         3.9880   -2.3120   -1.0040 hc        1 ORH      0.047450
     47 H20A        4.1090   -0.5210   -1.2440 hc        1 ORH      0.047450
     48 O2         -2.4530   -1.6750   -3.2430 o         1 ORH     -0.586500
     49 C13        -5.0090   -4.9550   -5.6400 c3        1 ORH      0.689200
@<TRIPOS>BOND
     1    1    3 1   
     2    1    5 1   
     3    1   28 1   
     4    1   29 1   
     5    2   49 1   
     6    3   22 1   
     7    3   25 1   
     8    4   13 2   
     9    5    8 1   
    10    5   30 1   
    11    5   31 1   
    12    6   49 1   
    13    7    8 1   
    14    7   11 1   
    15    7   13 1   
    16    8   32 1   
    17    8   33 1   
    18    9   49 1   
    19   10   11 1   
    20   10   12 1   
    21   10   17 1   
    22   11   48 2   
    23   12   14 2   
    24   13   14 1   
    25   14   21 1   
    26   15   16 ar  
    27   15   17 ar  
    28   15   34 1   
    29   16   18 ar  
    30   16   49 1   
    31   17   19 ar  
    32   18   20 ar  
    33   18   35 1   
    34   19   20 ar  
    35   19   36 1   
    36   20   37 1   
    37   21   23 3   
    38   22   24 1   
    39   22   38 1   
    40   22   39 1   
    41   24   26 1   
    42   24   40 1   
    43   24   41 1   
    44   25   27 1   
    45   25   42 1   
    46   25   43 1   
    47   26   27 1   
    48   26   44 1   
    49   26   45 1   
    50   27   46 1   
    51   27   47 1   
@<TRIPOS>SUBSTRUCTURE
     1 ORH         1 TEMP              0 ****  ****    0 ROOT
