@<TRIPOS>MOLECULE
ORH
   49    51     1     0     0
SMALL
bcc


@<TRIPOS>ATOM
      1 C1         -4.0480   -0.4610   -0.9830 c3        1 ORH      0.176800
      2 F1          5.8310   -1.9500   -1.2140 f         1 ORH     -0.232633
      3 N1         -5.0720   -0.9250   -0.0560 n3        1 ORH     -0.729600
      4 O1         -1.6650    3.5910   -1.1030 o         1 ORH     -0.553500
      5 C2         -2.8640    0.2130   -0.2870 c3        1 ORH     -0.103400
      6 F2          3.8790   -2.8720   -1.4160 f         1 ORH     -0.232633
      7 N2         -0.7720    1.4770   -0.8320 n         1 ORH     -0.482400
      8 C3         -1.9520    0.8100   -1.3580 c3        1 ORH      0.087000
      9 F3          5.1790   -3.4310    0.2280 f         1 ORH     -0.232633
     10 N3          1.4550    1.3560    0.1750 n         1 ORH     -0.131000
     11 C4          0.2980    0.6760   -0.3790 c         1 ORH      0.792500
     12 N4          1.5420    2.6700    0.2920 nc        1 ORH     -0.332300
     13 C5         -0.7280    2.8830   -0.7220 c         1 ORH      0.614200
     14 C6          0.5390    3.4250   -0.1240 cd        1 ORH      0.298200
     15 C7          3.0790   -0.4730   -0.1180 ca        1 ORH     -0.059000
     16 C8          4.1380   -1.2330    0.3790 ca        1 ORH     -0.160300
     17 C9          2.5440    0.5560    0.6790 ca        1 ORH      0.050600
     18 C10         4.6750   -0.9840    1.6430 ca        1 ORH     -0.072000
     19 C11         3.0810    0.8120    1.9560 ca        1 ORH     -0.084000
     20 C12         4.1420    0.0400    2.4230 ca        1 ORH     -0.128000
     21 C14         0.6230    4.8430   -0.0150 ch        1 ORH      0.219600
     22 C15        -6.3370   -1.1710   -0.7390 c3        1 ORH      0.169800
     23 N15         0.6720    6.0010    0.0650 n1        1 ORH     -0.305800
     24 C17        -7.4400   -1.6670    0.1940 c3        1 ORH     -0.077400
     25 C18        -4.6290   -2.0590    0.7450 c3        1 ORH      0.169800
     26 C19        -6.9880   -2.8770    0.9800 c3        1 ORH     -0.078400
     27 C20        -5.6960   -2.5770    1.7070 c3        1 ORH     -0.077400
     28 H1         -3.6520   -1.3040   -1.6240 h1        1 ORH      0.033200
     29 H1A        -4.5240    0.2930   -1.6730 h1        1 ORH      0.033200
     30 H2         -3.2310    1.0140    0.4060 hc        1 ORH      0.064200
     31 H2A        -2.2900   -0.5360    0.3190 hc        1 ORH      0.064200
     32 H3         -1.6020   -0.0130   -2.0450 h1        1 ORH      0.080700
     33 H3A        -2.5270    1.5710   -1.9630 h1        1 ORH      0.080700
     34 H7          2.6560   -0.7050   -1.1110 ha        1 ORH      0.175000
     35 H10         5.5100   -1.5990    2.0170 ha        1 ORH      0.159000
     36 H11         2.6780    1.6180    2.5900 ha        1 ORH      0.158000
     37 H12         4.5610    0.2420    3.4210 ha        1 ORH      0.152000
     38 H15        -6.6670   -0.1970   -1.1990 h1        1 ORH      0.030200
     39 H15A       -6.2140   -1.9200   -1.5760 h1        1 ORH      0.030200
     40 H17        -7.7340   -0.8470    0.9000 hc        1 ORH      0.047450
     41 H17A       -8.3380   -1.9210   -0.4270 hc        1 ORH      0.047450
     42 H18        -4.2920   -2.9180    0.0900 h1        1 ORH      0.030200
     43 H18A       -3.7390   -1.7210    1.3460 h1        1 ORH      0.030200
     44 H19        -7.7800   -3.1710    1.7160 hc        1 ORH      0.040700
     45 H19A       -6.8370   -3.7440    0.2840 hc        1 ORH      0.040700
     46 H20        -5.3050   -3.5030    2.2010 hc        1 ORH      0.047450
     47 H20A       -5.8830   -1.8140    2.5080 hc        1 ORH      0.047450
     48 O2          0.2780   -0.5630   -0.4590 o         1 ORH     -0.586500
     49 C13         4.7350   -2.3420   -0.4820 c3        1 ORH      0.689200
@<TRIPOS>BOND
     1    1    3 1   
     2    1    5 1   
     3    1   28 1   
     4    1   29 1   
     5    2   49 1   
     6    3   22 1   
     7    3   25 1   
     8    4   13 2   
     9    5    8 1   
    10    5   30 1   
    11    5   31 1   
    12    6   49 1   
    13    7    8 1   
    14    7   11 1   
    15    7   13 1   
    16    8   32 1   
    17    8   33 1   
    18    9   49 1   
    19   10   11 1   
    20   10   12 1   
    21   10   17 1   
    22   11   48 2   
    23   12   14 2   
    24   13   14 1   
    25   14   21 1   
    26   15   16 ar  
    27   15   17 ar  
    28   15   34 1   
    29   16   18 ar  
    30   16   49 1   
    31   17   19 ar  
    32   18   20 ar  
    33   18   35 1   
    34   19   20 ar  
    35   19   36 1   
    36   20   37 1   
    37   21   23 3   
    38   22   24 1   
    39   22   38 1   
    40   22   39 1   
    41   24   26 1   
    42   24   40 1   
    43   24   41 1   
    44   25   27 1   
    45   25   42 1   
    46   25   43 1   
    47   26   27 1   
    48   26   44 1   
    49   26   45 1   
    50   27   46 1   
    51   27   47 1   
@<TRIPOS>SUBSTRUCTURE
     1 ORH         1 TEMP              0 ****  ****    0 ROOT
