@<TRIPOS>MOLECULE
ORH
   49    49     1     0     0
SMALL
bcc


@<TRIPOS>ATOM
      1 C1          1.8960   -0.9970    1.9180 c3        1 ORH     -0.061000
      2 F1         -7.6260   -1.3680   -3.1280 f         1 ORH     -0.161667
      3 N1          3.2400   -0.5870    2.2220 n3        1 ORH     -0.259000
      4 O1          0.4100    2.5120    0.3540 o         1 ORH     -0.280000
      5 C2          1.3230   -0.0970    0.7700 c3        1 ORH     -0.180000
      6 F2         -7.8650    0.7280   -3.6010 f         1 ORH     -0.161667
      7 N2         -0.7920    0.7270   -0.2530 n         1 ORH     -0.312000
      8 O2         -2.3340   -0.8530   -0.8170 o         1 ORH     -0.314000
      9 C3         -0.2650   -0.0680    0.8530 c3        1 ORH     -0.029000
     10 F3         -7.1670    0.1250   -1.6350 f         1 ORH     -0.161667
     11 N3         -2.3380    0.9720   -2.1850 n         1 ORH     -0.204000
     12 C4         -1.8210    0.1900   -1.0960 c2        1 ORH      0.386000
     13 N4         -1.8740    2.2820   -2.3920 n2        1 ORH      0.090000
     14 C5         -0.3800    2.0290   -0.4170 c2        1 ORH      0.340000
     15 C6         -0.8630    2.8080   -1.5640 c2        1 ORH     -0.089000
     16 C7         -4.7080    0.4850   -2.6460 c1        1 ORH     -0.067000
     17 C8         -5.6900   -0.1130   -3.4300 c1        1 ORH     -0.156000
     18 C9         -3.3660    0.4250   -3.0400 c2        1 ORH      0.058000
     19 C10        -5.3360   -0.7700   -4.6050 c1        1 ORH     -0.072000
     20 C11        -3.0140   -0.2320   -4.2150 c2        1 ORH     -0.076000
     21 C12        -3.9930   -0.8300   -4.9980 c1        1 ORH     -0.125000
     22 C13        -7.1350   -0.1620   -2.9330 c3        1 ORH      0.468000
     23 C14        -0.2790    4.1520   -1.8590 c1        1 ORH     -0.077000
     24 C15         3.3300   -0.1390    3.7390 c3        1 ORH     -0.067000
     25 N15         0.1610    5.1690   -2.0840 n1        1 ORH      0.021000
     26 C17         4.7480    0.1960    4.1780 c3        1 ORH     -0.174500
     27 C18         4.1740   -1.8870    2.3790 c3        1 ORH     -0.067000
     28 C19         5.6540   -0.3380    3.3590 c3        1 ORH     -0.156000
     29 C20         5.5730   -1.5630    2.8010 c3        1 ORH     -0.174500
     30 H1          1.9010   -1.9120    1.6330 h1        1 ORH      0.073000
     31 H1A         1.3300   -0.9040    2.7260 h1        1 ORH      0.073000
     32 H2          1.6590    0.7850    0.8620 hc        1 ORH      0.102000
     33 H2A         1.5970   -0.4590   -0.0960 hc        1 ORH      0.102000
     34 H3         -0.6100   -0.9750    0.7960 h1        1 ORH      0.120000
     35 H3A        -0.5390    0.3290    1.6940 h1        1 ORH      0.120000
     36 H7         -4.9690    0.9720   -1.7780 ha        1 ORH      0.169000
     37 H10        -5.9980   -1.1750   -5.1350 ha        1 ORH      0.159000
     38 H11        -2.0430   -0.2760   -4.4990 ha        1 ORH      0.164000
     39 H12        -3.7450   -1.2900   -5.8210 ha        1 ORH      0.153000
     40 H15         2.7380    0.6850    3.8740 h1        1 ORH      0.081250
     41 H15A        2.9840   -0.8800    4.3150 h1        1 ORH      0.081250
     42 H17         4.8590    1.1720    4.1880 hc        1 ORH      0.085500
     43 H17A        4.8890   -0.1440    5.0570 hc        1 ORH      0.085500
     44 H18         3.7660   -2.4930    3.0630 h1        1 ORH      0.081250
     45 H18A        4.2080   -2.3590    1.5150 h1        1 ORH      0.081250
     46 H19         5.7500    0.2780    2.6310 hc        1 ORH      0.079500
     47 H19A        6.5120   -0.3240    3.8610 hc        1 ORH      0.079500
     48 H20         5.8750   -2.2300    3.4490 hc        1 ORH      0.085500
     49 H20A        6.1720   -1.5950    1.9910 hc        1 ORH      0.085500
@<TRIPOS>BOND
     1    1    3 1   
     2    1    5 1   
     3    1   30 1   
     4    1   31 1   
     5    2   22 1   
     6    3   24 1   
     7    3   27 1   
     8    4   14 1   
     9    5    9 1   
    10    5   32 1   
    11    5   33 1   
    12    6   22 1   
    13    7    9 1   
    14    7   12 1   
    15    7   14 1   
    16    8   12 1   
    17    9   34 1   
    18    9   35 1   
    19   10   22 1   
    20   11   12 1   
    21   11   13 1   
    22   11   18 1   
    23   13   15 1   
    24   14   15 1   
    25   15   23 1   
    26   16   18 1   
    27   16   36 1   
    28   17   19 1   
    29   17   22 1   
    30   18   20 1   
    31   19   37 1   
    32   20   21 1   
    33   20   38 1   
    34   21   39 1   
    35   23   25 1   
    36   24   26 1   
    37   24   40 1   
    38   24   41 1   
    39   26   28 1   
    40   26   42 1   
    41   26   43 1   
    42   27   29 1   
    43   27   44 1   
    44   27   45 1   
    45   28   29 1   
    46   28   46 1   
    47   28   47 1   
    48   29   48 1   
    49   29   49 1   
@<TRIPOS>SUBSTRUCTURE
     1 ORH         1 TEMP              0 ****  ****    0 ROOT
