@<TRIPOS>MOLECULE
ORH
   49    51     1     0     0
SMALL
bcc


@<TRIPOS>ATOM
      1 C1          0.1280    0.0290   -0.1370 c3        1 ORH      0.176800
      2 F1         -6.3680   -4.9800   -5.8440 f         1 ORH     -0.232633
      3 N1          1.5830   -0.0060   -0.0710 n3        1 ORH     -0.729600
      4 O1         -2.7410    2.9230   -2.4850 o         1 ORH     -0.553500
      5 C2         -0.4080    0.2370   -1.5540 c3        1 ORH     -0.103400
      6 F2         -4.9050   -5.1270   -4.2510 f         1 ORH     -0.232633
      7 N2         -2.5670    0.6350   -2.7600 n         1 ORH     -0.482400
      8 C3         -1.9210    0.4360   -1.4720 c3        1 ORH      0.087000
      9 F3         -4.5320   -6.0890   -6.1600 f         1 ORH     -0.232633
     10 N3         -3.3820   -0.2730   -4.8810 n         1 ORH     -0.131000
     11 C4         -2.7670   -0.4930   -3.5850 c         1 ORH      0.792500
     12 N4         -3.7380    0.9200   -5.3270 nc        1 ORH     -0.332300
     13 C5         -2.9240    1.9280   -3.1950 c         1 ORH      0.614200
     14 C6         -3.5450    1.9810   -4.5600 cd        1 ORH      0.298200
     15 C7         -4.1700   -2.5760   -5.2640 ca        1 ORH     -0.059000
     16 C8         -4.3450   -3.6600   -6.1230 ca        1 ORH     -0.160300
     17 C9         -3.5620   -1.4050   -5.7560 ca        1 ORH      0.050600
     18 C10        -3.9360   -3.5980   -7.4570 ca        1 ORH     -0.072000
     19 C11        -3.1460   -1.3370   -7.1000 ca        1 ORH     -0.084000
     20 C12        -3.3390   -2.4340   -7.9370 ca        1 ORH     -0.128000
     21 C14        -3.9340    3.2720   -5.0220 ch        1 ORH      0.219600
     22 C15         2.0610    0.2120    1.2900 c3        1 ORH      0.169800
     23 N15        -4.2440    4.3330   -5.3810 n1        1 ORH     -0.305800
     24 C17         3.5830    0.1770    1.4090 c3        1 ORH     -0.077400
     25 C18         2.1420   -1.2050   -0.6840 c3        1 ORH      0.169800
     26 C19         4.1470   -1.0970    0.8180 c3        1 ORH     -0.078400
     27 C20         3.6650   -1.2730   -0.6050 c3        1 ORH     -0.077400
     28 H1         -0.3320   -0.9150    0.2840 h1        1 ORH      0.033200
     29 H1A        -0.2250    0.8890    0.5020 h1        1 ORH      0.033200
     30 H2         -0.1810   -0.6560   -2.1920 hc        1 ORH      0.064200
     31 H2A         0.0790    1.1320   -2.0220 hc        1 ORH      0.064200
     32 H3         -2.3870   -0.4740   -0.9930 h1        1 ORH      0.080700
     33 H3A        -2.1510    1.3400   -0.8380 h1        1 ORH      0.080700
     34 H7         -4.4790   -2.6570   -4.2080 ha        1 ORH      0.175000
     35 H10        -4.0810   -4.4680   -8.1180 ha        1 ORH      0.159000
     36 H11        -2.6750   -0.4260   -7.5030 ha        1 ORH      0.158000
     37 H12        -3.0140   -2.3780   -8.9870 ha        1 ORH      0.152000
     38 H15         1.6290   -0.5500    2.0040 h1        1 ORH      0.030200
     39 H15A        1.6990    1.2280    1.6160 h1        1 ORH      0.030200
     40 H17         3.8530    0.2530    2.4930 hc        1 ORH      0.047450
     41 H17A        4.0230    1.0630    0.8820 hc        1 ORH      0.047450
     42 H18         1.7180   -2.1420   -0.2140 h1        1 ORH      0.030200
     43 H18A        1.8390   -1.2010   -1.7690 h1        1 ORH      0.030200
     44 H19         5.2670   -1.0630    0.8400 hc        1 ORH      0.040700
     45 H19A        3.8250   -1.9750    1.4370 hc        1 ORH      0.040700
     46 H20         3.9950   -2.2660   -1.0050 hc        1 ORH      0.047450
     47 H20A        4.1130   -0.4760   -1.2550 hc        1 ORH      0.047450
     48 O2         -2.4540   -1.6400   -3.2260 o         1 ORH     -0.586500
     49 C13        -5.0150   -4.9290   -5.6050 c3        1 ORH      0.689200
@<TRIPOS>BOND
     1    1    3 1   
     2    1    5 1   
     3    1   28 1   
     4    1   29 1   
     5    2   49 1   
     6    3   22 1   
     7    3   25 1   
     8    4   13 2   
     9    5    8 1   
    10    5   30 1   
    11    5   31 1   
    12    6   49 1   
    13    7    8 1   
    14    7   11 1   
    15    7   13 1   
    16    8   32 1   
    17    8   33 1   
    18    9   49 1   
    19   10   11 1   
    20   10   12 1   
    21   10   17 1   
    22   11   48 2   
    23   12   14 2   
    24   13   14 1   
    25   14   21 1   
    26   15   16 ar  
    27   15   17 ar  
    28   15   34 1   
    29   16   18 ar  
    30   16   49 1   
    31   17   19 ar  
    32   18   20 ar  
    33   18   35 1   
    34   19   20 ar  
    35   19   36 1   
    36   20   37 1   
    37   21   23 3   
    38   22   24 1   
    39   22   38 1   
    40   22   39 1   
    41   24   26 1   
    42   24   40 1   
    43   24   41 1   
    44   25   27 1   
    45   25   42 1   
    46   25   43 1   
    47   26   27 1   
    48   26   44 1   
    49   26   45 1   
    50   27   46 1   
    51   27   47 1   
@<TRIPOS>SUBSTRUCTURE
     1 ORH         1 TEMP              0 ****  ****    0 ROOT
