@<TRIPOS>MOLECULE
ORH
   49    51     1     0     0
SMALL
bcc


@<TRIPOS>ATOM
      1 C1          0.1130   -0.0220   -0.1680 c3        1 ORH      0.176800
      2 F1         -6.3930   -4.9720   -5.9140 f         1 ORH     -0.232633
      3 N1          1.5680   -0.0650   -0.1010 n3        1 ORH     -0.729600
      4 O1         -2.7400    2.8970   -2.5030 o         1 ORH     -0.553500
      5 C2         -0.4190    0.1970   -1.5840 c3        1 ORH     -0.103400
      6 F2         -4.9320   -5.1340   -4.3210 f         1 ORH     -0.232633
      7 N2         -2.5750    0.6100   -2.7920 n         1 ORH     -0.482400
      8 C3         -1.9320    0.4010   -1.5040 c3        1 ORH      0.087000
      9 F3         -4.5610   -6.0850   -6.2340 f         1 ORH     -0.232633
     10 N3         -3.3910   -0.2810   -4.9190 n         1 ORH     -0.131000
     11 C4         -2.7780   -0.5120   -3.6230 c         1 ORH      0.792500
     12 N4         -3.7410    0.9160   -5.3580 nc        1 ORH     -0.332300
     13 C5         -2.9260    1.9070   -3.2190 c         1 ORH      0.614200
     14 C6         -3.5460    1.9710   -4.5850 cd        1 ORH      0.298200
     15 C7         -4.1860   -2.5790   -5.3170 ca        1 ORH     -0.059000
     16 C8         -4.3640   -3.6580   -6.1830 ca        1 ORH     -0.160300
     17 C9         -3.5740   -1.4070   -5.8010 ca        1 ORH      0.050600
     18 C10        -3.9530   -3.5890   -7.5150 ca        1 ORH     -0.072000
     19 C11        -3.1550   -1.3330   -7.1440 ca        1 ORH     -0.084000
     20 C12        -3.3510   -2.4250   -7.9870 ca        1 ORH     -0.128000
     21 C14        -3.9290    3.2670   -5.0400 ch        1 ORH      0.219600
     22 C15         2.0460    0.1460    1.2610 c3        1 ORH      0.169800
     23 N15        -4.2340    4.3300   -5.3920 n1        1 ORH     -0.305800
     24 C17         3.5680    0.1020    1.3810 c3        1 ORH     -0.077400
     25 C18         2.1220   -1.2630   -0.7170 c3        1 ORH      0.169800
     26 C19         4.1260   -1.1720    0.7870 c3        1 ORH     -0.078400
     27 C20         3.6450   -1.3390   -0.6380 c3        1 ORH     -0.077400
     28 H1         -0.2360    0.8370    0.4750 h1        1 ORH      0.033200
     29 H1A        -0.3520   -0.9650    0.2470 h1        1 ORH      0.033200
     30 H2         -0.1950   -0.6940   -2.2270 hc        1 ORH      0.064200
     31 H2A         0.0720    1.0920   -2.0470 hc        1 ORH      0.064200
     32 H3         -2.1590    1.3030   -0.8640 h1        1 ORH      0.080700
     33 H3A        -2.4020   -0.5090   -1.0300 h1        1 ORH      0.080700
     34 H7         -4.4980   -2.6650   -4.2610 ha        1 ORH      0.175000
     35 H10        -4.1010   -4.4550   -8.1810 ha        1 ORH      0.159000
     36 H11        -2.6800   -0.4210   -7.5400 ha        1 ORH      0.158000
     37 H12        -3.0250   -2.3640   -9.0370 ha        1 ORH      0.152000
     38 H15         1.6890    1.1630    1.5910 h1        1 ORH      0.030200
     39 H15A        1.6100   -0.6170    1.9720 h1        1 ORH      0.030200
     40 H17         4.0130    0.9890    0.8590 hc        1 ORH      0.047450
     41 H17A        3.8370    0.1730    2.4670 hc        1 ORH      0.047450
     42 H18         1.8200   -1.2540   -1.8030 h1        1 ORH      0.030200
     43 H18A        1.6930   -2.2010   -0.2520 h1        1 ORH      0.030200
     44 H19         3.7990   -2.0510    1.4020 hc        1 ORH      0.040700
     45 H19A        5.2470   -1.1430    0.8090 hc        1 ORH      0.040700
     46 H20         3.9700   -2.3330   -1.0410 hc        1 ORH      0.047450
     47 H20A        4.0970   -0.5420   -1.2840 hc        1 ORH      0.047450
     48 O2         -2.4710   -1.6620   -3.2710 o         1 ORH     -0.586500
     49 C13        -5.0400   -4.9270   -5.6730 c3        1 ORH      0.689200
@<TRIPOS>BOND
     1    1    3 1   
     2    1    5 1   
     3    1   28 1   
     4    1   29 1   
     5    2   49 1   
     6    3   22 1   
     7    3   25 1   
     8    4   13 2   
     9    5    8 1   
    10    5   30 1   
    11    5   31 1   
    12    6   49 1   
    13    7    8 1   
    14    7   11 1   
    15    7   13 1   
    16    8   32 1   
    17    8   33 1   
    18    9   49 1   
    19   10   11 1   
    20   10   12 1   
    21   10   17 1   
    22   11   48 2   
    23   12   14 2   
    24   13   14 1   
    25   14   21 1   
    26   15   16 ar  
    27   15   17 ar  
    28   15   34 1   
    29   16   18 ar  
    30   16   49 1   
    31   17   19 ar  
    32   18   20 ar  
    33   18   35 1   
    34   19   20 ar  
    35   19   36 1   
    36   20   37 1   
    37   21   23 3   
    38   22   24 1   
    39   22   38 1   
    40   22   39 1   
    41   24   26 1   
    42   24   40 1   
    43   24   41 1   
    44   25   27 1   
    45   25   42 1   
    46   25   43 1   
    47   26   27 1   
    48   26   44 1   
    49   26   45 1   
    50   27   46 1   
    51   27   47 1   
@<TRIPOS>SUBSTRUCTURE
     1 ORH         1 TEMP              0 ****  ****    0 ROOT
