@<TRIPOS>MOLECULE
ORI
   34    36     1     0     0
SMALL
bcc


@<TRIPOS>ATOM
      1 OB4         0.2040   -0.4810   -0.2920 o         1 ORI     -0.740533
      2 SB          1.5240   -0.1450    0.0810 s6        1 ORI      1.458100
      3 OB2         1.6660    0.2770    1.4210 o         1 ORI     -0.740533
      4 OB3         2.4890   -1.0910   -0.3240 o         1 ORI     -0.740533
      5 CB4         1.8970    1.3160   -0.8830 ca        1 ORI     -0.214500
      6 CB5         1.3180    1.5090   -2.1350 ca        1 ORI     -0.064000
      7 CB6         1.6140    2.6320   -2.9030 ca        1 ORI     -0.122500
      8 CB3         2.7790    2.2800   -0.3970 ca        1 ORI     -0.064000
      9 CB2         3.0970    3.4110   -1.1420 ca        1 ORI     -0.122500
     10 CB1         2.5160    3.6000   -2.4170 ca        1 ORI      0.074400
     11 N2          2.9200    4.7790   -3.1220 ne        1 ORI     -0.199400
     12 N1          2.3560    5.1070   -4.1660 nf        1 ORI     -0.228400
     13 C1          2.8130    6.2800   -4.8610 ca        1 ORI      0.100400
     14 C2          4.1380    6.6970   -4.8740 ca        1 ORI     -0.091000
     15 C3          4.5520    7.7980   -5.6480 ca        1 ORI     -0.223000
     16 C4          3.6280    8.4920   -6.4030 ca        1 ORI      0.130100
     17 OA1         3.9680    9.5780   -7.1810 oh        1 ORI     -0.503100
     18 C5          2.2500    8.1120   -6.4180 ca        1 ORI     -0.056000
     19 C10         1.8370    6.9970   -5.6440 ca        1 ORI      0.015000
     20 C6          1.2970    8.8310   -7.1890 ca        1 ORI     -0.104000
     21 C7         -0.0230    8.4560   -7.1920 ca        1 ORI     -0.141000
     22 C8         -0.4420    7.3460   -6.4250 ca        1 ORI     -0.131000
     23 C9          0.4610    6.6350   -5.6710 ca        1 ORI     -0.103000
     24 H1          0.6020    0.7570   -2.5110 ha        1 ORI      0.151500
     25 H2          1.1420    2.7510   -3.8890 ha        1 ORI      0.128000
     26 H3          3.2190    2.1400    0.6060 ha        1 ORI      0.151500
     27 H4          3.7970    4.1560   -0.7340 ha        1 ORI      0.128000
     28 H5          4.9010    6.1680   -4.2790 ha        1 ORI      0.152000
     29 H6          5.6100    8.0950   -5.6380 ha        1 ORI      0.130000
     30 H7          4.9180    9.7300   -7.0740 ho        1 ORI      0.416000
     31 H8          1.6490    9.6910   -7.7790 ha        1 ORI      0.142000
     32 H9         -0.7630    9.0100   -7.7870 ha        1 ORI      0.126000
     33 H10        -1.5040    7.0560   -6.4380 ha        1 ORI      0.130000
     34 H11         0.1160    5.7700   -5.0810 ha        1 ORI      0.159000
@<TRIPOS>BOND
     1    1    2 1   
     2    2    3 1   
     3    2    4 1   
     4    2    5 1   
     5    5    6 ar  
     6    5    8 ar  
     7    6    7 ar  
     8    6   24 1   
     9    7   10 ar  
    10    7   25 1   
    11    8    9 ar  
    12    8   26 1   
    13    9   10 ar  
    14    9   27 1   
    15   10   11 1   
    16   11   12 2   
    17   12   13 1   
    18   13   14 ar  
    19   13   19 ar  
    20   14   15 ar  
    21   14   28 1   
    22   15   16 ar  
    23   15   29 1   
    24   16   17 1   
    25   16   18 ar  
    26   17   30 1   
    27   18   19 ar  
    28   18   20 ar  
    29   19   23 ar  
    30   20   21 ar  
    31   20   31 1   
    32   21   22 ar  
    33   21   32 1   
    34   22   23 ar  
    35   22   33 1   
    36   23   34 1   
@<TRIPOS>SUBSTRUCTURE
     1 ORI         1 TEMP              0 ****  ****    0 ROOT
