@<TRIPOS>MOLECULE
ORI
   34    36     1     0     0
SMALL
bcc


@<TRIPOS>ATOM
      1 OB4         0.2090   -0.4790   -0.2860 o         1 ORI     -0.740533
      2 SB          1.5310   -0.1470    0.0800 s6        1 ORI      1.458100
      3 OB2         1.6830    0.2720    1.4200 o         1 ORI     -0.740533
      4 OB3         2.4920   -1.0950   -0.3320 o         1 ORI     -0.740533
      5 CB4         1.9030    1.3150   -0.8830 ca        1 ORI     -0.214500
      6 CB5         1.3170    1.5110   -2.1320 ca        1 ORI     -0.064000
      7 CB6         1.6120    2.6350   -2.9000 ca        1 ORI     -0.122500
      8 CB3         2.7890    2.2760   -0.4010 ca        1 ORI     -0.064000
      9 CB2         3.1060    3.4080   -1.1450 ca        1 ORI     -0.122500
     10 CB1         2.5190    3.6010   -2.4160 ca        1 ORI      0.074400
     11 N2          2.9210    4.7800   -3.1210 ne        1 ORI     -0.199400
     12 N1          2.3550    5.1090   -4.1650 nf        1 ORI     -0.228400
     13 C1          2.8110    6.2840   -4.8590 ca        1 ORI      0.100400
     14 C2          4.1340    6.7050   -4.8680 ca        1 ORI     -0.091000
     15 C3          4.5460    7.8070   -5.6410 ca        1 ORI     -0.223000
     16 C4          3.6220    8.4970   -6.3990 ca        1 ORI      0.130100
     17 OA1         3.9600    9.5850   -7.1760 oh        1 ORI     -0.503100
     18 C5          2.2450    8.1130   -6.4180 ca        1 ORI     -0.056000
     19 C10         1.8340    6.9960   -5.6450 ca        1 ORI      0.015000
     20 C6          1.2920    8.8280   -7.1920 ca        1 ORI     -0.104000
     21 C7         -0.0270    8.4480   -7.1980 ca        1 ORI     -0.142000
     22 C8         -0.4440    7.3370   -6.4310 ca        1 ORI     -0.131000
     23 C9          0.4590    6.6290   -5.6750 ca        1 ORI     -0.103000
     24 H1          0.5980    0.7620   -2.5060 ha        1 ORI      0.151500
     25 H2          1.1350    2.7570   -3.8830 ha        1 ORI      0.128000
     26 H3          3.2350    2.1330    0.5990 ha        1 ORI      0.151500
     27 H4          3.8100    4.1500   -0.7400 ha        1 ORI      0.128000
     28 H5          4.8980    6.1790   -4.2720 ha        1 ORI      0.152000
     29 H6          5.6040    8.1070   -5.6290 ha        1 ORI      0.130000
     30 H7          4.9090    9.7400   -7.0660 ho        1 ORI      0.416000
     31 H8          1.6420    9.6900   -7.7810 ha        1 ORI      0.142000
     32 H9         -0.7670    8.9990   -7.7950 ha        1 ORI      0.126000
     33 H10        -1.5040    7.0430   -6.4470 ha        1 ORI      0.130000
     34 H11         0.1160    5.7640   -5.0860 ha        1 ORI      0.159000
@<TRIPOS>BOND
     1    1    2 1   
     2    2    3 1   
     3    2    4 1   
     4    2    5 1   
     5    5    6 ar  
     6    5    8 ar  
     7    6    7 ar  
     8    6   24 1   
     9    7   10 ar  
    10    7   25 1   
    11    8    9 ar  
    12    8   26 1   
    13    9   10 ar  
    14    9   27 1   
    15   10   11 1   
    16   11   12 2   
    17   12   13 1   
    18   13   14 ar  
    19   13   19 ar  
    20   14   15 ar  
    21   14   28 1   
    22   15   16 ar  
    23   15   29 1   
    24   16   17 1   
    25   16   18 ar  
    26   17   30 1   
    27   18   19 ar  
    28   18   20 ar  
    29   19   23 ar  
    30   20   21 ar  
    31   20   31 1   
    32   21   22 ar  
    33   21   32 1   
    34   22   23 ar  
    35   22   33 1   
    36   23   34 1   
@<TRIPOS>SUBSTRUCTURE
     1 ORI         1 TEMP              0 ****  ****    0 ROOT
