@<TRIPOS>MOLECULE
ORI
   34    36     1     0     0
SMALL
bcc


@<TRIPOS>ATOM
      1 OB4         0.2200   -0.5010   -0.3140 o         1 ORI     -0.740533
      2 SB          1.5290   -0.1470    0.0790 s6        1 ORI      1.458100
      3 OB2         1.6440    0.2790    1.4210 o         1 ORI     -0.740533
      4 OB3         2.5130   -1.0810   -0.3080 o         1 ORI     -0.740533
      5 CB4         1.8980    1.3170   -0.8810 ca        1 ORI     -0.214500
      6 CB5         1.3360    1.5010   -2.1430 ca        1 ORI     -0.064000
      7 CB6         1.6300    2.6260   -2.9080 ca        1 ORI     -0.122500
      8 CB3         2.7610    2.2920   -0.3840 ca        1 ORI     -0.064000
      9 CB2         3.0760    3.4260   -1.1260 ca        1 ORI     -0.122500
     10 CB1         2.5120    3.6070   -2.4090 ca        1 ORI      0.074400
     11 N2          2.9120    4.7890   -3.1100 ne        1 ORI     -0.199400
     12 N1          2.3590    5.1090   -4.1630 nf        1 ORI     -0.228400
     13 C1          2.8120    6.2870   -4.8540 ca        1 ORI      0.100400
     14 C2          4.1320    6.7190   -4.8490 ca        1 ORI     -0.091000
     15 C3          4.5440    7.8230   -5.6190 ca        1 ORI     -0.223000
     16 C4          3.6230    8.5050   -6.3870 ca        1 ORI      0.130100
     17 OA1         3.9610    9.5950   -7.1620 oh        1 ORI     -0.503100
     18 C5          2.2490    8.1110   -6.4200 ca        1 ORI     -0.056000
     19 C10         1.8390    6.9920   -5.6510 ca        1 ORI      0.015000
     20 C6          1.2990    8.8180   -7.2050 ca        1 ORI     -0.104000
     21 C7         -0.0170    8.4280   -7.2250 ca        1 ORI     -0.141000
     22 C8         -0.4340    7.3140   -6.4620 ca        1 ORI     -0.131000
     23 C9          0.4670    6.6140   -5.6950 ca        1 ORI     -0.103000
     24 H1          0.6350    0.7400   -2.5280 ha        1 ORI      0.151500
     25 H2          1.1710    2.7380   -3.9010 ha        1 ORI      0.128000
     26 H3          3.1880    2.1590    0.6250 ha        1 ORI      0.151500
     27 H4          3.7610    4.1800   -0.7090 ha        1 ORI      0.128000
     28 H5          4.8930    6.1990   -4.2440 ha        1 ORI      0.152000
     29 H6          5.5990    8.1320   -5.5950 ha        1 ORI      0.130000
     30 H7          4.9080    9.7570   -7.0420 ho        1 ORI      0.416000
     31 H8          1.6490    9.6810   -7.7910 ha        1 ORI      0.142000
     32 H9         -0.7550    8.9730   -7.8310 ha        1 ORI      0.126000
     33 H10        -1.4920    7.0120   -6.4890 ha        1 ORI      0.130000
     34 H11         0.1240    5.7460   -5.1090 ha        1 ORI      0.159000
@<TRIPOS>BOND
     1    1    2 1   
     2    2    3 1   
     3    2    4 1   
     4    2    5 1   
     5    5    6 ar  
     6    5    8 ar  
     7    6    7 ar  
     8    6   24 1   
     9    7   10 ar  
    10    7   25 1   
    11    8    9 ar  
    12    8   26 1   
    13    9   10 ar  
    14    9   27 1   
    15   10   11 1   
    16   11   12 2   
    17   12   13 1   
    18   13   14 ar  
    19   13   19 ar  
    20   14   15 ar  
    21   14   28 1   
    22   15   16 ar  
    23   15   29 1   
    24   16   17 1   
    25   16   18 ar  
    26   17   30 1   
    27   18   19 ar  
    28   18   20 ar  
    29   19   23 ar  
    30   20   21 ar  
    31   20   31 1   
    32   21   22 ar  
    33   21   32 1   
    34   22   23 ar  
    35   22   33 1   
    36   23   34 1   
@<TRIPOS>SUBSTRUCTURE
     1 ORI         1 TEMP              0 ****  ****    0 ROOT
