@<TRIPOS>MOLECULE
ORN
   20    19     1     0     0
SMALL
bcc


@<TRIPOS>ATOM
      1 N           0.6760    1.9270    0.0680 n3        1 ORN     -0.892800
      2 CA          0.6800    0.5000    0.3640 c3        1 ORN      0.017500
      3 CB         -0.4630   -0.2620   -0.3080 c3        1 ORN     -0.060400
      4 CG         -1.8190    0.1530    0.2190 c3        1 ORN     -0.112400
      5 CD         -2.9280   -0.6830   -0.4190 c3        1 ORN      0.136800
      6 NE         -4.2770   -0.3840    0.0040 n3        1 ORN     -0.906800
      7 C           2.0220   -0.2280    0.0150 c         1 ORN      0.887600
      8 O           2.9670    0.4640   -0.4620 o         1 ORN     -0.844300
      9 OXT         2.0920   -1.4660    0.2510 o         1 ORN     -0.844300
     10 H           1.5740    2.2900    0.3460 hn        1 ORN      0.329800
     11 H2          0.6250    2.0450   -0.9290 hn        1 ORN      0.329800
     12 HA          0.5540    0.4070    1.4820 h1        1 ORN      0.039700
     13 HB2        -0.4270   -0.1110   -1.4180 hc        1 ORN      0.047200
     14 HB3        -0.2910   -1.3550   -0.1110 hc        1 ORN      0.047200
     15 HG2        -1.8400    0.0250    1.3330 hc        1 ORN      0.034700
     16 HG3        -1.9930    1.2400    0.0060 hc        1 ORN      0.034700
     17 HD2        -2.8830   -0.5520   -1.5370 h1        1 ORN      0.047200
     18 HD3        -2.7330   -1.7720   -0.2010 h1        1 ORN      0.047200
     19 HE1        -4.3680   -0.5280    0.9920 hn        1 ORN      0.330800
     20 HE2        -4.4910    0.5780   -0.1850 hn        1 ORN      0.330800
@<TRIPOS>BOND
     1    1    2 1   
     2    1   10 1   
     3    1   11 1   
     4    2    3 1   
     5    2    7 1   
     6    2   12 1   
     7    3    4 1   
     8    3   13 1   
     9    3   14 1   
    10    4    5 1   
    11    4   15 1   
    12    4   16 1   
    13    5    6 1   
    14    5   17 1   
    15    5   18 1   
    16    6   19 1   
    17    6   20 1   
    18    7    8 1   
    19    7    9 1   
@<TRIPOS>SUBSTRUCTURE
     1 ORN         1 TEMP              0 ****  ****    0 ROOT
