@<TRIPOS>MOLECULE
ORO
   14    14     1     0     0
SMALL
bcc


@<TRIPOS>ATOM
      1 N1          1.1390    0.0010    0.0740 n         1 ORO     -0.438100
      2 C2          1.2530    0.0010   -1.3210 c         1 ORO      0.791500
      3 O2          2.3760    0.0010   -1.8870 o         1 ORO     -0.702500
      4 N3          0.0740    0.0000   -2.0830 n         1 ORO     -0.595500
      5 C4         -1.2090   -0.0000   -1.4900 c         1 ORO      0.714700
      6 O4         -2.1950   -0.0010   -2.2560 o         1 ORO     -0.675500
      7 C5         -1.2480    0.0000   -0.0340 cc        1 ORO     -0.347200
      8 C6         -0.0960    0.0010    0.7030 cd        1 ORO      0.033400
      9 C7         -0.1100    0.0010    2.2600 c         1 ORO      0.919800
     10 O71        -1.2370    0.0010    2.8060 o         1 ORO     -0.792800
     11 O72         1.0100    0.0010    2.8360 o         1 ORO     -0.792800
     12 HN1         1.9660    0.0010    0.6350 hn        1 ORO      0.369500
     13 HN3         0.1680    0.0000   -3.0720 hn        1 ORO      0.328500
     14 H5         -2.2280   -0.0000    0.4590 ha        1 ORO      0.188000
@<TRIPOS>BOND
     1    1    2 1   
     2    1    8 1   
     3    1   12 1   
     4    2    3 2   
     5    2    4 1   
     6    4    5 1   
     7    4   13 1   
     8    5    6 2   
     9    5    7 1   
    10    7    8 2   
    11    7   14 1   
    12    8    9 1   
    13    9   10 1   
    14    9   11 1   
@<TRIPOS>SUBSTRUCTURE
     1 ORO         1 TEMP              0 ****  ****    0 ROOT
