@<TRIPOS>MOLECULE
ORO
   14    14     1     0     0
SMALL
bcc


@<TRIPOS>ATOM
      1 N1         -0.0300   -0.0020   -0.0180 n         1 ORO     -0.438100
      2 C2          1.3690   -0.0140   -0.0630 c         1 ORO      0.791500
      3 O2          1.9890   -0.0450   -1.1560 o         1 ORO     -0.702500
      4 N3          2.0710    0.0090    1.1530 n         1 ORO     -0.595500
      5 C4          1.4160    0.0440    2.4040 c         1 ORO      0.714700
      6 O4          2.1320    0.0630    3.4270 o         1 ORO     -0.675500
      7 C5         -0.0400    0.0550    2.3700 cc        1 ORO     -0.347200
      8 C6         -0.7190    0.0320    1.1840 cd        1 ORO      0.033400
      9 C7         -2.2750    0.0430    1.1200 c         1 ORO      0.919800
     10 O71        -2.8760    0.0740    2.2200 o         1 ORO     -0.792800
     11 O72        -2.7950    0.0200   -0.0260 o         1 ORO     -0.792800
     12 HN1        -0.5490   -0.0180   -0.8710 hn        1 ORO      0.369500
     13 HN3         3.0640   -0.0000    1.1080 hn        1 ORO      0.328500
     14 H5         -0.5810    0.0820    3.3250 ha        1 ORO      0.188000
@<TRIPOS>BOND
     1    1    2 1   
     2    1    8 1   
     3    1   12 1   
     4    2    3 2   
     5    2    4 1   
     6    4    5 1   
     7    4   13 1   
     8    5    6 2   
     9    5    7 1   
    10    7    8 2   
    11    7   14 1   
    12    8    9 1   
    13    9   10 1   
    14    9   11 1   
@<TRIPOS>SUBSTRUCTURE
     1 ORO         1 TEMP              0 ****  ****    0 ROOT
