@<TRIPOS>MOLECULE
ORP
   22    22     1     0     0
SMALL
bcc


@<TRIPOS>ATOM
      1 C1         -0.8570   -1.1610   -1.7410 c3        1 ORP      0.330900
      2 O1         -1.2030   -2.4990   -1.8970 oh        1 ORP     -0.660800
      3 C2          0.4540   -1.0220   -1.7270 c3        1 ORP     -0.147400
      4 C3          0.8960   -1.1040   -0.1870 c3        1 ORP      0.154100
      5 O3          1.0060   -2.4830    0.2280 oh        1 ORP     -0.679800
      6 C4         -0.0830   -0.4740    0.5240 c3        1 ORP      0.062100
      7 O4         -1.3490   -0.6230   -0.3160 os        1 ORP     -0.464600
      8 C5          0.2540    0.9840    0.7070 c3        1 ORP      0.235400
      9 O5         -0.7810    1.6210    1.4610 os        1 ORP     -0.563200
     10 P          -0.4650    3.0500    2.1500 p5        1 ORP      1.331900
     11 O1P        -1.7310    3.6040    2.7630 o         1 ORP     -0.933500
     12 O2P         0.0580    4.0200    1.0950 o         1 ORP     -0.933500
     13 O3P         0.5820    2.8700    3.2320 o         1 ORP     -0.933500
     14 H1         -1.2420   -0.6330   -2.4500 h2        1 ORP      0.053700
     15 HO1        -1.9170   -2.5580   -2.4230 ho        1 ORP      0.411000
     16 H21         0.7040   -0.1580   -2.0990 hc        1 ORP      0.042200
     17 H22         0.8750   -1.7460   -2.2380 hc        1 ORP      0.042200
     18 H3          1.7490   -0.6480   -0.0590 h1        1 ORP      0.094700
     19 HO3         1.8120   -2.6230    0.5810 ho        1 ORP      0.500000
     20 H4         -0.2030   -0.9120    1.4080 h1        1 ORP      0.056700
     21 H51         0.3360    1.4320   -0.2010 h1        1 ORP     -0.000300
     22 H52         1.1040    1.0630    1.1880 h1        1 ORP     -0.000300
@<TRIPOS>BOND
     1    1    2 1   
     2    1    3 1   
     3    1    7 1   
     4    1   14 1   
     5    2   15 1   
     6    3    4 1   
     7    3   16 1   
     8    3   17 1   
     9    4    5 1   
    10    4    6 1   
    11    4   18 1   
    12    5   19 1   
    13    6    7 1   
    14    6    8 1   
    15    6   20 1   
    16    8    9 1   
    17    8   21 1   
    18    8   22 1   
    19    9   10 1   
    20   10   11 1   
    21   10   12 1   
    22   10   13 1   
@<TRIPOS>SUBSTRUCTURE
     1 ORP         1 TEMP              0 ****  ****    0 ROOT
