@<TRIPOS>MOLECULE
ORP
   22    22     1     0     0
SMALL
bcc


@<TRIPOS>ATOM
      1 C1          0.7420   -0.6000   -3.3210 c3        1 ORP      0.330900
      2 O1          1.1160    0.4160   -4.2330 oh        1 ORP     -0.660800
      3 C2         -0.7680   -0.6500   -3.0780 c3        1 ORP     -0.147400
      4 C3         -0.9590   -0.2100   -1.6170 c3        1 ORP      0.154100
      5 O3         -1.8280    0.9010   -1.5930 oh        1 ORP     -0.679800
      6 C4          0.4510    0.1720   -1.1160 c3        1 ORP      0.062100
      7 O4          1.4030   -0.2740   -2.1170 os        1 ORP     -0.464600
      8 C5          0.8240   -0.4610    0.2450 c3        1 ORP      0.235400
      9 O5          0.5570    0.4050    1.2710 os        1 ORP     -0.563200
     10 P          -0.8730    0.0090    2.1810 p5        1 ORP      1.331900
     11 O1P        -0.6090   -1.4170    2.5760 o         1 ORP     -0.933500
     12 O2P        -0.8900    1.0430    3.2660 o         1 ORP     -0.933500
     13 O3P        -1.8950    0.1690    1.0730 o         1 ORP     -0.933500
     14 H1          1.1800   -1.5480   -3.7310 h2        1 ORP      0.053700
     15 HO1         1.0040    1.2590   -3.7760 ho        1 ORP      0.411000
     16 H21        -1.3040    0.0390   -3.7740 hc        1 ORP      0.042200
     17 H22        -1.1530   -1.6850   -3.2320 hc        1 ORP      0.042200
     18 H3         -1.3910   -1.0380   -0.9900 h1        1 ORP      0.094700
     19 HO3        -2.0830    1.0070   -0.6460 ho        1 ORP      0.500000
     20 H4          0.5470    1.2880   -1.0520 h1        1 ORP      0.056700
     21 H51         0.2690   -1.4330    0.3770 h1        1 ORP     -0.000300
     22 H52         1.9330   -0.6790    0.2100 h1        1 ORP     -0.000300
@<TRIPOS>BOND
     1    1    2 1   
     2    1    3 1   
     3    1    7 1   
     4    1   14 1   
     5    2   15 1   
     6    3    4 1   
     7    3   16 1   
     8    3   17 1   
     9    4    5 1   
    10    4    6 1   
    11    4   18 1   
    12    5   19 1   
    13    6    7 1   
    14    6    8 1   
    15    6   20 1   
    16    8    9 1   
    17    8   21 1   
    18    8   22 1   
    19    9   10 1   
    20   10   11 1   
    21   10   12 1   
    22   10   13 1   
@<TRIPOS>SUBSTRUCTURE
     1 ORP         1 TEMP              0 ****  ****    0 ROOT
