@<TRIPOS>MOLECULE
ORQ
   25    24     1     0     0
SMALL
bcc


@<TRIPOS>ATOM
      1 N          -2.1950   -1.8940   -0.4660 n3        1 ORQ     -0.893800
      2 CA         -2.1460   -0.6150    0.2320 c3        1 ORQ      0.017500
      3 CB         -0.9330    0.2360   -0.1460 c3        1 ORQ     -0.063400
      4 CG          0.3650   -0.3930    0.3100 c3        1 ORQ     -0.094400
      5 CD          1.5390    0.5400    0.0140 c3        1 ORQ      0.077000
      6 NE          2.7940    0.0810    0.5560 n         1 ORQ     -0.559900
      7 O1          4.0560    0.5440   -1.3110 o         1 ORQ     -0.624100
      8 C          -3.4320    0.2630    0.0680 c         1 ORQ      0.888600
      9 O          -4.3940   -0.2120   -0.6010 o         1 ORQ     -0.842300
     10 C1          3.9590    0.0350   -0.1740 c         1 ORQ      0.648100
     11 C2          5.1560   -0.6210    0.4800 c3        1 ORQ     -0.177100
     12 OXT        -3.4430    1.3900    0.6370 o         1 ORQ     -0.842300
     13 H          -3.1240   -2.2630   -0.3430 hn        1 ORQ      0.331800
     14 H2         -2.0910   -1.7230   -1.4510 hn        1 ORQ      0.331800
     15 HA         -2.0740   -0.8590    1.3330 h1        1 ORQ      0.038700
     16 HB2        -1.0710    1.2390    0.3410 hc        1 ORQ      0.051200
     17 HB3        -0.9050    0.4010   -1.2540 hc        1 ORQ      0.051200
     18 HG2         0.5160   -1.3750   -0.2080 hc        1 ORQ      0.039700
     19 HG3         0.3050   -0.6020    1.4110 hc        1 ORQ      0.039700
     20 HD2         1.3210    1.5550    0.4580 h1        1 ORQ      0.057200
     21 HD3         1.6450    0.6710   -1.1010 h1        1 ORQ      0.057200
     22 HE          2.7470   -0.4400    1.3990 hn        1 ORQ      0.299500
     23 H21         5.4090   -0.1100    1.4390 hc        1 ORQ      0.056700
     24 H22         4.9460   -1.6980    0.6840 hc        1 ORQ      0.056700
     25 H23         6.0290   -0.5460   -0.2120 hc        1 ORQ      0.056700
@<TRIPOS>BOND
     1    1    2 1   
     2    1   13 1   
     3    1   14 1   
     4    2    3 1   
     5    2    8 1   
     6    2   15 1   
     7    3    4 1   
     8    3   16 1   
     9    3   17 1   
    10    4    5 1   
    11    4   18 1   
    12    4   19 1   
    13    5    6 1   
    14    5   20 1   
    15    5   21 1   
    16    6   10 1   
    17    6   22 1   
    18    7   10 2   
    19    8    9 1   
    20    8   12 1   
    21   10   11 1   
    22   11   23 1   
    23   11   24 1   
    24   11   25 1   
@<TRIPOS>SUBSTRUCTURE
     1 ORQ         1 TEMP              0 ****  ****    0 ROOT
