@<TRIPOS>MOLECULE
ORX
   45    45     1     0     0
SMALL
bcc


@<TRIPOS>ATOM
      1 OXT         0.0000    0.0000    0.0000 o         1 ORX     -0.783300
      2 CA          1.3420    0.0000    0.0000 c         1 ORX      0.930600
      3 OA          1.9460   -0.0000   -1.0460 o         1 ORX     -0.783300
      4 CAA         2.0950    0.0000    1.3050 c3        1 ORX     -0.187500
      5 NA          1.3010   -0.6930    2.3290 ny        1 ORX      0.009000
      6 C4A         1.6810   -2.1090    2.2710 c3        1 ORX      0.053100
      7 C4          0.8990   -2.8820    3.3020 ca        1 ORX     -0.208300
      8 C5         -0.3270   -3.4430    2.9880 ca        1 ORX     -0.120600
      9 C6         -1.0160   -4.1450    3.9580 ca        1 ORX      0.421200
     10 N1         -0.5220   -4.2850    5.1720 nb        1 ORX     -0.555000
     11 C2          0.6410   -3.7670    5.5120 ca        1 ORX      0.302600
     12 C3          1.3880   -3.0440    4.5940 ca        1 ORX     -0.004200
     13 O3          2.5870   -2.5100    4.9490 oh        1 ORX     -0.522100
     14 C2A         1.1600   -3.9560    6.9140 c3        1 ORX     -0.026400
     15 C5A        -0.9030   -3.2910    1.6030 c3        1 ORX      0.259700
     16 OP4        -2.1650   -3.9560    1.5360 os        1 ORX     -0.456200
     17 P          -2.7200   -3.7530    0.0390 p5        1 ORX      0.743900
     18 OP1        -4.1480   -4.4820   -0.1070 o         1 ORX     -0.580167
     19 OP2        -2.8850   -2.1820   -0.2640 o         1 ORX     -0.580167
     20 OP3        -1.7650   -4.3440   -0.9240 o         1 ORX     -0.580167
     21 CBA         2.3500    1.4420    1.7470 c3        1 ORX     -0.019400
     22 CGA         3.1160    1.4420    3.0730 c3        1 ORX     -0.056400
     23 CDA         3.3700    2.8840    3.5140 c3        1 ORX      0.005800
     24 NE          4.1050    2.8840    4.7860 nz        1 ORX     -0.295600
     25 HAA         3.0410   -0.5110    1.1760 hx        1 ORX      0.070700
     26 HNA         1.5080   -0.3200    3.2340 hn        1 ORX      0.251800
     27 H4A1        1.4640   -2.5020    1.2840 hx        1 ORX      0.082700
     28 H4A2        2.7410   -2.2080    2.4730 hx        1 ORX      0.082700
     29 H6         -1.9760   -4.5870    3.7180 h4        1 ORX      0.039100
     30 HO3         3.2430   -3.1870    4.9510 ho        1 ORX      0.406000
     31 H2A1        0.4040   -4.4440    7.5160 hc        1 ORX      0.005700
     32 H2A2        1.3970   -2.9900    7.3450 hc        1 ORX      0.005700
     33 H2A3        2.0530   -4.5690    6.8890 hc        1 ORX      0.005700
     34 H5A1       -1.0360   -2.2390    1.3810 h1        1 ORX      0.039700
     35 H5A2       -0.2260   -3.7300    0.8800 h1        1 ORX      0.039700
     36 HBA1        1.4040    1.9530    1.8760 hc        1 ORX      0.050200
     37 HBA2        2.9360    1.9530    0.9920 hc        1 ORX      0.050200
     38 HGA1        4.0630    0.9310    2.9430 hc        1 ORX      0.016700
     39 HGA2        2.5300    0.9310    3.8280 hc        1 ORX      0.016700
     40 HDA1        3.9550    3.3950    2.7590 hx        1 ORX      0.042700
     41 HDA2        2.4230    3.3940    3.6440 hx        1 ORX      0.042700
     42 HNE1        4.9480    2.3540    4.6850 hn        1 ORX      0.177800
     43 HNE2        4.3310    3.8250    5.0400 hn        1 ORX      0.177800
     44 HA2         0.3250   -0.5920    2.1320 hn        1 ORX      0.251800
     45 HE3         3.5360    2.4720    5.5000 hn        1 ORX      0.177800
@<TRIPOS>BOND
     1    1    2 1   
     2    2    3 1   
     3    2    4 1   
     4    4    5 1   
     5    4   21 1   
     6    4   25 1   
     7    5    6 1   
     8    5   26 1   
     9    5   44 1   
    10    6    7 1   
    11    6   27 1   
    12    6   28 1   
    13    7    8 ar  
    14    7   12 ar  
    15    8    9 ar  
    16    8   15 1   
    17    9   10 ar  
    18    9   29 1   
    19   10   11 ar  
    20   11   12 ar  
    21   11   14 1   
    22   12   13 1   
    23   13   30 1   
    24   14   31 1   
    25   14   32 1   
    26   14   33 1   
    27   15   16 1   
    28   15   34 1   
    29   15   35 1   
    30   16   17 1   
    31   17   18 1   
    32   17   19 1   
    33   17   20 1   
    34   21   22 1   
    35   21   36 1   
    36   21   37 1   
    37   22   23 1   
    38   22   38 1   
    39   22   39 1   
    40   23   24 1   
    41   23   40 1   
    42   23   41 1   
    43   24   42 1   
    44   24   43 1   
    45   24   45 1   
@<TRIPOS>SUBSTRUCTURE
     1 ORX         1 TEMP              0 ****  ****    0 ROOT
