@<TRIPOS>MOLECULE
ORX
   43    43     1     0     0
SMALL
bcc


@<TRIPOS>ATOM
      1 OXT        -4.1980   -0.7380   -1.8700 o         1 ORX     -0.852800
      2 CA         -3.3460   -1.3520   -2.5710 c         1 ORX      0.891600
      3 OA         -3.6170   -2.3600   -3.2890 o         1 ORX     -0.852800
      4 CAA        -1.8720   -0.8310   -2.6160 c3        1 ORX      0.054500
      5 NA         -1.3930   -0.1590   -1.4160 n3        1 ORX     -0.839200
      6 C4A        -0.6900   -0.9880   -0.4480 c3        1 ORX      0.215100
      7 C4          0.6700   -0.4590   -0.0610 ca        1 ORX     -0.137300
      8 C5          0.9600    0.0230    1.2180 ca        1 ORX     -0.142600
      9 C6          2.3060    0.4040    1.5110 ca        1 ORX      0.370200
     10 N1          3.3060    0.3690    0.6320 nb        1 ORX     -0.685000
     11 C2          3.0330   -0.0790   -0.6260 ca        1 ORX      0.298600
     12 C3          1.7390   -0.5090   -0.9900 ca        1 ORX     -0.009200
     13 O3          1.6170   -1.0030   -2.2770 oh        1 ORX     -0.551100
     14 C2A         4.1210   -0.1450   -1.6440 c3        1 ORX     -0.102400
     15 C5A        -0.0380    0.1360    2.3500 c3        1 ORX      0.241700
     16 OP4         0.2660    1.1390    3.2350 os        1 ORX     -0.566200
     17 P           0.8690    0.6660    4.7930 p5        1 ORX      1.316900
     18 OP1         0.2530   -0.6940    4.9900 o         1 ORX     -0.925833
     19 OP2         2.3530    0.6640    4.5080 o         1 ORX     -0.925833
     20 OP3         0.3720    1.7590    5.6960 o         1 ORX     -0.925833
     21 CBA        -1.8120    0.1030   -3.8400 c3        1 ORX     -0.057400
     22 CGA        -0.4010    0.4710   -4.2310 c3        1 ORX     -0.122400
     23 CDA        -0.3930    1.4010   -5.4440 c3        1 ORX      0.141800
     24 NE          0.9060    1.8700   -5.8780 n3        1 ORX     -0.914800
     25 HAA        -1.2220   -1.7270   -2.8390 h1        1 ORX      0.029700
     26 HNA        -2.1660    0.3050   -0.9730 hn        1 ORX      0.385800
     27 H4A1       -0.5340   -2.0330   -0.8510 h1        1 ORX      0.038200
     28 H4A2       -1.3020   -1.1020    0.4940 h1        1 ORX      0.038200
     29 H6          2.5220    0.7260    2.5850 h4        1 ORX      0.149100
     30 HO3         0.6750   -1.0900   -2.4750 ho        1 ORX      0.427000
     31 H2A1        4.3910   -1.2140   -1.8330 hc        1 ORX      0.016033
     32 H2A2        3.7580    0.2930   -2.6070 hc        1 ORX      0.016033
     33 H2A3        5.0380    0.4030   -1.3210 hc        1 ORX      0.016033
     34 H5A1       -1.0520    0.3520    1.8950 h1        1 ORX      0.024700
     35 H5A2       -0.0760   -0.8650    2.8800 h1        1 ORX      0.024700
     36 HBA1       -2.4020    1.0320   -3.6260 hc        1 ORX      0.036700
     37 HBA2       -2.3140   -0.4310   -4.6890 hc        1 ORX      0.036700
     38 HGA1        0.1790   -0.4600   -4.4730 hc        1 ORX      0.051200
     39 HGA2        0.1150    0.9660   -3.3650 hc        1 ORX      0.051200
     40 HDA1       -1.0260    2.3040   -5.2130 h1        1 ORX      0.035700
     41 HDA2       -0.8700    0.8680   -6.3150 h1        1 ORX      0.035700
     42 HNE1        1.3210    2.4290   -5.1550 hn        1 ORX      0.334300
     43 HNE2        1.5130    1.0850   -6.0310 hn        1 ORX      0.334300
@<TRIPOS>BOND
     1    1    2 1   
     2    2    3 1   
     3    2    4 1   
     4    4    5 1   
     5    4   21 1   
     6    4   25 1   
     7    5    6 1   
     8    5   26 1   
     9    6    7 1   
    10    6   27 1   
    11    6   28 1   
    12    7    8 ar  
    13    7   12 ar  
    14    8    9 ar  
    15    8   15 1   
    16    9   10 ar  
    17    9   29 1   
    18   10   11 ar  
    19   11   12 ar  
    20   11   14 1   
    21   12   13 1   
    22   13   30 1   
    23   14   31 1   
    24   14   32 1   
    25   14   33 1   
    26   15   16 1   
    27   15   34 1   
    28   15   35 1   
    29   16   17 1   
    30   17   18 1   
    31   17   19 1   
    32   17   20 1   
    33   21   22 1   
    34   21   36 1   
    35   21   37 1   
    36   22   23 1   
    37   22   38 1   
    38   22   39 1   
    39   23   24 1   
    40   23   40 1   
    41   23   41 1   
    42   24   42 1   
    43   24   43 1   
@<TRIPOS>SUBSTRUCTURE
     1 ORX         1 TEMP              0 ****  ****    0 ROOT
