@<TRIPOS>MOLECULE
ORX
   43    41     1     0     0
SMALL
bcc


@<TRIPOS>ATOM
      1 OXT        -1.5950   -3.3350   -0.7810 o         1 ORX     -0.595500
      2 CA         -0.9870   -2.2920   -1.4030 c2        1 ORX      0.306000
      3 OA         -1.3980   -1.9040   -2.4480 o         1 ORX     -0.595500
      4 CAA         0.2530   -1.6680   -0.8000 c3        1 ORX     -0.093000
      5 NA          0.1460   -0.3010   -0.8650 n3        1 ORX     -0.281000
      6 C4A         0.0260    0.2520    0.5090 c3        1 ORX     -0.049000
      7 C4         -0.6950    1.6830    0.4480 c2        1 ORX     -0.134000
      8 C5         -1.5640    2.0550    1.4360 c1        1 ORX     -0.070000
      9 C6         -2.2810    3.2540    1.3200 c1        1 ORX     -0.100000
     10 N1         -2.1080    4.0550    0.2100 n1        1 ORX     -0.163000
     11 C2         -1.2500    3.6850   -0.7620 c1        1 ORX     -0.123000
     12 C3         -0.5280    2.4760   -0.6430 c2        1 ORX      0.012000
     13 O3          0.3790    2.1400   -1.5800 oh        1 ORX     -0.308000
     14 C2A        -1.0760    4.5330   -1.9730 c3        1 ORX     -0.129000
     15 C5A        -1.6410    1.2330    2.7390 c3        1 ORX      0.091000
     16 OP4        -0.6400    1.7170    3.6750 os        1 ORX     -0.730000
     17 P          -1.0980    2.0830    5.1880 p5        1 ORX      1.550500
     18 OP1        -1.8710    3.2930    5.1720 o         1 ORX     -0.927833
     19 OP2        -1.9780    0.8980    5.7810 o         1 ORX     -0.927833
     20 OP3         0.1870    2.2920    6.0950 o         1 ORX     -0.927833
     21 CBA         1.4440   -2.1010   -1.5610 c3        1 ORX     -0.134000
     22 CGA         1.6140   -3.6970   -1.4260 c3        1 ORX     -0.208000
     23 CDA         2.9600   -4.1110   -1.9810 c3        1 ORX     -0.101000
     24 NE          2.9930   -5.4940   -2.1230 n3        1 ORX     -0.341000
     25 HAA         0.3370   -1.9350    0.0910 h1        1 ORX      0.074000
     26 HNA         0.9940    0.0930   -1.3300 hn        1 ORX      0.152000
     27 H4A1        0.9510    0.3570    0.9100 h1        1 ORX      0.084000
     28 H4A2       -0.5630   -0.4290    1.1240 h1        1 ORX      0.084000
     29 H6         -2.9870    3.4560    1.9600 ha        1 ORX      0.281000
     30 HO3         1.0870    2.6930   -1.5220 ho        1 ORX      0.260000
     31 H2A1       -1.2940    4.0080   -2.7710 hc        1 ORX      0.057333
     32 H2A2       -1.6650    5.2950   -1.9200 hc        1 ORX      0.057333
     33 H2A3       -0.2060    4.8210   -2.0220 hc        1 ORX      0.057333
     34 H5A1       -1.4710    0.2690    2.5370 h1        1 ORX      0.057000
     35 H5A2       -2.5070    1.3280    3.1220 h1        1 ORX      0.057000
     36 HBA1        1.3190   -1.8460   -2.5750 hc        1 ORX      0.079500
     37 HBA2        2.2480   -1.6470   -1.2020 hc        1 ORX      0.079500
     38 HGA1        1.5580   -3.9500   -0.5090 hc        1 ORX      0.095000
     39 HGA2        0.9750   -4.0970   -1.8780 hc        1 ORX      0.095000
     40 HDA1        3.0990   -3.6710   -2.8900 h1        1 ORX      0.084500
     41 HDA2        3.7170   -3.8090   -1.3250 h1        1 ORX      0.084500
     42 HNE1        2.4270   -5.7430   -2.7970 hn        1 ORX      0.120500
     43 HNE2        2.6900   -5.9410   -1.2320 hn        1 ORX      0.120500
@<TRIPOS>BOND
     1    1    2 1   
     2    2    3 1   
     3    2    4 1   
     4    4    5 1   
     5    4   21 1   
     6    4   25 1   
     7    5    6 1   
     8    5   26 1   
     9    6    7 1   
    10    6   27 1   
    11    6   28 1   
    12    7    8 1   
    13    7   12 1   
    14    8   15 1   
    15    9   10 1   
    16    9   29 1   
    17   11   12 1   
    18   11   14 1   
    19   12   13 1   
    20   13   30 1   
    21   14   31 1   
    22   14   32 1   
    23   14   33 1   
    24   15   16 1   
    25   15   34 1   
    26   15   35 1   
    27   16   17 1   
    28   17   18 1   
    29   17   19 1   
    30   17   20 1   
    31   21   22 1   
    32   21   36 1   
    33   21   37 1   
    34   22   23 1   
    35   22   38 1   
    36   22   39 1   
    37   23   24 1   
    38   23   40 1   
    39   23   41 1   
    40   24   42 1   
    41   24   43 1   
@<TRIPOS>SUBSTRUCTURE
     1 ORX         1 TEMP              0 ****  ****    0 ROOT
