@<TRIPOS>MOLECULE
OSA
   47    50     1     0     0
SMALL
bcc


@<TRIPOS>ATOM
      1 CAA        -0.1620   -0.0940   -0.0640 ca        1 OSA     -0.199000
      2 CAB         1.2090   -0.0770   -0.0570 ca        1 OSA     -0.024000
      3 CAC         1.9420   -0.0510    1.1610 ca        1 OSA     -0.053000
      4 CAD         1.2380   -0.0430    2.4000 ca        1 OSA     -0.034000
      5 CAE        -0.1780   -0.0610    2.3910 ca        1 OSA     -0.054000
      6 CAF        -0.8540   -0.0860    1.1850 ca        1 OSA     -0.114400
      7 NAG        -2.3160   -0.1050    1.1610 n4        1 OSA     -0.690000
      8 CAH         1.9630   -0.0170    3.6090 ca        1 OSA     -0.102000
      9 CAI         3.3380    0.0000    3.6210 ca        1 OSA     -0.094500
     10 CAJ         4.0720   -0.0070    2.4050 ca        1 OSA      0.139400
     11 CAK         3.3680   -0.0330    1.1820 ca        1 OSA      0.133100
     12 OAL         3.9200   -0.0430   -0.0740 oh        1 OSA     -0.524100
     13 NAM         5.4990    0.0150    2.5780 ne        1 OSA     -0.155400
     14 NAN         6.2180    0.0090    1.5770 nf        1 OSA     -0.258400
     15 CAO         7.6410    0.0290    1.6620 ca        1 OSA      0.081400
     16 CAP         8.3810    0.0640    2.8860 ca        1 OSA     -0.116000
     17 CAQ         9.7510    0.0810    2.8590 ca        1 OSA     -0.112000
     18 CAR        10.4630    0.0660    1.6300 ca        1 OSA     -0.012000
     19 CAS         9.7400    0.0340    0.4090 ca        1 OSA     -0.057000
     20 CAT         8.3240    0.0150    0.4470 ca        1 OSA     -0.057000
     21 CAU        10.4430    0.0210   -0.8280 ca        1 OSA     -0.055000
     22 CAV        11.8150    0.0430   -0.8680 ca        1 OSA     -0.216500
     23 CAW        12.5440    0.0660    0.3390 ca        1 OSA     -0.112000
     24 CAX        11.8880    0.0780    1.5560 ca        1 OSA      0.077100
     25 OAY        12.5600    0.1000    2.7650 oh        1 OSA     -0.516100
     26 SAZ        12.6980    0.0480   -2.4220 s6        1 OSA      1.459100
     27 OBA        12.7460    1.4050   -2.8040 o         1 OSA     -0.742200
     28 OBB        13.9630   -0.4980   -2.1050 o         1 OSA     -0.742200
     29 OBC        11.9100   -0.7530   -3.2770 o         1 OSA     -0.742200
     30 SBD         4.1490    0.0330    5.3090 s6        1 OSA      1.462100
     31 OBE         3.0070    0.0300    6.1390 o         1 OSA     -0.723867
     32 OBF         4.8550    1.2360    5.3240 o         1 OSA     -0.723867
     33 OBG         4.8840   -1.1520    5.3560 o         1 OSA     -0.723867
     34 HAA        -0.7170   -0.1140   -1.0110 ha        1 OSA      0.129000
     35 HAB         1.7750   -0.0830   -1.0060 ha        1 OSA      0.172000
     36 HAE        -0.6990   -0.0540    3.3640 ha        1 OSA      0.145000
     37 HNAG       -2.6560    0.7190    0.6560 hn        1 OSA      0.446133
     38 HNAA       -2.6830   -0.0960    2.1160 hn        1 OSA      0.446133
     39 HAH         1.4200   -0.0110    4.5740 ha        1 OSA      0.180000
     40 HOAL        4.8910   -0.0320   -0.0210 ho        1 OSA      0.471000
     41 HAP         7.8430    0.0760    3.8490 ha        1 OSA      0.169000
     42 HAQ        10.3320    0.1070    3.7940 ha        1 OSA      0.147000
     43 HAT         7.7830   -0.0120   -0.5130 ha        1 OSA      0.134000
     44 HAU         9.8690   -0.0200   -1.7680 ha        1 OSA      0.146000
     45 HAW        13.6460    0.0580    0.2850 ha        1 OSA      0.156000
     46 HOAY       13.5070    0.0900    2.5650 ho        1 OSA      0.413000
     47 HAG3       -2.6350   -0.9500    0.6790 hn        1 OSA      0.446133
@<TRIPOS>BOND
     1    1    2 ar  
     2    1    6 ar  
     3    1   34 1   
     4    2    3 ar  
     5    2   35 1   
     6    3    4 ar  
     7    3   11 ar  
     8    4    5 ar  
     9    4    8 ar  
    10    5    6 ar  
    11    5   36 1   
    12    6    7 1   
    13    7   37 1   
    14    7   38 1   
    15    7   47 1   
    16    8    9 ar  
    17    8   39 1   
    18    9   10 ar  
    19    9   30 1   
    20   10   11 ar  
    21   10   13 1   
    22   11   12 1   
    23   12   40 1   
    24   13   14 2   
    25   14   15 1   
    26   15   16 ar  
    27   15   20 ar  
    28   16   17 ar  
    29   16   41 1   
    30   17   18 ar  
    31   17   42 1   
    32   18   19 ar  
    33   18   24 ar  
    34   19   20 ar  
    35   19   21 ar  
    36   20   43 1   
    37   21   22 ar  
    38   21   44 1   
    39   22   23 ar  
    40   22   26 1   
    41   23   24 ar  
    42   23   45 1   
    43   24   25 1   
    44   25   46 1   
    45   26   27 1   
    46   26   28 1   
    47   26   29 1   
    48   30   31 1   
    49   30   32 1   
    50   30   33 1   
@<TRIPOS>SUBSTRUCTURE
     1 OSA         1 TEMP              0 ****  ****    0 ROOT
