@<TRIPOS>MOLECULE
OSA
   46    49     1     0     0
SMALL
bcc


@<TRIPOS>ATOM
      1 CAA         6.0950   -3.6200    0.1800 ca        1 OSA     -0.198000
      2 CAB         4.7800   -3.2350    0.1800 ca        1 OSA     -0.061000
      3 CAC         4.4160   -1.8660    0.0880 ca        1 OSA     -0.086000
      4 CAD         5.4350   -0.8890    0.0050 ca        1 OSA      0.017000
      5 CAE         6.7930   -1.2980    0.0090 ca        1 OSA     -0.185000
      6 CAF         7.1380   -2.6410    0.0960 ca        1 OSA      0.099600
      7 NAG         8.4860   -3.0530    0.1710 nh        1 OSA     -0.803200
      8 CAH         5.0710    0.4790   -0.0960 ca        1 OSA     -0.115000
      9 CAI         3.7630    0.8840   -0.1230 ca        1 OSA     -0.136500
     10 CAJ         2.7120   -0.0850   -0.0360 ca        1 OSA      0.073400
     11 CAK         3.0460   -1.4420    0.0730 ca        1 OSA      0.152100
     12 OAL         2.1580   -2.4860    0.1620 oh        1 OSA     -0.526100
     13 NAM         1.4010    0.4840   -0.0800 ne        1 OSA     -0.146400
     14 NAN         0.4030   -0.2160    0.0950 nf        1 OSA     -0.279400
     15 CAO        -0.9020    0.3800    0.0820 ca        1 OSA      0.099400
     16 CAP        -1.1330    1.7870    0.2050 ca        1 OSA     -0.098000
     17 CAQ        -2.4130    2.2770    0.2200 ca        1 OSA     -0.151000
     18 CAR        -3.5380    1.4150    0.1100 ca        1 OSA     -0.050000
     19 CAS        -3.3190    0.0180    0.0050 ca        1 OSA     -0.053000
     20 CAT        -1.9900   -0.4800   -0.0110 ca        1 OSA     -0.075000
     21 CAU        -4.4340   -0.8620   -0.0780 ca        1 OSA     -0.049000
     22 CAV        -5.7240   -0.3920   -0.0620 ca        1 OSA     -0.243500
     23 CAW        -5.9520    0.9990    0.0120 ca        1 OSA     -0.056000
     24 CAX        -4.8880    1.8790    0.0950 ca        1 OSA      0.059100
     25 OAY        -5.1950    3.2270    0.2030 oh        1 OSA     -0.522100
     26 SAZ        -7.1120   -1.4980   -0.1410 s6        1 OSA      1.458100
     27 OBA        -7.4980   -1.7120    1.2030 o         1 OSA     -0.746867
     28 OBB        -8.0900   -0.8100   -0.8970 o         1 OSA     -0.746867
     29 OBC        -6.6130   -2.6640   -0.7710 o         1 OSA     -0.746867
     30 SBD         3.4380    2.6690   -0.2960 s6        1 OSA      1.458100
     31 OBE         2.6320    3.0330    0.7980 o         1 OSA     -0.737867
     32 OBF         4.7390    3.2300   -0.2300 o         1 OSA     -0.737867
     33 OBG         2.8450    2.8140   -1.5630 o         1 OSA     -0.737867
     34 HAA         6.3590   -4.6850    0.2550 ha        1 OSA      0.116000
     35 HAB         3.9760   -3.9850    0.2480 ha        1 OSA      0.142000
     36 HAE         7.5640   -0.5140   -0.0560 ha        1 OSA      0.130000
     37 HNAG        8.6300   -3.9500   -0.2420 hn        1 OSA      0.363300
     38 HNAA        9.1110   -2.3750   -0.2120 hn        1 OSA      0.363300
     39 HAH         5.8720    1.2390   -0.1530 ha        1 OSA      0.165000
     40 HOAL        1.2480   -2.1550    0.1810 ho        1 OSA      0.453000
     41 HAP        -0.2720    2.4740    0.2950 ha        1 OSA      0.181000
     42 HAQ        -2.5740    3.3590    0.3340 ha        1 OSA      0.118000
     43 HAT        -1.8490   -1.5690   -0.1020 ha        1 OSA      0.135000
     44 HAU        -4.2500   -1.9470   -0.1680 ha        1 OSA      0.148000
     45 HAW        -6.9880    1.3760   -0.0070 ha        1 OSA      0.156000
     46 HOAY       -4.4720    3.7180   -0.2100 ho        1 OSA      0.404000
@<TRIPOS>BOND
     1    1    2 ar  
     2    1    6 ar  
     3    1   34 1   
     4    2    3 ar  
     5    2   35 1   
     6    3    4 ar  
     7    3   11 ar  
     8    4    5 ar  
     9    4    8 ar  
    10    5    6 ar  
    11    5   36 1   
    12    6    7 1   
    13    7   37 1   
    14    7   38 1   
    15    8    9 ar  
    16    8   39 1   
    17    9   10 ar  
    18    9   30 1   
    19   10   11 ar  
    20   10   13 1   
    21   11   12 1   
    22   12   40 1   
    23   13   14 2   
    24   14   15 1   
    25   15   16 ar  
    26   15   20 ar  
    27   16   17 ar  
    28   16   41 1   
    29   17   18 ar  
    30   17   42 1   
    31   18   19 ar  
    32   18   24 ar  
    33   19   20 ar  
    34   19   21 ar  
    35   20   43 1   
    36   21   22 ar  
    37   21   44 1   
    38   22   23 ar  
    39   22   26 1   
    40   23   24 ar  
    41   23   45 1   
    42   24   25 1   
    43   25   46 1   
    44   26   27 1   
    45   26   28 1   
    46   26   29 1   
    47   30   31 1   
    48   30   32 1   
    49   30   33 1   
@<TRIPOS>SUBSTRUCTURE
     1 OSA         1 TEMP              0 ****  ****    0 ROOT
