@<TRIPOS>MOLECULE
OSA
   46    49     1     0     0
SMALL
bcc


@<TRIPOS>ATOM
      1 CAA        -0.2760   -0.1190   -0.0050 ca        1 OSA     -0.198000
      2 CAB         1.0940   -0.1170   -0.0470 ca        1 OSA     -0.061000
      3 CAC         1.8660   -0.0880    1.1430 ca        1 OSA     -0.086000
      4 CAD         1.2010   -0.0710    2.3910 ca        1 OSA      0.016000
      5 CAE        -0.2160   -0.0750    2.4250 ca        1 OSA     -0.185000
      6 CAF        -0.9620   -0.1000    1.2530 ca        1 OSA      0.098600
      7 NAG        -2.3720   -0.1750    1.2770 nv        1 OSA     -0.802200
      8 CAH         1.9740   -0.0350    3.5820 ca        1 OSA     -0.117000
      9 CAI         3.3420   -0.0100    3.5620 ca        1 OSA     -0.136500
     10 CAJ         4.0400   -0.0280    2.3120 ca        1 OSA      0.073400
     11 CAK         3.3000   -0.0700    1.1220 ca        1 OSA      0.152100
     12 OAL         3.8160   -0.0910   -0.1510 oh        1 OSA     -0.527100
     13 NAM         5.4660    0.0030    2.4430 ne        1 OSA     -0.142400
     14 NAN         6.1830   -0.0320    1.4420 nf        1 OSA     -0.286400
     15 CAO         7.6120   -0.0090    1.5620 ca        1 OSA      0.108400
     16 CAP         8.3160   -0.0390    2.8070 ca        1 OSA     -0.113000
     17 CAQ         9.6870   -0.0280    2.8250 ca        1 OSA     -0.122000
     18 CAR        10.4360    0.0140    1.6200 ca        1 OSA     -0.020000
     19 CAS         9.7520    0.0460    0.3780 ca        1 OSA     -0.051000
     20 CAT         8.3330    0.0330    0.3730 ca        1 OSA     -0.085000
     21 CAU        10.4980    0.0890   -0.8340 ca        1 OSA     -0.051000
     22 CAV        11.8700    0.1040   -0.8330 ca        1 OSA     -0.234500
     23 CAW        12.5590    0.0640    0.3990 ca        1 OSA     -0.128000
     24 CAX        11.8640    0.0210    1.5910 ca        1 OSA      0.078100
     25 OAY        12.5000   -0.0210    2.8210 oh        1 OSA     -0.518100
     26 SAZ        12.8150    0.1770   -2.3330 s6        1 OSA      1.457100
     27 OBA        12.9160    1.5530   -2.6480 o         1 OSA     -0.747200
     28 OBB        14.0640   -0.4070   -2.0030 o         1 OSA     -0.747200
     29 OBC        12.0680   -0.5610   -3.2800 o         1 OSA     -0.747200
     30 SBD         4.2030    0.0570    5.1660 s6        1 OSA      1.457100
     31 OBE         4.8940    1.2820    5.1710 o         1 OSA     -0.738200
     32 OBF         3.1320    0.0290    6.0960 o         1 OSA     -0.738200
     33 OBG         5.0030   -1.0970    5.2240 o         1 OSA     -0.738200
     34 HAA        -0.8570   -0.1440   -0.9370 ha        1 OSA      0.115000
     35 HAB         1.6250   -0.1350   -1.0130 ha        1 OSA      0.142000
     36 HAE        -0.7050   -0.0620    3.4110 ha        1 OSA      0.130000
     37 HNAG       -2.7550    0.1650    2.1350 hn        1 OSA      0.362800
     38 HNAA       -2.7860    0.2830    0.4920 hn        1 OSA      0.362800
     39 HAH         1.4480   -0.0260    4.5550 ha        1 OSA      0.166000
     40 HOAL        4.7850   -0.0960   -0.1220 ho        1 OSA      0.454000
     41 HAP         7.7470   -0.0720    3.7540 ha        1 OSA      0.177000
     42 HAQ        10.2370   -0.0510    3.7780 ha        1 OSA      0.140000
     43 HAT         7.8220    0.0580   -0.6030 ha        1 OSA      0.134000
     44 HAU         9.9510    0.0990   -1.7920 ha        1 OSA      0.143000
     45 HAW        13.6620    0.0510    0.3810 ha        1 OSA      0.148000
     46 HOAY       13.4510   -0.0260    2.6460 ho        1 OSA      0.406000
@<TRIPOS>BOND
     1    1    2 ar  
     2    1    6 ar  
     3    1   34 1   
     4    2    3 ar  
     5    2   35 1   
     6    3    4 ar  
     7    3   11 ar  
     8    4    5 ar  
     9    4    8 ar  
    10    5    6 ar  
    11    5   36 1   
    12    6    7 1   
    13    7   37 1   
    14    7   38 1   
    15    8    9 ar  
    16    8   39 1   
    17    9   10 ar  
    18    9   30 1   
    19   10   11 ar  
    20   10   13 1   
    21   11   12 1   
    22   12   40 1   
    23   13   14 2   
    24   14   15 1   
    25   15   16 ar  
    26   15   20 ar  
    27   16   17 ar  
    28   16   41 1   
    29   17   18 ar  
    30   17   42 1   
    31   18   19 ar  
    32   18   24 ar  
    33   19   20 ar  
    34   19   21 ar  
    35   20   43 1   
    36   21   22 ar  
    37   21   44 1   
    38   22   23 ar  
    39   22   26 1   
    40   23   24 ar  
    41   23   45 1   
    42   24   25 1   
    43   25   46 1   
    44   26   27 1   
    45   26   28 1   
    46   26   29 1   
    47   30   31 1   
    48   30   32 1   
    49   30   33 1   
@<TRIPOS>SUBSTRUCTURE
     1 OSA         1 TEMP              0 ****  ****    0 ROOT
