@<TRIPOS>MOLECULE
OSA
   46    49     1     0     0
SMALL
bcc


@<TRIPOS>ATOM
      1 CAA        -0.2730   -0.1470   -0.0020 ca        1 OSA     -0.198000
      2 CAB         1.0970   -0.1430   -0.0460 ca        1 OSA     -0.061000
      3 CAC         1.8700   -0.1000    1.1440 ca        1 OSA     -0.086000
      4 CAD         1.2060   -0.0720    2.3920 ca        1 OSA      0.016000
      5 CAE        -0.2120   -0.0780    2.4270 ca        1 OSA     -0.185000
      6 CAF        -0.9590   -0.1170    1.2550 ca        1 OSA      0.098600
      7 NAG        -2.3680   -0.1940    1.2800 nh        1 OSA     -0.802200
      8 CAH         1.9780   -0.0220    3.5820 ca        1 OSA     -0.117000
      9 CAI         3.3470    0.0060    3.5610 ca        1 OSA     -0.136500
     10 CAJ         4.0450   -0.0240    2.3110 ca        1 OSA      0.073400
     11 CAK         3.3040   -0.0800    1.1220 ca        1 OSA      0.152100
     12 OAL         3.8200   -0.1130   -0.1510 oh        1 OSA     -0.527100
     13 NAM         5.4700    0.0130    2.4410 ne        1 OSA     -0.142400
     14 NAN         6.1870   -0.0420    1.4410 nf        1 OSA     -0.285400
     15 CAO         7.6160   -0.0180    1.5620 ca        1 OSA      0.108400
     16 CAP         8.3190   -0.0700    2.8060 ca        1 OSA     -0.113000
     17 CAQ         9.6900   -0.0630    2.8250 ca        1 OSA     -0.122000
     18 CAR        10.4400   -0.0050    1.6210 ca        1 OSA     -0.021000
     19 CAS         9.7570    0.0500    0.3800 ca        1 OSA     -0.051000
     20 CAT         8.3380    0.0410    0.3740 ca        1 OSA     -0.085000
     21 CAU        10.5030    0.1090   -0.8320 ca        1 OSA     -0.051000
     22 CAV        11.8760    0.1190   -0.8290 ca        1 OSA     -0.234500
     23 CAW        12.5640    0.0570    0.4020 ca        1 OSA     -0.128000
     24 CAX        11.8680   -0.0030    1.5930 ca        1 OSA      0.078100
     25 OAY        12.5040   -0.0660    2.8220 oh        1 OSA     -0.518100
     26 SAZ        12.8210    0.2120   -2.3280 s6        1 OSA      1.457100
     27 OBA        12.9300    1.5910   -2.6210 o         1 OSA     -0.747200
     28 OBB        14.0670   -0.3850   -2.0070 o         1 OSA     -0.747200
     29 OBC        12.0700   -0.5070   -3.2870 o         1 OSA     -0.747200
     30 SBD         4.2080    0.0930    5.1640 s6        1 OSA      1.457100
     31 OBE         4.8830    1.3270    5.1600 o         1 OSA     -0.738200
     32 OBF         3.1380    0.0580    6.0950 o         1 OSA     -0.738200
     33 OBG         5.0230   -1.0500    5.2290 o         1 OSA     -0.738200
     34 HAA        -0.8540   -0.1830   -0.9340 ha        1 OSA      0.115000
     35 HAB         1.6280   -0.1700   -1.0110 ha        1 OSA      0.142000
     36 HAE        -0.7010   -0.0560    3.4130 ha        1 OSA      0.130000
     37 HNAG       -2.7840    0.2550    0.4910 hn        1 OSA      0.362800
     38 HNAA       -2.7510    0.1540    2.1350 hn        1 OSA      0.362800
     39 HAH         1.4530   -0.0050    4.5550 ha        1 OSA      0.166000
     40 HOAL        4.7880   -0.1180   -0.1220 ho        1 OSA      0.454000
     41 HAP         7.7500   -0.1170    3.7520 ha        1 OSA      0.177000
     42 HAQ        10.2400   -0.1030    3.7780 ha        1 OSA      0.140000
     43 HAT         7.8280    0.0830   -0.6020 ha        1 OSA      0.134000
     44 HAU         9.9570    0.1370   -1.7900 ha        1 OSA      0.143000
     45 HAW        13.6670    0.0400    0.3840 ha        1 OSA      0.148000
     46 HOAY       13.4550   -0.0710    2.6470 ho        1 OSA      0.406000
@<TRIPOS>BOND
     1    1    2 ar  
     2    1    6 ar  
     3    1   34 1   
     4    2    3 ar  
     5    2   35 1   
     6    3    4 ar  
     7    3   11 ar  
     8    4    5 ar  
     9    4    8 ar  
    10    5    6 ar  
    11    5   36 1   
    12    6    7 1   
    13    7   37 1   
    14    7   38 1   
    15    8    9 ar  
    16    8   39 1   
    17    9   10 ar  
    18    9   30 1   
    19   10   11 ar  
    20   10   13 1   
    21   11   12 1   
    22   12   40 1   
    23   13   14 2   
    24   14   15 1   
    25   15   16 ar  
    26   15   20 ar  
    27   16   17 ar  
    28   16   41 1   
    29   17   18 ar  
    30   17   42 1   
    31   18   19 ar  
    32   18   24 ar  
    33   19   20 ar  
    34   19   21 ar  
    35   20   43 1   
    36   21   22 ar  
    37   21   44 1   
    38   22   23 ar  
    39   22   26 1   
    40   23   24 ar  
    41   23   45 1   
    42   24   25 1   
    43   25   46 1   
    44   26   27 1   
    45   26   28 1   
    46   26   29 1   
    47   30   31 1   
    48   30   32 1   
    49   30   33 1   
@<TRIPOS>SUBSTRUCTURE
     1 OSA         1 TEMP              0 ****  ****    0 ROOT
