@<TRIPOS>MOLECULE
OSA
   46    37     1     0     0
SMALL
bcc


@<TRIPOS>ATOM
      1 CAA        -6.2470    0.7110   -2.5870 c1        1 OSA     -0.198000
      2 CAB        -4.8650    0.6190   -2.6960 c1        1 OSA     -0.061000
      3 CAC        -4.0680    0.5900   -1.5360 c1        1 OSA     -0.086000
      4 CAD        -4.6570    0.6520   -0.2960 c1        1 OSA      0.016000
      5 CAE        -6.0580    0.7450   -0.1860 c1        1 OSA     -0.151000
      6 CAF        -6.8430    0.7740   -1.3310 c1        1 OSA      0.017000
      7 NAG        -8.2610    0.7450   -1.2890 n3        1 OSA     -0.311000
      8 CAH        -3.8580    0.6550    0.8630 c1        1 OSA     -0.151000
      9 CAI        -2.4750    0.5940    0.7530 c1        1 OSA     -0.581000
     10 CAJ        -1.8780    0.5310   -0.5020 c1        1 OSA     -0.066000
     11 CAK        -2.6660    0.5290   -1.6460 c1        1 OSA      0.107000
     12 OAL        -2.0880    0.3490   -2.9160 oh        1 OSA     -0.281000
     13 NAM        -0.4640    0.5620   -0.6160 n2        1 OSA     -0.003000
     14 NAN         0.2350   -0.1120    0.1540 n1        1 OSA     -0.147000
     15 CAO         1.6460   -0.1320   -0.0010 c1        1 OSA     -0.031000
     16 CAP         2.2300    0.4420   -1.1260 c2        1 OSA     -0.113000
     17 CAQ         3.6100    0.4150   -1.2820 c1        1 OSA     -0.122000
     18 CAR         4.4180   -0.1920   -0.3020 c1        1 OSA     -0.020000
     19 CAS         3.8400   -0.7590    0.8090 c1        1 OSA     -0.051000
     20 CAT         2.4420   -0.7320    0.9660 c1        1 OSA     -0.085000
     21 CAU         4.6480   -1.3660    1.7880 c1        1 OSA     -0.051000
     22 CAV         6.0280   -1.3930    1.6320 c1        1 OSA     -0.679000
     23 CAW         6.6120   -0.8190    0.5070 c1        1 OSA     -0.128000
     24 CAX         5.8160   -0.2190   -0.4600 c1        1 OSA      0.033000
     25 OAY         6.4590    0.1960   -1.6400 oh        1 OSA     -0.272000
     26 SAZ         6.9120   -2.3560    2.8280 s4        1 OSA      2.086800
     27 OBA         7.1060   -3.7660    2.3240 os        1 OSA     -1.059000
     28 OBB         8.2330   -1.7140    3.1800 o         1 OSA     -0.679400
     29 OBC         6.2140   -2.3440    4.1660 o         1 OSA     -0.679400
     30 SBD        -1.9430    0.6480    2.4420 s4        1 OSA      2.086800
     31 OBE        -0.8440   -0.3540    2.7030 o         1 OSA     -0.674900
     32 OBF        -1.5060    2.0460    2.8090 os        1 OSA     -1.059000
     33 OBG        -3.0210    0.1490    3.3730 o         1 OSA     -0.674900
     34 HAA        -6.7990    0.7280   -3.3910 ha        1 OSA      0.115000
     35 HAB        -4.4470    0.5750   -3.5770 ha        1 OSA      0.142000
     36 HAE        -6.4740    0.8250    0.6930 ha        1 OSA      0.148000
     37 HNAG       -8.6980    0.8890   -0.4990 hn        1 OSA      0.158000
     38 HNAA       -8.7380    0.5760   -2.0510 hn        1 OSA      0.158000
     39 HAH        -4.2770    0.6960    1.7440 ha        1 OSA      0.148000
     40 HOAL       -1.6420    1.0820   -3.1460 ho        1 OSA      0.253000
     41 HAP         1.6710    0.8760   -1.7970 ha        1 OSA      0.177000
     42 HAQ         4.0190    0.8180   -2.0710 ha        1 OSA      0.140000
     43 HAT         2.0310   -1.1410    1.7510 ha        1 OSA      0.134000
     44 HAU         4.2390   -1.7690    2.5770 ha        1 OSA      0.143000
     45 HAW         7.5810   -0.8430    0.3950 ha        1 OSA      0.148000
     46 HOAY        6.8300    0.9940   -1.5110 ho        1 OSA      0.205000
@<TRIPOS>BOND
     1    1    6 1   
     2    1   34 1   
     3    2    3 1   
     4    2   35 1   
     5    3   11 1   
     6    4    5 1   
     7    4    8 1   
     8    5   36 1   
     9    6    7 1   
    10    7   37 1   
    11    7   38 1   
    12    8   39 1   
    13    9   10 1   
    14    9   30 1   
    15   10   13 1   
    16   11   12 1   
    17   12   40 1   
    18   13   14 1   
    19   15   16 1   
    20   15   20 1   
    21   16   17 1   
    22   16   41 1   
    23   17   42 1   
    24   18   19 1   
    25   18   24 1   
    26   19   21 1   
    27   20   43 1   
    28   21   44 1   
    29   22   23 1   
    30   22   26 1   
    31   23   45 1   
    32   24   25 1   
    33   25   46 1   
    34   26   28 1   
    35   26   29 1   
    36   30   31 1   
    37   30   33 1   
@<TRIPOS>SUBSTRUCTURE
     1 OSA         1 TEMP              0 ****  ****    0 ROOT
