@<TRIPOS>MOLECULE
OSB
   24    24     1     0     0
SMALL
bcc


@<TRIPOS>ATOM
      1 O1         -2.5690   -0.4050   -3.1620 o         1 OSB     -0.832800
      2 O2         -2.5770    0.3470   -1.0620 o         1 OSB     -0.832800
      3 C7         -1.9790   -0.0190   -2.1100 c         1 OSB      0.911200
      4 C6          1.7820   -0.0890   -1.2340 ca        1 OSB     -0.124000
      5 C5          2.3240    0.3890   -2.4220 ca        1 OSB     -0.171000
      6 C4          1.4810    0.7010   -3.4900 ca        1 OSB     -0.164000
      7 C3          0.1070    0.5400   -3.3520 ca        1 OSB     -0.126000
      8 C2         -0.4570    0.0670   -2.1560 ca        1 OSB     -0.080600
      9 C1          0.3950   -0.2620   -1.0950 ca        1 OSB     -0.125600
     10 C8         -0.0780   -0.8110    0.2090 c         1 OSB      0.612700
     11 C9          0.0430    0.1340    1.3710 c3        1 OSB     -0.166400
     12 O3         -0.4670   -1.9810    0.3110 o         1 OSB     -0.567100
     13 C10         0.1890   -0.5580    2.7060 c3        1 OSB     -0.178400
     14 C11         1.0300    0.2400    3.7110 c         1 OSB      0.903600
     15 O4          2.0430    0.8860    3.3060 o         1 OSB     -0.868800
     16 O5          0.6970    0.1920    4.9340 o         1 OSB     -0.868800
     17 H61         2.4410   -0.3250   -0.3840 ha        1 OSB      0.132000
     18 H51         3.4100    0.5240   -2.5160 ha        1 OSB      0.097000
     19 H41         1.9040    1.0730   -4.4330 ha        1 OSB      0.091000
     20 H31        -0.5740    0.7660   -4.1870 ha        1 OSB      0.136000
     21 H91        -0.8770    0.7800    1.3580 hc        1 OSB      0.080700
     22 H92         0.9330    0.8040    1.2090 hc        1 OSB      0.080700
     23 H101        0.6920   -1.5500    2.5670 hc        1 OSB      0.029200
     24 H102       -0.8200   -0.7570    3.1490 hc        1 OSB      0.029200
@<TRIPOS>BOND
     1    1    3 1   
     2    2    3 1   
     3    3    8 1   
     4    4    5 ar  
     5    4    9 ar  
     6    4   17 1   
     7    5    6 ar  
     8    5   18 1   
     9    6    7 ar  
    10    6   19 1   
    11    7    8 ar  
    12    7   20 1   
    13    8    9 ar  
    14    9   10 1   
    15   10   11 1   
    16   10   12 2   
    17   11   13 1   
    18   11   21 1   
    19   11   22 1   
    20   13   14 1   
    21   13   23 1   
    22   13   24 1   
    23   14   15 1   
    24   14   16 1   
@<TRIPOS>SUBSTRUCTURE
     1 OSB         1 TEMP              0 ****  ****    0 ROOT
