@<TRIPOS>MOLECULE
OSB
   24    24     1     0     0
SMALL
bcc


@<TRIPOS>ATOM
      1 O1         -0.1800    0.9380    0.5080 o         1 OSB     -0.832800
      2 O2          0.9860   -0.3520   -0.8880 o         1 OSB     -0.832800
      3 C7          0.8410    0.2500    0.2100 c         1 OSB      0.911200
      4 C6          4.1890   -0.1290    2.0970 ca        1 OSB     -0.124000
      5 C5          3.7250   -0.2990    3.3970 ca        1 OSB     -0.171000
      6 C4          2.3530   -0.2630    3.6510 ca        1 OSB     -0.164000
      7 C3          1.4630   -0.0690    2.6010 ca        1 OSB     -0.126000
      8 C2          1.9140    0.0950    1.2810 ca        1 OSB     -0.080600
      9 C1          3.2920    0.0780    1.0350 ca        1 OSB     -0.125600
     10 C8          3.8970    0.2800   -0.3140 c         1 OSB      0.612700
     11 C9          4.5170   -0.9500   -0.9160 c3        1 OSB     -0.166400
     12 O3          3.9350    1.3980   -0.8400 o         1 OSB     -0.567100
     13 C10         5.6300   -0.6530   -1.8950 c3        1 OSB     -0.178400
     14 C11         6.7140   -1.7380   -1.9230 c         1 OSB      0.903600
     15 O4          7.0600   -2.3060   -0.8440 o         1 OSB     -0.868800
     16 O5          7.2600   -2.0030   -3.0370 o         1 OSB     -0.868800
     17 H61         5.2690   -0.1690    1.8880 ha        1 OSB      0.132000
     18 H51         4.4360   -0.4640    4.2170 ha        1 OSB      0.097000
     19 H41         1.9810   -0.3900    4.6770 ha        1 OSB      0.091000
     20 H31         0.3780   -0.0230    2.7820 ha        1 OSB      0.136000
     21 H91         3.6880   -1.5150   -1.4200 hc        1 OSB      0.080700
     22 H92         4.9220   -1.5990   -0.0910 hc        1 OSB      0.080700
     23 H101        5.2130   -0.5250   -2.9250 hc        1 OSB      0.029200
     24 H102        6.1320    0.3100   -1.6170 hc        1 OSB      0.029200
@<TRIPOS>BOND
     1    1    3 1   
     2    2    3 1   
     3    3    8 1   
     4    4    5 ar  
     5    4    9 ar  
     6    4   17 1   
     7    5    6 ar  
     8    5   18 1   
     9    6    7 ar  
    10    6   19 1   
    11    7    8 ar  
    12    7   20 1   
    13    8    9 ar  
    14    9   10 1   
    15   10   11 1   
    16   10   12 2   
    17   11   13 1   
    18   11   21 1   
    19   11   22 1   
    20   13   14 1   
    21   13   23 1   
    22   13   24 1   
    23   14   15 1   
    24   14   16 1   
@<TRIPOS>SUBSTRUCTURE
     1 OSB         1 TEMP              0 ****  ****    0 ROOT
