@<TRIPOS>MOLECULE
OSB
   24    22     1     0     0
SMALL
bcc


@<TRIPOS>ATOM
      1 O1         -0.1850   -1.8810   -2.9670 o         1 OSB     -0.567500
      2 O2         -2.1080   -2.1850   -1.9850 o         1 OSB     -0.567500
      3 C7         -0.8610   -2.0280   -1.9150 c2        1 OSB      0.360000
      4 C6          0.7720   -0.8640    1.2970 c1        1 OSB     -0.124000
      5 C5          1.1580   -2.0680    1.8640 c1        1 OSB     -0.167500
      6 C4          0.8800   -3.2600    1.2140 c1        1 OSB     -0.167500
      7 C3          0.2160   -3.2480   -0.0020 c1        1 OSB     -0.126000
      8 C2         -0.1710   -2.0440   -0.5690 c2        1 OSB     -0.060000
      9 C1          0.1070   -0.8510    0.0810 c2        1 OSB     -0.105000
     10 C8         -0.3410    0.4610   -0.5220 c2        1 OSB      0.303000
     11 C9         -0.0630    1.7600    0.2010 c3        1 OSB     -0.195000
     12 O3         -0.9480    0.4700   -1.5740 o         1 OSB     -0.328000
     13 C10        -0.5590    2.9190   -0.6340 c3        1 OSB     -0.207000
     14 C11        -0.2180    4.2210    0.0560 c2        1 OSB      0.323000
     15 O4         -1.0630    4.7770    0.8060 o         1 OSB     -0.603500
     16 O5          0.9040    4.7610   -0.1360 o         1 OSB     -0.603500
     17 H61         0.9730   -0.0240    1.7520 ha        1 OSB      0.132000
     18 H51         1.6260   -2.0770    2.7210 ha        1 OSB      0.094000
     19 H41         1.1400   -4.1090    1.6200 ha        1 OSB      0.094000
     20 H31         0.0280   -4.0870   -0.4640 ha        1 OSB      0.136000
     21 H91        -0.5260    1.7580    1.0630 hc        1 OSB      0.120000
     22 H92         0.8990    1.8520    0.3480 hc        1 OSB      0.120000
     23 H101       -0.1310    2.8940   -1.5130 hc        1 OSB      0.068500
     24 H102       -1.5290    2.8520   -0.7420 hc        1 OSB      0.068500
@<TRIPOS>BOND
     1    1    3 1   
     2    2    3 1   
     3    3    8 1   
     4    4    9 1   
     5    4   17 1   
     6    5    6 1   
     7    5   18 1   
     8    6   19 1   
     9    7    8 1   
    10    7   20 1   
    11    8    9 1   
    12    9   10 1   
    13   10   11 1   
    14   10   12 1   
    15   11   13 1   
    16   11   21 1   
    17   11   22 1   
    18   13   14 1   
    19   13   23 1   
    20   13   24 1   
    21   14   15 1   
    22   14   16 1   
@<TRIPOS>SUBSTRUCTURE
     1 OSB         1 TEMP              0 ****  ****    0 ROOT
