@<TRIPOS>MOLECULE
OSB
   24    24     1     0     0
SMALL
bcc


@<TRIPOS>ATOM
      1 O1         -0.1520    1.0150    0.4700 o         1 OSB     -0.832800
      2 O2          1.0250   -0.2360   -0.9520 o         1 OSB     -0.832800
      3 C7          0.8630    0.3200    0.1670 c         1 OSB      0.911200
      4 C6          4.1530   -0.2060    2.1190 ca        1 OSB     -0.124000
      5 C5          3.6530   -0.4210    3.3990 ca        1 OSB     -0.171000
      6 C4          2.2760   -0.3670    3.6200 ca        1 OSB     -0.164000
      7 C3          1.4170   -0.1110    2.5580 ca        1 OSB     -0.126000
      8 C2          1.9050    0.0990    1.2570 ca        1 OSB     -0.080600
      9 C1          3.2890    0.0630    1.0450 ca        1 OSB     -0.125600
     10 C8          3.9320    0.3090   -0.2790 c         1 OSB      0.612700
     11 C9          4.5420   -0.9060   -0.9170 c3        1 OSB     -0.166400
     12 O3          4.0060    1.4480   -0.7550 o         1 OSB     -0.567100
     13 C10         5.6850   -0.5920   -1.8550 c3        1 OSB     -0.178400
     14 C11         6.7470   -1.6980   -1.9030 c         1 OSB      0.903600
     15 O4          7.0540   -2.3190   -0.8410 o         1 OSB     -0.868800
     16 O5          7.3160   -1.9270   -3.0140 o         1 OSB     -0.868800
     17 H61         5.2380   -0.2590    1.9360 ha        1 OSB      0.132000
     18 H51         4.3390   -0.6340    4.2290 ha        1 OSB      0.097000
     19 H41         1.8750   -0.5300    4.6300 ha        1 OSB      0.091000
     20 H31         0.3290   -0.0510    2.7130 ha        1 OSB      0.136000
     21 H91         3.7140   -1.4320   -1.4660 hc        1 OSB      0.080700
     22 H92         4.9130   -1.5990   -0.1120 hc        1 OSB      0.080700
     23 H101        5.2960   -0.4120   -2.8890 hc        1 OSB      0.029200
     24 H102        6.1990    0.3470   -1.5250 hc        1 OSB      0.029200
@<TRIPOS>BOND
     1    1    3 1   
     2    2    3 1   
     3    3    8 1   
     4    4    5 ar  
     5    4    9 ar  
     6    4   17 1   
     7    5    6 ar  
     8    5   18 1   
     9    6    7 ar  
    10    6   19 1   
    11    7    8 ar  
    12    7   20 1   
    13    8    9 ar  
    14    9   10 1   
    15   10   11 1   
    16   10   12 2   
    17   11   13 1   
    18   11   21 1   
    19   11   22 1   
    20   13   14 1   
    21   13   23 1   
    22   13   24 1   
    23   14   15 1   
    24   14   16 1   
@<TRIPOS>SUBSTRUCTURE
     1 OSB         1 TEMP              0 ****  ****    0 ROOT
