@<TRIPOS>MOLECULE
OSE
   16    15     1     0     0
SMALL
bcc


@<TRIPOS>ATOM
      1 N          -0.3060   -1.8080   -1.2730 n3        1 OSE     -0.900800
      2 CA         -0.4850   -2.3990    0.0430 c3        1 OSE      0.039500
      3 CB         -0.7830   -1.3830    1.1690 c3        1 OSE      0.177400
      4 OG          0.1810   -0.3650    1.1560 os        1 OSE     -0.627500
      5 C          -1.6180   -3.4700    0.0600 c         1 OSE      0.912600
      6 O          -2.7000   -3.2270   -0.5520 o         1 OSE     -0.864300
      7 S           0.1870    0.8920    2.3070 s6        1 OSE      1.690300
      8 O1S         1.3680    1.5730    1.9750 o         1 OSE     -0.770533
      9 O2S        -0.9890    1.6070    2.0460 o         1 OSE     -0.770533
     10 O3S         0.2120    0.2430    3.5470 o         1 OSE     -0.770533
     11 OXT        -1.4020   -4.5500    0.6830 o         1 OSE     -0.864300
     12 H           0.0910   -0.8920   -1.1610 hn        1 OSE      0.332300
     13 H2         -1.2100   -1.7020   -1.7000 hn        1 OSE      0.332300
     14 HA          0.4860   -2.9100    0.2990 h1        1 OSE      0.044700
     15 HB2        -0.7580   -1.9150    2.1580 h1        1 OSE      0.019700
     16 HB3        -1.8010   -0.9290    1.0170 h1        1 OSE      0.019700
@<TRIPOS>BOND
     1    1    2 1   
     2    1   12 1   
     3    1   13 1   
     4    2    3 1   
     5    2    5 1   
     6    2   14 1   
     7    3    4 1   
     8    3   15 1   
     9    3   16 1   
    10    4    7 1   
    11    5    6 1   
    12    5   11 1   
    13    7    8 1   
    14    7    9 1   
    15    7   10 1   
@<TRIPOS>SUBSTRUCTURE
     1 OSE         1 TEMP              0 ****  ****    0 ROOT
