@<TRIPOS>MOLECULE
OSF
   30    29     1     0     0
SMALL
bcc


@<TRIPOS>ATOM
      1 S           3.9590    0.0350   -0.0040 s6        1 OSF      1.698300
      2 O1          2.3540   -0.6160   -0.0310 os        1 OSF     -0.609500
      3 O2          3.9700    0.8280   -1.1520 o         1 OSF     -0.756200
      4 O3          3.9660    0.7410    1.2000 o         1 OSF     -0.756200
      5 O4          4.7270   -1.1250   -0.0450 o         1 OSF     -0.756200
      6 C1          1.2700    0.2510    0.0020 c3        1 OSF      0.208400
      7 C2         -0.0170   -0.5660   -0.0250 c3        1 OSF     -0.089400
      8 C3         -1.2300    0.3370    0.0090 c3        1 OSF     -0.078400
      9 C4         -2.5140   -0.4630   -0.0170 c3        1 OSF     -0.078400
     10 C5         -3.7290    0.4400    0.0170 c3        1 OSF     -0.079400
     11 C6         -5.0130   -0.3610   -0.0090 c3        1 OSF     -0.079400
     12 C7         -6.2280    0.5410    0.0250 c3        1 OSF     -0.080400
     13 C8         -7.5090   -0.2510   -0.0000 c3        1 OSF     -0.091100
     14 H1          1.3070    0.8760    0.9380 h1        1 OSF      0.008700
     15 H1A         1.3030    0.9400   -0.8890 h1        1 OSF      0.008700
     16 H2         -0.0300   -1.1990   -0.9490 hc        1 OSF      0.040700
     17 H2A        -0.0270   -1.2620    0.8530 hc        1 OSF      0.040700
     18 H3         -1.2010    0.9710    0.9340 hc        1 OSF      0.034700
     19 H3A        -1.2040    1.0340   -0.8700 hc        1 OSF      0.034700
     20 H4         -2.5430   -1.0970   -0.9420 hc        1 OSF      0.035700
     21 H4A        -2.5390   -1.1600    0.8620 hc        1 OSF      0.035700
     22 H5         -3.7000    1.0740    0.9420 hc        1 OSF      0.036700
     23 H5A        -3.7030    1.1370   -0.8620 hc        1 OSF      0.036700
     24 H6         -5.0420   -0.9950   -0.9340 hc        1 OSF      0.037700
     25 H6A        -5.0390   -1.0580    0.8700 hc        1 OSF      0.037700
     26 H7         -6.1960    1.1760    0.9500 hc        1 OSF      0.036700
     27 H7A        -6.1990    1.2390   -0.8540 hc        1 OSF      0.036700
     28 H8         -7.5670   -0.9350    0.8810 hc        1 OSF      0.028033
     29 H8A        -8.3920    0.4320    0.0250 hc        1 OSF      0.028033
     30 H8B        -7.5700   -0.8720   -0.9270 hc        1 OSF      0.028033
@<TRIPOS>BOND
     1    1    2 1   
     2    1    3 1   
     3    1    4 1   
     4    1    5 1   
     5    2    6 1   
     6    6    7 1   
     7    6   14 1   
     8    6   15 1   
     9    7    8 1   
    10    7   16 1   
    11    7   17 1   
    12    8    9 1   
    13    8   18 1   
    14    8   19 1   
    15    9   10 1   
    16    9   20 1   
    17    9   21 1   
    18   10   11 1   
    19   10   22 1   
    20   10   23 1   
    21   11   12 1   
    22   11   24 1   
    23   11   25 1   
    24   12   13 1   
    25   12   26 1   
    26   12   27 1   
    27   13   28 1   
    28   13   29 1   
    29   13   30 1   
@<TRIPOS>SUBSTRUCTURE
     1 OSF         1 TEMP              0 ****  ****    0 ROOT
