@<TRIPOS>MOLECULE
OSF
   30    29     1     0     0
SMALL
bcc


@<TRIPOS>ATOM
      1 S          -0.1820   -0.0730   -0.0640 s6        1 OSF      1.698300
      2 O1          1.5410    0.0350    0.0740 os        1 OSF     -0.609500
      3 O2         -0.5590   -0.3940    1.2400 o         1 OSF     -0.756200
      4 O3         -0.5210    1.2170   -0.4740 o         1 OSF     -0.756200
      5 O4         -0.3190   -1.0810   -1.0140 o         1 OSF     -0.756200
      6 C1          2.0950    0.9570    0.9530 c3        1 OSF      0.208400
      7 C2          3.6140    0.8530    0.8860 c3        1 OSF     -0.089400
      8 C3          4.2640    1.8410    1.8290 c3        1 OSF     -0.078400
      9 C4          5.7740    1.7480    1.7710 c3        1 OSF     -0.078400
     10 C5          6.4250    2.7360    2.7150 c3        1 OSF     -0.079400
     11 C6          7.9350    2.6420    2.6570 c3        1 OSF     -0.079400
     12 C7          8.5870    3.6310    3.6000 c3        1 OSF     -0.080400
     13 C8         10.0900    3.5410    3.5450 c3        1 OSF     -0.091100
     14 H1          1.7700    1.9990    0.6710 h1        1 OSF      0.008700
     15 H1A         1.7430    0.7460    2.0020 h1        1 OSF      0.008700
     16 H2          3.9210   -0.1920    1.1470 hc        1 OSF      0.040700
     17 H2A         3.9480    1.0430   -0.1660 hc        1 OSF      0.040700
     18 H3          3.9150    1.6460    2.8770 hc        1 OSF      0.034700
     19 H3A         3.9420    2.8830    1.5630 hc        1 OSF      0.034700
     20 H4          6.1220    1.9430    0.7230 hc        1 OSF      0.035700
     21 H4A         6.0950    0.7060    2.0370 hc        1 OSF      0.035700
     22 H5          6.0760    2.5410    3.7630 hc        1 OSF      0.036700
     23 H5A         6.1030    3.7770    2.4480 hc        1 OSF      0.036700
     24 H6          8.2570    1.6010    2.9230 hc        1 OSF      0.037700
     25 H6A         8.2830    2.8380    1.6080 hc        1 OSF      0.037700
     26 H7          8.2620    4.6710    3.3330 hc        1 OSF      0.036700
     27 H7A         8.2360    3.4350    4.6470 hc        1 OSF      0.036700
     28 H8         10.4610    3.7570    2.5140 hc        1 OSF      0.028033
     29 H8A        10.5510    4.2770    4.2470 hc        1 OSF      0.028033
     30 H8B        10.4340    2.5170    3.8320 hc        1 OSF      0.028033
@<TRIPOS>BOND
     1    1    2 1   
     2    1    3 1   
     3    1    4 1   
     4    1    5 1   
     5    2    6 1   
     6    6    7 1   
     7    6   14 1   
     8    6   15 1   
     9    7    8 1   
    10    7   16 1   
    11    7   17 1   
    12    8    9 1   
    13    8   18 1   
    14    8   19 1   
    15    9   10 1   
    16    9   20 1   
    17    9   21 1   
    18   10   11 1   
    19   10   22 1   
    20   10   23 1   
    21   11   12 1   
    22   11   24 1   
    23   11   25 1   
    24   12   13 1   
    25   12   26 1   
    26   12   27 1   
    27   13   28 1   
    28   13   29 1   
    29   13   30 1   
@<TRIPOS>SUBSTRUCTURE
     1 OSF         1 TEMP              0 ****  ****    0 ROOT
