@<TRIPOS>MOLECULE
OSF
   30    27     1     0     0
SMALL
bcc


@<TRIPOS>ATOM
      1 S          -5.2480   -2.2910   -1.1260 ss        1 OSF      2.876000
      2 O1         -3.7400   -2.2910   -1.1260 o         1 OSF     -0.747000
      3 O2         -5.7960   -2.2910    0.2810 o         1 OSF     -1.074500
      4 O3         -5.7710   -1.1160   -1.9180 os        1 OSF     -1.088000
      5 O4         -5.7960   -3.5950   -1.6540 o         1 OSF     -1.074500
      6 C1         -3.1230   -1.1550   -0.5660 c3        1 OSF      0.058000
      7 C2         -1.6200   -1.3080   -0.6440 c3        1 OSF     -0.168000
      8 C3         -0.9580   -0.0880   -0.0420 c3        1 OSF     -0.157000
      9 C4          0.5460   -0.2380   -0.1270 c3        1 OSF     -0.157000
     10 C5          1.2080    0.9780    0.4820 c3        1 OSF     -0.158000
     11 C6          2.7110    0.8330    0.3890 c3        1 OSF     -0.158000
     12 C7          3.3740    2.0430    1.0090 c3        1 OSF     -0.159000
     13 C8          4.8770    1.9000    0.9130 c3        1 OSF     -0.209000
     14 H1         -3.3940   -1.0650    0.3670 h1        1 OSF      0.048000
     15 H1A        -3.3960   -0.3590   -1.0620 h1        1 OSF      0.048000
     16 H2         -1.3480   -2.1040   -0.1490 hc        1 OSF      0.080500
     17 H2A        -1.3500   -1.3980   -1.5780 hc        1 OSF      0.080500
     18 H3         -1.2240   -0.0010    0.8930 hc        1 OSF      0.074000
     19 H3A        -1.2330    0.7080   -0.5350 hc        1 OSF      0.074000
     20 H4          0.8210   -1.0370    0.3610 hc        1 OSF      0.075000
     21 H4A         0.8120   -0.3200   -1.0620 hc        1 OSF      0.075000
     22 H5          0.9280    1.7780   -0.0020 hc        1 OSF      0.076000
     23 H5A         0.9460    1.0560    1.4190 hc        1 OSF      0.076000
     24 H6          2.9910    0.0290    0.8670 hc        1 OSF      0.077000
     25 H6A         2.9740    0.7620   -0.5480 hc        1 OSF      0.077000
     26 H7          3.1140    2.1120    1.9470 hc        1 OSF      0.076000
     27 H7A         3.0930    2.8480    0.5330 hc        1 OSF      0.076000
     28 H8          5.1380    1.8330   -0.0260 hc        1 OSF      0.067333
     29 H8A         5.3050    2.6800    1.3140 hc        1 OSF      0.067333
     30 H8B         5.1580    1.0950    1.3870 hc        1 OSF      0.067333
@<TRIPOS>BOND
     1    1    3 1   
     2    1    5 1   
     3    2    6 1   
     4    6    7 1   
     5    6   14 1   
     6    6   15 1   
     7    7    8 1   
     8    7   16 1   
     9    7   17 1   
    10    8    9 1   
    11    8   18 1   
    12    8   19 1   
    13    9   10 1   
    14    9   20 1   
    15    9   21 1   
    16   10   11 1   
    17   10   22 1   
    18   10   23 1   
    19   11   12 1   
    20   11   24 1   
    21   11   25 1   
    22   12   13 1   
    23   12   26 1   
    24   12   27 1   
    25   13   28 1   
    26   13   29 1   
    27   13   30 1   
@<TRIPOS>SUBSTRUCTURE
     1 OSF         1 TEMP              0 ****  ****    0 ROOT
