@<TRIPOS>MOLECULE
OSF
   30    29     1     0     0
SMALL
bcc


@<TRIPOS>ATOM
      1 S          -0.1800   -0.0590   -0.0810 s6        1 OSF      1.698300
      2 O1          1.5410    0.0210    0.0880 os        1 OSF     -0.609500
      3 O2         -0.5860   -0.3720    1.2170 o         1 OSF     -0.756200
      4 O3         -0.4910    1.2350   -0.5000 o         1 OSF     -0.756200
      5 O4         -0.3160   -1.0670   -1.0320 o         1 OSF     -0.756200
      6 C1          2.0950    0.9450    0.9650 c3        1 OSF      0.208400
      7 C2          3.6140    0.8460    0.8940 c3        1 OSF     -0.089400
      8 C3          4.2630    1.8340    1.8360 c3        1 OSF     -0.078400
      9 C4          5.7740    1.7450    1.7750 c3        1 OSF     -0.078400
     10 C5          6.4250    2.7340    2.7180 c3        1 OSF     -0.079400
     11 C6          7.9340    2.6450    2.6550 c3        1 OSF     -0.079400
     12 C7          8.5860    3.6330    3.5990 c3        1 OSF     -0.080400
     13 C8         10.0900    3.5480    3.5390 c3        1 OSF     -0.091100
     14 H1          1.7660    1.9860    0.6830 h1        1 OSF      0.008700
     15 H1A         1.7460    0.7330    2.0150 h1        1 OSF      0.008700
     16 H2          3.9250   -0.1990    1.1530 hc        1 OSF      0.041200
     17 H2A         3.9450    1.0380   -0.1590 hc        1 OSF      0.041200
     18 H3          3.9180    1.6360    2.8850 hc        1 OSF      0.034700
     19 H3A         3.9380    2.8750    1.5730 hc        1 OSF      0.034700
     20 H4          6.1180    1.9440    0.7260 hc        1 OSF      0.035700
     21 H4A         6.0990    0.7040    2.0370 hc        1 OSF      0.035700
     22 H5          6.0800    2.5350    3.7670 hc        1 OSF      0.036700
     23 H5A         6.0980    3.7740    2.4550 hc        1 OSF      0.036700
     24 H6          8.2610    1.6040    2.9170 hc        1 OSF      0.037200
     25 H6A         8.2790    2.8440    1.6060 hc        1 OSF      0.037200
     26 H7          8.2570    4.6730    3.3370 hc        1 OSF      0.036700
     27 H7A         8.2390    3.4320    4.6470 hc        1 OSF      0.036700
     28 H8         10.4560    3.7690    2.5070 hc        1 OSF      0.028033
     29 H8A        10.5500    4.2840    4.2420 hc        1 OSF      0.028033
     30 H8B        10.4380    2.5250    3.8210 hc        1 OSF      0.028033
@<TRIPOS>BOND
     1    1    2 1   
     2    1    3 1   
     3    1    4 1   
     4    1    5 1   
     5    2    6 1   
     6    6    7 1   
     7    6   14 1   
     8    6   15 1   
     9    7    8 1   
    10    7   16 1   
    11    7   17 1   
    12    8    9 1   
    13    8   18 1   
    14    8   19 1   
    15    9   10 1   
    16    9   20 1   
    17    9   21 1   
    18   10   11 1   
    19   10   22 1   
    20   10   23 1   
    21   11   12 1   
    22   11   24 1   
    23   11   25 1   
    24   12   13 1   
    25   12   26 1   
    26   12   27 1   
    27   13   28 1   
    28   13   29 1   
    29   13   30 1   
@<TRIPOS>SUBSTRUCTURE
     1 OSF         1 TEMP              0 ****  ****    0 ROOT
