@<TRIPOS>MOLECULE
OSL
   15    14     1     0     0
SMALL
bcc


@<TRIPOS>ATOM
      1 C24         0.0320    0.1360   -0.2010 c         1 OSL      0.887600
      2 C25         1.5710    0.1410   -0.0530 c3        1 OSL      0.021100
      3 C26         1.9800   -0.0530    1.4130 c3        1 OSL      0.190400
      4 O66        -0.5060   -0.9410   -0.6070 o         1 OSL     -0.861800
      5 O67         2.1410   -0.8750   -0.8690 oh        1 OSL     -0.636800
      6 O68         3.2500    0.4930    1.6350 os        1 OSL     -0.613500
      7 S69         4.1750    0.0940    3.0100 s6        1 OSL      1.686300
      8 O70         5.4630    0.4990    2.6310 o         1 OSL     -0.771533
      9 O71         3.6090    0.8580    4.0420 o         1 OSL     -0.771533
     10 O72         4.0130   -1.2900    3.1690 o         1 OSL     -0.771533
     11 O7         -0.6250    1.1850    0.0500 o         1 OSL     -0.861800
     12 H25         2.0000    1.1040   -0.4370 h1        1 OSL      0.059700
     13 H26         1.2370    0.4800    2.0690 h1        1 OSL      0.019200
     14 H26A        1.9880   -1.1490    1.6640 h1        1 OSL      0.019200
     15 HO67        1.5000   -1.6010   -0.8840 ho        1 OSL      0.404000
@<TRIPOS>BOND
     1    1    2 1   
     2    1    4 1   
     3    1   11 1   
     4    2    3 1   
     5    2    5 1   
     6    2   12 1   
     7    3    6 1   
     8    3   13 1   
     9    3   14 1   
    10    5   15 1   
    11    6    7 1   
    12    7    8 1   
    13    7    9 1   
    14    7   10 1   
@<TRIPOS>SUBSTRUCTURE
     1 OSL         1 TEMP              0 ****  ****    0 ROOT
