@<TRIPOS>MOLECULE
OSL
   15    14     1     0     0
SMALL
bcc


@<TRIPOS>ATOM
      1 C24         2.9230   -0.2490   -0.0560 c         1 OSL      0.887600
      2 C25         1.6180    0.4520   -0.5010 c3        1 OSL      0.021100
      3 C26         0.3970   -0.1950    0.1640 c3        1 OSL      0.190400
      4 O66         3.6080    0.3260    0.8470 o         1 OSL     -0.861800
      5 O67         1.6800    1.8380   -0.1920 oh        1 OSL     -0.636800
      6 O68        -0.7470    0.0210   -0.6150 os        1 OSL     -0.613500
      7 S69        -2.3180   -0.1860    0.0140 s6        1 OSL      1.686300
      8 O70        -3.1050    0.5120   -0.9150 o         1 OSL     -0.771533
      9 O71        -2.5120   -1.5740    0.0090 o         1 OSL     -0.771533
     10 O72        -2.2740    0.3820    1.2960 o         1 OSL     -0.771533
     11 O7          3.2770   -1.3270   -0.6110 o         1 OSL     -0.861800
     12 H25         1.5070    0.4020   -1.6170 h1        1 OSL      0.059700
     13 H26         0.5740   -1.3030    0.2460 h1        1 OSL      0.019200
     14 H26A        0.2460    0.2420    1.1890 h1        1 OSL      0.019200
     15 HO67        2.2030    1.9100    0.6210 ho        1 OSL      0.404000
@<TRIPOS>BOND
     1    1    2 1   
     2    1    4 1   
     3    1   11 1   
     4    2    3 1   
     5    2    5 1   
     6    2   12 1   
     7    3    6 1   
     8    3   13 1   
     9    3   14 1   
    10    5   15 1   
    11    6    7 1   
    12    7    8 1   
    13    7    9 1   
    14    7   10 1   
@<TRIPOS>SUBSTRUCTURE
     1 OSL         1 TEMP              0 ****  ****    0 ROOT
