@<TRIPOS>MOLECULE
OSL
   15    12     1     0     0
SMALL
bcc


@<TRIPOS>ATOM
      1 C24        -1.5820    0.5060   -1.3030 c1        1 OSL      0.307000
      2 C25        -0.0700    0.5060   -1.3030 c2        1 OSL     -0.040000
      3 C26         0.4340    0.5060    0.1220 c3        1 OSL      0.040000
      4 O66        -2.2110   -0.5820   -1.2310 o         1 OSL     -0.596500
      5 O67         0.4000   -0.6430   -1.9670 oh        1 OSL     -0.364000
      6 O68        -0.0380   -0.6420    0.7870 os        1 OSL     -0.751000
      7 S69         0.5240   -0.8860    2.1640 s4        1 OSL      2.080800
      8 O70         0.0690   -2.2170    2.7150 o         1 OSL     -0.700400
      9 O71         2.0210   -1.0850    2.1180 o         1 OSL     -0.700400
     10 O72         0.1510    0.2470    3.0900 os        1 OSL     -1.099000
     11 O7         -2.2110    1.5940   -1.3760 o         1 OSL     -0.596500
     12 H25         0.2560    1.3030   -1.7630 h4        1 OSL      0.099000
     13 H26         0.1110    1.3040    0.5820 h1        1 OSL      0.058500
     14 H26A        1.4100    0.5030    0.1220 h1        1 OSL      0.058500
     15 HO67        0.7360   -0.4130   -2.7560 ho        1 OSL      0.203000
@<TRIPOS>BOND
     1    1    4 1   
     2    1   11 1   
     3    2    3 1   
     4    2    5 1   
     5    2   12 1   
     6    3    6 1   
     7    3   13 1   
     8    3   14 1   
     9    5   15 1   
    10    6    7 1   
    11    7    8 1   
    12    7    9 1   
@<TRIPOS>SUBSTRUCTURE
     1 OSL         1 TEMP              0 ****  ****    0 ROOT
