@<TRIPOS>MOLECULE
OSL
   15    14     1     0     0
SMALL
bcc


@<TRIPOS>ATOM
      1 C24         0.0380    0.1440   -0.2090 c         1 OSL      0.887600
      2 C25         1.5770    0.1430   -0.0550 c3        1 OSL      0.021100
      3 C26         1.9790   -0.0520    1.4120 c3        1 OSL      0.190400
      4 O66        -0.5020   -0.9310   -0.6190 o         1 OSL     -0.861800
      5 O67         2.1460   -0.8750   -0.8690 oh        1 OSL     -0.636800
      6 O68         3.2500    0.4890    1.6400 os        1 OSL     -0.613500
      7 S69         4.1670    0.0860    3.0190 s6        1 OSL      1.686300
      8 O70         5.4580    0.4880    2.6460 o         1 OSL     -0.771533
      9 O71         3.5990    0.8510    4.0480 o         1 OSL     -0.771533
     10 O72         4.0010   -1.2980    3.1760 o         1 OSL     -0.771533
     11 O7         -0.6160    1.1960    0.0380 o         1 OSL     -0.861800
     12 H25         2.0110    1.1040   -0.4380 h1        1 OSL      0.059700
     13 H26         1.2350    0.4830    2.0660 h1        1 OSL      0.019200
     14 H26A        1.9820   -1.1490    1.6630 h1        1 OSL      0.019200
     15 HO67        1.5020   -1.5990   -0.8860 ho        1 OSL      0.404000
@<TRIPOS>BOND
     1    1    2 1   
     2    1    4 1   
     3    1   11 1   
     4    2    3 1   
     5    2    5 1   
     6    2   12 1   
     7    3    6 1   
     8    3   13 1   
     9    3   14 1   
    10    5   15 1   
    11    6    7 1   
    12    7    8 1   
    13    7    9 1   
    14    7   10 1   
@<TRIPOS>SUBSTRUCTURE
     1 OSL         1 TEMP              0 ****  ****    0 ROOT
