@<TRIPOS>MOLECULE
OSM
   10     9     1     0     0
SMALL
bcc


@<TRIPOS>ATOM
      1 O           1.3990    1.1570   -0.2450 o         1 OSM     -0.461200
      2 S           0.9800   -0.1810    0.2340 s4        1 OSM      0.298900
      3 C           2.1060   -0.4020    1.6510 c3        1 OSM      0.086100
      4 N           3.2510    0.5210    1.6800 nz        1 OSM     -0.806600
      5 HS          1.5940   -1.0000   -0.5580 hs        1 OSM      0.181000
      6 H1          2.4700   -1.4630    1.7050 hx        1 OSM      0.141700
      7 H2          1.4700   -0.2220    2.5650 hx        1 OSM      0.141700
      8 HN1         2.9920    1.3990    1.1860 hn        1 OSM      0.472800
      9 HN2         3.5160    0.7450    2.6440 hn        1 OSM      0.472800
     10 HN3         4.0600    0.1110    1.2020 hn        1 OSM      0.472800
@<TRIPOS>BOND
     1    1    2 2   
     2    2    3 1   
     3    2    5 1   
     4    3    4 1   
     5    3    6 1   
     6    3    7 1   
     7    4    8 1   
     8    4    9 1   
     9    4   10 1   
@<TRIPOS>SUBSTRUCTURE
     1 OSM         1 TEMP              0 ****  ****    0 ROOT
