@<TRIPOS>MOLECULE
OSM
    9     8     1     0     0
SMALL
bcc


@<TRIPOS>ATOM
      1 O          -1.5690   -0.7190   -0.7020 o         1 OSM     -0.497200
      2 S          -0.6870    0.3340   -0.0970 s4        1 OSM      0.175900
      3 C           0.8170   -0.5670    0.2760 c3        1 OSM      0.193100
      4 N           1.9900    0.2500    0.1570 n3        1 OSM     -0.896800
      5 HS         -0.2530    1.0000   -1.1290 hs        1 OSM      0.168000
      6 H1          0.8480   -1.5100   -0.3370 h2        1 OSM      0.072700
      7 H2          0.6990   -0.8910    1.3480 h2        1 OSM      0.072700
      8 HN1         2.7300   -0.0970    0.7360 hn        1 OSM      0.355300
      9 HN2         2.3100    0.2750   -0.7930 hn        1 OSM      0.355300
@<TRIPOS>BOND
     1    1    2 2   
     2    2    3 1   
     3    2    5 1   
     4    3    4 1   
     5    3    6 1   
     6    3    7 1   
     7    4    8 1   
     8    4    9 1   
@<TRIPOS>SUBSTRUCTURE
     1 OSM         1 TEMP              0 ****  ****    0 ROOT
