@<TRIPOS>MOLECULE
OSM
   10     9     1     0     0
SMALL
bcc


@<TRIPOS>ATOM
      1 O           1.5650    1.3700   -0.1700 o         1 OSM     -0.461200
      2 S           0.9880    0.0530    0.1910 s4        1 OSM      0.298900
      3 C           2.0440   -0.4020    1.6060 c3        1 OSM      0.086100
      4 N           3.2830    0.3830    1.7310 n4        1 OSM     -0.806600
      5 HS          1.5300   -0.7650   -0.6530 hs        1 OSM      0.181000
      6 H1          2.2880   -1.4980    1.5820 hx        1 OSM      0.141700
      7 H2          1.4070   -0.2240    2.5200 hx        1 OSM      0.141700
      8 HN1         3.1350    1.3210    1.3050 hn        1 OSM      0.472800
      9 HN2         3.5440    0.5010    2.7150 hn        1 OSM      0.472800
     10 HN3         4.0540   -0.0760    1.2370 hn        1 OSM      0.472800
@<TRIPOS>BOND
     1    1    2 2   
     2    2    3 1   
     3    2    5 1   
     4    3    4 1   
     5    3    6 1   
     6    3    7 1   
     7    4    8 1   
     8    4    9 1   
     9    4   10 1   
@<TRIPOS>SUBSTRUCTURE
     1 OSM         1 TEMP              0 ****  ****    0 ROOT
