@<TRIPOS>MOLECULE
OSM
    9     7     1     0     0
SMALL
bcc


@<TRIPOS>ATOM
      1 O          -2.0300    0.3680   -1.2460 o         1 OSM     -0.609000
      2 S          -0.5940    0.3680   -1.2460 sh        1 OSM      0.941200
      3 C           0.2930    0.3680    0.2890 c2        1 OSM     -0.150900
      4 N           0.1880   -0.9170    0.8990 nh        1 OSM     -0.484100
      5 HS         -0.0050    0.3970   -2.2660 hs        1 OSM     -0.054200
      6 H1          1.2330    0.5730    0.1230 h4        1 OSM     -0.028200
      7 H2         -0.0870    1.0420    0.8840 h4        1 OSM     -0.028200
      8 HN1         0.0390   -0.8180    1.7930 hn        1 OSM      0.206700
      9 HN2         0.9630   -1.3800    0.7690 hn        1 OSM      0.206700
@<TRIPOS>BOND
     1    1    2 1   
     2    2    5 1   
     3    3    4 2   
     4    3    6 1   
     5    3    7 1   
     6    4    8 1   
     7    4    9 1   
@<TRIPOS>SUBSTRUCTURE
     1 OSM         1 TEMP              0 ****  ****    0 ROOT
