@<TRIPOS>MOLECULE
OSM
   10     9     1     0     0
SMALL
bcc


@<TRIPOS>ATOM
      1 O           1.3110    1.2590   -0.0950 o         1 OSM     -0.461200
      2 S           0.9770   -0.1480    0.2290 s4        1 OSM      0.298900
      3 C           2.1410   -0.4660    1.5960 c3        1 OSM      0.086100
      4 N           3.2340    0.5130    1.7190 n4        1 OSM     -0.806600
      5 HS          1.6210   -0.8330   -0.6600 hs        1 OSM      0.181000
      6 H1          2.5650   -1.5030    1.5220 hx        1 OSM      0.141700
      7 H2          1.5140   -0.4300    2.5330 hx        1 OSM      0.141700
      8 HN1         3.5040    0.6380    2.6990 hn        1 OSM      0.472800
      9 HN2         2.9160    1.4260    1.3340 hn        1 OSM      0.472800
     10 HN3         4.0550    0.2080    1.1850 hn        1 OSM      0.472800
@<TRIPOS>BOND
     1    1    2 2   
     2    2    3 1   
     3    2    5 1   
     4    3    4 1   
     5    3    6 1   
     6    3    7 1   
     7    4    8 1   
     8    4    9 1   
     9    4   10 1   
@<TRIPOS>SUBSTRUCTURE
     1 OSM         1 TEMP              0 ****  ****    0 ROOT
