@<TRIPOS>MOLECULE
OSP
   33    34     1     0     0
SMALL
bcc


@<TRIPOS>ATOM
      1 O3         -0.1830   -0.0890    0.1840 o         1 OSP     -0.616800
      2 S2          1.2000    0.0060    0.0360 s6        1 OSP      1.438900
      3 O4          1.6980    1.0710   -0.7240 o         1 OSP     -0.616800
      4 C7          1.9780   -0.0210    1.5500 c3        1 OSP     -0.329600
      5 C8          1.7520   -1.2840    2.3530 c3        1 OSP     -0.057400
      6 C9          2.1780   -2.5200    1.5890 c3        1 OSP     -0.113400
      7 C10         1.4720   -2.5960    0.2340 c3        1 OSP      0.162800
      8 N2          1.7660   -1.4610   -0.6280 nh        1 OSP     -0.614900
      9 C4          2.4700   -1.6430   -1.7950 ca        1 OSP      0.341600
     10 C3          3.2780   -2.8000   -2.0330 ca        1 OSP     -0.219000
     11 C2          3.9500   -2.9690   -3.2180 ca        1 OSP      0.050500
     12 C5          2.4260   -0.6670   -2.8440 ca        1 OSP     -0.219000
     13 C6          3.1100   -0.8580   -4.0180 ca        1 OSP      0.050500
     14 C1          3.8890   -2.0190   -4.2700 ca        1 OSP     -0.641500
     15 S1          4.7220   -2.1870   -5.5930 sy        1 OSP      1.514200
     16 O1          4.8840   -1.0540   -6.3610 o         1 OSP     -0.577300
     17 O2          5.6640   -3.1950   -5.5890 o         1 OSP     -0.577300
     18 N1          3.3450   -3.0700   -6.6630 n4        1 OSP     -0.781500
     19 H71         3.0850    0.1510    1.4530 h1        1 OSP      0.139200
     20 H72         1.6120    0.8480    2.1700 h1        1 OSP      0.139200
     21 H81         2.3280   -1.2250    3.3140 hc        1 OSP      0.078700
     22 H82         0.6640   -1.3610    2.6240 hc        1 OSP      0.078700
     23 H91         3.2900   -2.5320    1.4540 hc        1 OSP      0.074200
     24 H92         1.8980   -3.4350    2.1750 hc        1 OSP      0.074200
     25 H101        0.3500   -2.5950    0.4020 h1        1 OSP      0.085200
     26 H102        1.7150   -3.5760   -0.2600 h1        1 OSP      0.085200
     27 H3          3.4030   -3.5630   -1.2460 ha        1 OSP      0.185500
     28 H2          4.5850   -3.8670   -3.3540 ha        1 OSP      0.167000
     29 H5          1.8540    0.2730   -2.7200 ha        1 OSP      0.185500
     30 H6          3.0640   -0.0720   -4.7980 ha        1 OSP      0.167000
     31 HN11        2.4820   -3.1940   -6.1480 hn        1 OSP      0.448800
     32 HN12        3.6700   -3.9850   -6.9650 hn        1 OSP      0.448800
     33 H13         3.1430   -2.5200   -7.4940 hn        1 OSP      0.448800
@<TRIPOS>BOND
     1    1    2 2   
     2    2    3 2   
     3    2    4 1   
     4    2    8 1   
     5    4    5 1   
     6    4   19 1   
     7    4   20 1   
     8    5    6 1   
     9    5   21 1   
    10    5   22 1   
    11    6    7 1   
    12    6   23 1   
    13    6   24 1   
    14    7    8 1   
    15    7   25 1   
    16    7   26 1   
    17    8    9 1   
    18    9   10 ar  
    19    9   12 ar  
    20   10   11 ar  
    21   10   27 1   
    22   11   14 ar  
    23   11   28 1   
    24   12   13 ar  
    25   12   29 1   
    26   13   14 ar  
    27   13   30 1   
    28   14   15 1   
    29   15   16 2   
    30   15   17 2   
    31   15   18 1   
    32   18   31 1   
    33   18   32 1   
    34   18   33 1   
@<TRIPOS>SUBSTRUCTURE
     1 OSP         1 TEMP              0 ****  ****    0 ROOT
