@<TRIPOS>MOLECULE
OSP
   33    34     1     0     0
SMALL
bcc


@<TRIPOS>ATOM
      1 O3         -0.1990   -0.1130    0.1800 o         1 OSP     -0.616800
      2 S2          1.1830   -0.0050    0.0300 s6        1 OSP      1.438900
      3 O4          1.6710    1.0610   -0.7310 o         1 OSP     -0.616800
      4 C7          1.9620   -0.0230    1.5440 c3        1 OSP     -0.329600
      5 C8          1.7480   -1.2860    2.3500 c3        1 OSP     -0.057400
      6 C9          2.1850   -2.5200    1.5890 c3        1 OSP     -0.113400
      7 C10         1.4780   -2.6060    0.2350 c3        1 OSP      0.162800
      8 N2          1.7620   -1.4700   -0.6310 nh        1 OSP     -0.614900
      9 C4          2.4660   -1.6470   -1.7970 ca        1 OSP      0.341600
     10 C3          3.2860   -2.7980   -2.0330 ca        1 OSP     -0.219000
     11 C2          3.9580   -2.9630   -3.2180 ca        1 OSP      0.050500
     12 C5          2.4140   -0.6740   -2.8490 ca        1 OSP     -0.219000
     13 C6          3.0980   -0.8620   -4.0230 ca        1 OSP      0.050500
     14 C1          3.8880   -2.0160   -4.2720 ca        1 OSP     -0.641500
     15 S1          4.7220   -2.1790   -5.5950 sy        1 OSP      1.514200
     16 O1          4.8730   -1.0460   -6.3660 o         1 OSP     -0.577300
     17 O2          5.6730   -3.1780   -5.5890 o         1 OSP     -0.577300
     18 N1          3.3530   -3.0780   -6.6630 nz        1 OSP     -0.781500
     19 H71         3.0680    0.1600    1.4470 h1        1 OSP      0.139200
     20 H72         1.5890    0.8450    2.1620 h1        1 OSP      0.139200
     21 H81         0.6610   -1.3720    2.6230 hc        1 OSP      0.078700
     22 H82         2.3240   -1.2190    3.3110 hc        1 OSP      0.078700
     23 H91         3.2970   -2.5210    1.4530 hc        1 OSP      0.074200
     24 H92         1.9130   -3.4360    2.1780 hc        1 OSP      0.074200
     25 H101        1.7310   -3.5840   -0.2580 h1        1 OSP      0.085200
     26 H102        0.3570   -2.6140    0.4030 h1        1 OSP      0.085200
     27 H3          3.4180   -3.5580   -1.2450 ha        1 OSP      0.185500
     28 H2          4.6020   -3.8550   -3.3520 ha        1 OSP      0.167000
     29 H5          1.8330    0.2610   -2.7260 ha        1 OSP      0.185500
     30 H6          3.0450   -0.0780   -4.8040 ha        1 OSP      0.167000
     31 HN11        3.6870   -3.9900   -6.9630 hn        1 OSP      0.448800
     32 HN12        3.1460   -2.5310   -7.4950 hn        1 OSP      0.448800
     33 H13         2.4920   -3.2090   -6.1470 hn        1 OSP      0.448800
@<TRIPOS>BOND
     1    1    2 2   
     2    2    3 2   
     3    2    4 1   
     4    2    8 1   
     5    4    5 1   
     6    4   19 1   
     7    4   20 1   
     8    5    6 1   
     9    5   21 1   
    10    5   22 1   
    11    6    7 1   
    12    6   23 1   
    13    6   24 1   
    14    7    8 1   
    15    7   25 1   
    16    7   26 1   
    17    8    9 1   
    18    9   10 ar  
    19    9   12 ar  
    20   10   11 ar  
    21   10   27 1   
    22   11   14 ar  
    23   11   28 1   
    24   12   13 ar  
    25   12   29 1   
    26   13   14 ar  
    27   13   30 1   
    28   14   15 1   
    29   15   16 2   
    30   15   17 2   
    31   15   18 1   
    32   18   31 1   
    33   18   32 1   
    34   18   33 1   
@<TRIPOS>SUBSTRUCTURE
     1 OSP         1 TEMP              0 ****  ****    0 ROOT
