@<TRIPOS>MOLECULE
OSP
   33    34     1     0     0
SMALL
bcc


@<TRIPOS>ATOM
      1 O3         -0.1740   -0.0630    0.1730 o         1 OSP     -0.616800
      2 S2          1.2110    0.0160    0.0320 s6        1 OSP      1.438900
      3 O4          1.7260    1.0760   -0.7220 o         1 OSP     -0.616800
      4 C7          1.9810   -0.0260    1.5500 c3        1 OSP     -0.329600
      5 C8          1.7360   -1.2880    2.3480 c3        1 OSP     -0.057400
      6 C9          2.1500   -2.5280    1.5820 c3        1 OSP     -0.113400
      7 C10         1.4500   -2.5910    0.2240 c3        1 OSP      0.162800
      8 N2          1.7620   -1.4570   -0.6340 nh        1 OSP     -0.614900
      9 C4          2.4700   -1.6440   -1.7980 ca        1 OSP      0.341600
     10 C3          3.2650   -2.8100   -2.0350 ca        1 OSP     -0.219000
     11 C2          3.9410   -2.9840   -3.2170 ca        1 OSP      0.050500
     12 C5          2.4430   -0.6640   -2.8440 ca        1 OSP     -0.219000
     13 C6          3.1300   -0.8600   -4.0150 ca        1 OSP      0.050500
     14 C1          3.8970   -2.0290   -4.2660 ca        1 OSP     -0.641500
     15 S1          4.7340   -2.2040   -5.5860 sy        1 OSP      1.514200
     16 O1          4.9140   -1.0710   -6.3490 o         1 OSP     -0.577300
     17 O2          5.6640   -3.2230   -5.5800 o         1 OSP     -0.577300
     18 N1          3.3530   -3.0670   -6.6660 n4        1 OSP     -0.781500
     19 H71         3.0910    0.1330    1.4590 h1        1 OSP      0.139200
     20 H72         1.6230    0.8460    2.1700 h1        1 OSP      0.139200
     21 H81         2.3070   -1.2390    3.3120 hc        1 OSP      0.078700
     22 H82         0.6450   -1.3520    2.6130 hc        1 OSP      0.078700
     23 H91         3.2630   -2.5520    1.4530 hc        1 OSP      0.074200
     24 H92         1.8560   -3.4410    2.1650 hc        1 OSP      0.074200
     25 H101        1.6840   -3.5720   -0.2730 h1        1 OSP      0.085200
     26 H102        0.3270   -2.5760    0.3860 h1        1 OSP      0.085200
     27 H3          3.3770   -3.5770   -1.2500 ha        1 OSP      0.185500
     28 H2          4.5660   -3.8890   -3.3520 ha        1 OSP      0.167000
     29 H5          1.8820    0.2830   -2.7190 ha        1 OSP      0.185500
     30 H6          3.0980   -0.0710   -4.7930 ha        1 OSP      0.167000
     31 HN11        3.1610   -2.5120   -7.4950 hn        1 OSP      0.448800
     32 HN12        2.4850   -3.1830   -6.1550 hn        1 OSP      0.448800
     33 H13         3.6680   -3.9850   -6.9690 hn        1 OSP      0.448800
@<TRIPOS>BOND
     1    1    2 2   
     2    2    3 2   
     3    2    4 1   
     4    2    8 1   
     5    4    5 1   
     6    4   19 1   
     7    4   20 1   
     8    5    6 1   
     9    5   21 1   
    10    5   22 1   
    11    6    7 1   
    12    6   23 1   
    13    6   24 1   
    14    7    8 1   
    15    7   25 1   
    16    7   26 1   
    17    8    9 1   
    18    9   10 ar  
    19    9   12 ar  
    20   10   11 ar  
    21   10   27 1   
    22   11   14 ar  
    23   11   28 1   
    24   12   13 ar  
    25   12   29 1   
    26   13   14 ar  
    27   13   30 1   
    28   14   15 1   
    29   15   16 2   
    30   15   17 2   
    31   15   18 1   
    32   18   31 1   
    33   18   32 1   
    34   18   33 1   
@<TRIPOS>SUBSTRUCTURE
     1 OSP         1 TEMP              0 ****  ****    0 ROOT
