@<TRIPOS>MOLECULE
OSP
   32    33     1     0     0
SMALL
bcc


@<TRIPOS>ATOM
      1 O3          3.7570    1.3810    1.1260 o         1 OSP     -0.638800
      2 S2          2.9570    1.0040    0.0340 s6        1 OSP      1.446900
      3 O4          2.3080    2.0480   -0.6440 o         1 OSP     -0.638800
      4 C7          3.9380    0.1450   -1.0900 c3        1 OSP     -0.315600
      5 C8          4.4990   -1.1490   -0.5460 c3        1 OSP     -0.052400
      6 C9          3.4090   -2.0820   -0.0570 c3        1 OSP     -0.116400
      7 C10         2.5180   -1.3950    0.9820 c3        1 OSP      0.192800
      8 N2          1.8990   -0.1830    0.4860 nh        1 OSP     -0.668900
      9 C4          0.5090   -0.1630    0.2920 ca        1 OSP      0.229600
     10 C3         -0.2070   -1.3350   -0.0480 ca        1 OSP     -0.190000
     11 C2         -1.5850   -1.2950   -0.2050 ca        1 OSP      0.008000
     12 C5         -0.2150    1.0460    0.4320 ca        1 OSP     -0.190000
     13 C6         -1.5930    1.0580    0.2590 ca        1 OSP      0.008000
     14 C1         -2.3060   -0.1070   -0.0440 ca        1 OSP     -0.408500
     15 S1         -3.9790   -0.0740   -0.2570 sy        1 OSP      1.531200
     16 O1         -4.3500    1.2130   -0.7000 o         1 OSP     -0.658800
     17 O2         -4.3440   -1.1770   -1.0600 o         1 OSP     -0.658800
     18 N1         -4.5430   -0.2970    1.2260 n3        1 OSP     -1.027700
     19 H71         3.3750   -0.0700   -2.0370 h1        1 OSP      0.120200
     20 H72         4.7980    0.7980   -1.4010 h1        1 OSP      0.120200
     21 H81         5.0980   -1.6640   -1.3420 hc        1 OSP      0.062200
     22 H82         5.2020   -0.9170    0.3000 hc        1 OSP      0.062200
     23 H91         2.7900   -2.4380   -0.9210 hc        1 OSP      0.062200
     24 H92         3.8740   -2.9820    0.4230 hc        1 OSP      0.062200
     25 H101        1.7430   -2.1230    1.3490 h1        1 OSP      0.073200
     26 H102        3.1520   -1.1090    1.8760 h1        1 OSP      0.073200
     27 H3          0.3210   -2.2880   -0.2060 ha        1 OSP      0.152000
     28 H2         -2.1260   -2.2170   -0.4870 ha        1 OSP      0.157000
     29 H5          0.3050    1.9940    0.6480 ha        1 OSP      0.152000
     30 H6         -2.1370    2.0160    0.3500 ha        1 OSP      0.157000
     31 HN11       -4.7440   -1.1870    1.6070 hn        1 OSP      0.447300
     32 HN12       -4.7550    0.4420    1.8480 hn        1 OSP      0.447300
@<TRIPOS>BOND
     1    1    2 2   
     2    2    3 2   
     3    2    4 1   
     4    2    8 1   
     5    4    5 1   
     6    4   19 1   
     7    4   20 1   
     8    5    6 1   
     9    5   21 1   
    10    5   22 1   
    11    6    7 1   
    12    6   23 1   
    13    6   24 1   
    14    7    8 1   
    15    7   25 1   
    16    7   26 1   
    17    8    9 1   
    18    9   10 ar  
    19    9   12 ar  
    20   10   11 ar  
    21   10   27 1   
    22   11   14 ar  
    23   11   28 1   
    24   12   13 ar  
    25   12   29 1   
    26   13   14 ar  
    27   13   30 1   
    28   14   15 1   
    29   15   16 2   
    30   15   17 2   
    31   15   18 1   
    32   18   31 1   
    33   18   32 1   
@<TRIPOS>SUBSTRUCTURE
     1 OSP         1 TEMP              0 ****  ****    0 ROOT
