@<TRIPOS>MOLECULE
OSP
   32    28     1     0     0
SMALL
bcc


@<TRIPOS>ATOM
      1 O3         -2.0860   -1.3830    1.9020 o         1 OSP     -0.918000
      2 S2         -0.6860   -1.3970    1.9330 ss        1 OSP      2.802000
      3 O4         -0.2150   -2.5300    1.2540 o         1 OSP     -0.918000
      4 C7         -0.1440   -1.4440    3.5620 c2        1 OSP     -0.855000
      5 C8         -0.4740   -0.1180    4.2250 c3        1 OSP     -0.131000
      6 C9          0.0420    1.1190    3.4350 c3        1 OSP     -0.195000
      7 C10        -0.4010    1.1490    1.9450 c3        1 OSP     -0.044000
      8 N2         -0.1170   -0.0660    1.2240 n2        1 OSP     -0.765000
      9 C4          0.0520   -0.0280   -0.2040 c2        1 OSP      0.148000
     10 C3          1.3110   -0.1550   -0.7560 c1        1 OSP     -0.196000
     11 C2          1.4660   -0.1770   -2.1580 c1        1 OSP      0.004000
     12 C5         -1.0670    0.0790   -1.0370 c2        1 OSP     -0.184000
     13 C6         -0.9080    0.0570   -2.4310 c1        1 OSP      0.012000
     14 C1          0.3510   -0.0710   -2.9830 c1        1 OSP     -0.853000
     15 S1          0.5380   -0.1450   -4.7190 s4        1 OSP      2.086800
     16 O1          1.6400   -1.0680   -5.1070 o         1 OSP     -0.546400
     17 O2         -0.5980   -0.7830   -5.3350 o         1 OSP     -0.546400
     18 N1          0.7790    1.3610   -5.3270 n2        1 OSP     -0.954000
     19 H71         0.7570   -1.7670    3.7020 ha        1 OSP      0.159500
     20 H72        -0.6440   -2.1370    4.0140 ha        1 OSP      0.159500
     21 H81        -1.4760   -0.0440    4.3230 hc        1 OSP      0.101500
     22 H82        -0.0690   -0.1070    5.1210 hc        1 OSP      0.101500
     23 H91        -0.3080    1.9690    3.8960 hc        1 OSP      0.101500
     24 H92         1.0550    1.1240    3.4700 hc        1 OSP      0.101500
     25 H101        0.0640    1.9090    1.4830 h1        1 OSP      0.112500
     26 H102       -1.3230    1.3040    1.9140 h1        1 OSP      0.112500
     27 H3          2.1370   -0.2330   -0.1460 ha        1 OSP      0.141000
     28 H2          2.3480   -0.2670   -2.5490 ha        1 OSP      0.156000
     29 H5         -1.9990    0.1710   -0.6310 ha        1 OSP      0.163000
     30 H6         -1.6750    0.1300   -3.0020 ha        1 OSP      0.158000
     31 HN11        1.5950    1.7010   -5.3540 hn        1 OSP      0.242500
     32 HN12        0.0570    1.8490   -5.6650 hn        1 OSP      0.242500
@<TRIPOS>BOND
     1    1    2 1   
     2    2    3 1   
     3    4    5 1   
     4    4   19 1   
     5    4   20 1   
     6    5    6 1   
     7    5   21 1   
     8    5   22 1   
     9    6    7 1   
    10    6   23 1   
    11    6   24 1   
    12    7    8 1   
    13    7   25 1   
    14    7   26 1   
    15    8    9 1   
    16    9   10 1   
    17    9   12 1   
    18   10   27 1   
    19   11   14 1   
    20   11   28 1   
    21   12   13 1   
    22   12   29 1   
    23   13   30 1   
    24   14   15 1   
    25   15   16 1   
    26   15   17 1   
    27   18   31 1   
    28   18   32 1   
@<TRIPOS>SUBSTRUCTURE
     1 OSP         1 TEMP              0 ****  ****    0 ROOT
