@<TRIPOS>MOLECULE
OSS
   40    39     1     0     0
SMALL
bcc


@<TRIPOS>ATOM
      1 C1          1.7090   -1.2810   -4.8080 c         1 OSS      0.909600
      2 O1          0.5710   -1.3390   -5.3560 o         1 OSS     -0.848800
      3 O2          2.7990   -1.2210   -5.4450 o         1 OSS     -0.848800
      4 C2          1.7830   -1.3050   -3.2690 c3        1 OSS     -0.198400
      5 C3          0.7730   -0.3640   -2.6610 c3        1 OSS     -0.067400
      6 C4          0.6880   -0.5330   -1.1580 c3        1 OSS     -0.074400
      7 C5         -0.2780    0.4590   -0.5410 c3        1 OSS     -0.087400
      8 C6         -0.3900    0.2700    0.9530 c3        1 OSS      0.038400
      9 C7          0.8620    0.6730    1.7130 c3        1 OSS     -0.064400
     10 C8          1.5890   -0.5320    2.2590 c3        1 OSS      0.009700
     11 S9          3.0760   -0.0810    3.1070 ss        1 OSS     -0.462200
     12 C10         4.3880   -0.2950    1.8690 c3        1 OSS      0.295900
     13 N11         4.4650    0.6210    0.7970 n3        1 OSS     -0.916800
     14 S12        -1.6330    1.3230    1.7130 ss        1 OSS     -0.237100
     15 S13        -3.4530    1.0380    0.7060 ss        1 OSS     -0.151100
     16 C14        -4.2900   -0.2700    1.5300 c3        1 OSS     -0.035300
     17 C15        -4.7270    0.0980    2.9310 c3        1 OSS      0.130400
     18 O16        -5.4230   -1.0220    3.4610 oh        1 OSS     -0.604800
     19 H21         2.8180   -1.0330   -2.9430 hc        1 OSS      0.018700
     20 H22         1.5800   -2.3540   -2.9350 hc        1 OSS      0.018700
     21 H31        -0.2290   -0.5590   -3.1300 hc        1 OSS      0.049700
     22 H32         1.0520    0.6940   -2.9050 hc        1 OSS      0.049700
     23 H41         1.7060   -0.3930   -0.7070 hc        1 OSS      0.021700
     24 H42         0.3610   -1.5790   -0.9160 hc        1 OSS      0.021700
     25 H51        -1.2920    0.3260   -1.0070 hc        1 OSS      0.059200
     26 H52         0.0590    1.5040   -0.7710 hc        1 OSS      0.059200
     27 H6         -0.6590   -0.7960    1.1690 h1        1 OSS      0.069700
     28 H71         0.5970    1.3610    2.5670 hc        1 OSS      0.065200
     29 H72         1.5440    1.2520    1.0330 hc        1 OSS      0.065200
     30 H81         1.8190   -1.2490    1.4310 h1        1 OSS      0.074700
     31 H82         0.9530   -1.0600    3.0120 h1        1 OSS      0.074700
     32 H101        4.3170   -1.3390    1.4660 h2        1 OSS      0.077700
     33 H102        5.3060   -0.2010    2.5110 h2        1 OSS      0.077700
     34 HN11        3.7750    0.4680    0.0890 hn        1 OSS      0.378800
     35 HN12        4.4710    1.5750    1.0900 hn        1 OSS      0.378800
     36 H141       -5.1880   -0.4670    0.8860 h1        1 OSS      0.091200
     37 H142       -3.6840   -1.2070    1.5580 h1        1 OSS      0.091200
     38 H151       -3.8330    0.3330    3.5710 h1        1 OSS      0.035200
     39 H152       -5.4090    0.9910    2.9130 h1        1 OSS      0.035200
     40 HO6        -5.6140   -0.8140    4.3820 ho        1 OSS      0.397000
@<TRIPOS>BOND
     1    1    2 1   
     2    1    3 1   
     3    1    4 1   
     4    4    5 1   
     5    4   19 1   
     6    4   20 1   
     7    5    6 1   
     8    5   21 1   
     9    5   22 1   
    10    6    7 1   
    11    6   23 1   
    12    6   24 1   
    13    7    8 1   
    14    7   25 1   
    15    7   26 1   
    16    8    9 1   
    17    8   14 1   
    18    8   27 1   
    19    9   10 1   
    20    9   28 1   
    21    9   29 1   
    22   10   11 1   
    23   10   30 1   
    24   10   31 1   
    25   11   12 1   
    26   12   13 1   
    27   12   32 1   
    28   12   33 1   
    29   13   34 1   
    30   13   35 1   
    31   14   15 1   
    32   15   16 1   
    33   16   17 1   
    34   16   36 1   
    35   16   37 1   
    36   17   18 1   
    37   17   38 1   
    38   17   39 1   
    39   18   40 1   
@<TRIPOS>SUBSTRUCTURE
     1 OSS         1 TEMP              0 ****  ****    0 ROOT
