@<TRIPOS>MOLECULE
OSS
   41    40     1     0     0
SMALL
bcc


@<TRIPOS>ATOM
      1 C1         -1.4860   -1.2100   -4.1550 c         1 OSS      0.642100
      2 O1         -2.0280   -0.3920   -5.0970 oh        1 OSS     -0.611100
      3 O2         -1.0450   -2.2960   -4.5480 o         1 OSS     -0.565000
      4 C2         -1.4860   -0.6590   -2.7630 c3        1 OSS     -0.126400
      5 C3         -2.8860   -0.5550   -2.1910 c3        1 OSS     -0.077400
      6 C4         -3.5810    0.7200   -2.6230 c3        1 OSS     -0.085400
      7 C5         -5.0350    0.7580   -2.1920 c3        1 OSS     -0.082400
      8 C6         -5.9960    0.3870   -3.2980 c3        1 OSS      0.029400
      9 C7         -6.1020   -1.1050   -3.5640 c3        1 OSS     -0.061400
     10 C8         -5.3660   -1.4930   -4.8230 c3        1 OSS     -0.006300
     11 S9         -5.3430   -3.2620   -4.8800 ss        1 OSS     -0.326200
     12 C10        -4.5000   -3.6470   -6.4070 c3        1 OSS      0.248900
     13 N11        -3.1970   -3.0640   -6.5180 n3        1 OSS     -0.943800
     14 S12        -7.6940    0.8060   -2.8890 ss        1 OSS     -0.201100
     15 S13        -7.7300    2.8260   -2.3210 ss        1 OSS     -0.163100
     16 C14        -8.0450    3.7700   -3.7720 c3        1 OSS     -0.069300
     17 C15        -9.4160    3.5340   -4.3690 c3        1 OSS      0.127400
     18 O16        -9.6000    4.2910   -5.5490 oh        1 OSS     -0.592800
     19 H21        -0.9950    0.3500   -2.7780 hc        1 OSS      0.079200
     20 H22        -0.8640   -1.3470   -2.1290 hc        1 OSS      0.079200
     21 H31        -2.8170   -0.5800   -1.0710 hc        1 OSS      0.056200
     22 H32        -3.4920   -1.4450   -2.5080 hc        1 OSS      0.056200
     23 H41        -3.0440    1.5970   -2.1720 hc        1 OSS      0.053200
     24 H42        -3.4990    0.8260   -3.7390 hc        1 OSS      0.053200
     25 H51        -5.1930    0.0850   -1.3080 hc        1 OSS      0.060200
     26 H52        -5.2840    1.8050   -1.8560 hc        1 OSS      0.060200
     27 H6         -5.7140    0.9330   -4.2350 h1        1 OSS      0.075700
     28 H71        -7.1870   -1.4010   -3.6650 hc        1 OSS      0.072700
     29 H72        -5.6920   -1.6790   -2.6890 hc        1 OSS      0.072700
     30 H81        -4.3200   -1.0920   -4.8090 h1        1 OSS      0.072200
     31 H82        -5.8760   -1.0810   -5.7270 h1        1 OSS      0.072200
     32 H101       -5.1200   -3.2940   -7.2730 h2        1 OSS      0.057200
     33 H102       -4.5090   -4.7750   -6.4040 h2        1 OSS      0.057200
     34 HN11       -2.0240   -0.8330   -5.9640 ho        1 OSS      0.456000
     35 HN12       -2.7680   -3.3040   -7.3890 hn        1 OSS      0.371300
     36 H141       -7.2630    3.6020   -4.5530 h1        1 OSS      0.083200
     37 H142       -7.9520    4.8300   -3.4170 h1        1 OSS      0.083200
     38 H151      -10.2170    3.7760   -3.6190 h1        1 OSS      0.061700
     39 H152       -9.5290    2.4650   -4.7020 h1        1 OSS      0.061700
     40 HO6        -9.5690    5.2220   -5.3010 ho        1 OSS      0.396000
     41 H113       -2.5980   -3.3360   -5.7600 hn        1 OSS      0.371300
@<TRIPOS>BOND
     1    1    2 1   
     2    1    3 2   
     3    1    4 1   
     4    2   34 1   
     5    4    5 1   
     6    4   19 1   
     7    4   20 1   
     8    5    6 1   
     9    5   21 1   
    10    5   22 1   
    11    6    7 1   
    12    6   23 1   
    13    6   24 1   
    14    7    8 1   
    15    7   25 1   
    16    7   26 1   
    17    8    9 1   
    18    8   14 1   
    19    8   27 1   
    20    9   10 1   
    21    9   28 1   
    22    9   29 1   
    23   10   11 1   
    24   10   30 1   
    25   10   31 1   
    26   11   12 1   
    27   12   13 1   
    28   12   32 1   
    29   12   33 1   
    30   13   35 1   
    31   13   41 1   
    32   14   15 1   
    33   15   16 1   
    34   16   17 1   
    35   16   36 1   
    36   16   37 1   
    37   17   18 1   
    38   17   38 1   
    39   17   39 1   
    40   18   40 1   
@<TRIPOS>SUBSTRUCTURE
     1 OSS         1 TEMP              0 ****  ****    0 ROOT
