@<TRIPOS>MOLECULE
OSS
   40    38     1     0     0
SMALL
bcc


@<TRIPOS>ATOM
      1 C1          3.1790    2.4810    4.9070 c1        1 OSS      0.316000
      2 O1          2.8390    2.0920    6.0740 o         1 OSS     -0.601000
      3 O2          4.3340    2.9630    4.7120 os        1 OSS     -0.586000
      4 C2          2.1420    2.4560    3.7480 c3        1 OSS     -0.208000
      5 C3          2.3140    1.1810    2.9430 c3        1 OSS     -0.139000
      6 C4          1.2900    1.1600    1.7790 c3        1 OSS     -0.143000
      7 C5          1.4960   -0.0930    0.9460 c3        1 OSS     -0.175000
      8 C6          0.4440   -0.1390   -0.1770 c3        1 OSS     -0.180000
      9 C7          1.1100    0.1080   -1.4930 c3        1 OSS     -0.147000
     10 C8          0.0240    0.2510   -2.6130 c3        1 OSS     -0.248000
     11 S9          0.7810    0.9840   -4.0950 ss        1 OSS     -0.107000
     12 C10        -0.3730    0.9240   -5.4390 c3        1 OSS     -0.126000
     13 N11         0.1620    1.6530   -6.5690 n3        1 OSS     -0.351000
     14 S12        -0.3270   -1.7230   -0.1980 ss        1 OSS     -0.102000
     15 S13        -2.1590   -1.5950    0.6850 ss        1 OSS     -0.005000
     16 C14        -2.9060   -3.2120    0.7450 c3        1 OSS     -0.326000
     17 C15        -4.2820   -3.1070    1.3260 c3        1 OSS      0.016000
     18 O16        -4.8720   -4.3690    1.3500 oh        1 OSS     -0.363000
     19 H21         2.2840    3.2340    3.1640 hc        1 OSS      0.069500
     20 H22         1.2390    2.4880    4.1180 hc        1 OSS      0.069500
     21 H31         3.2300    1.1470    2.5760 hc        1 OSS      0.069000
     22 H32         2.1640    0.3990    3.5290 hc        1 OSS      0.069000
     23 H41         0.3780    1.1640    2.1450 hc        1 OSS      0.063000
     24 H42         1.4210    1.9610    1.2080 hc        1 OSS      0.063000
     25 H51         1.4000   -0.8850    1.5180 hc        1 OSS      0.117500
     26 H52         2.3950   -0.0810    0.5530 hc        1 OSS      0.117500
     27 H6         -0.2430    0.5610   -0.0160 h1        1 OSS      0.126000
     28 H71         1.7000   -0.6450   -1.7060 hc        1 OSS      0.097500
     29 H72         1.6400    0.9350   -1.4410 hc        1 OSS      0.097500
     30 H81        -0.3420   -0.6460   -2.8370 h1        1 OSS      0.114000
     31 H82        -0.7050    0.8340   -2.2920 h1        1 OSS      0.114000
     32 H101       -1.2200    1.3310   -5.1600 h2        1 OSS      0.110000
     33 H102       -0.5290   -0.0170   -5.6980 h2        1 OSS      0.110000
     34 HN11        0.5400    1.0620   -7.1640 hn        1 OSS      0.175500
     35 HN12       -0.5000    2.1040   -6.9760 hn        1 OSS      0.175500
     36 H141       -2.9630   -3.5840   -0.1700 h1        1 OSS      0.143500
     37 H142       -2.3550   -3.8090    1.3090 h1        1 OSS      0.143500
     38 H151       -4.2270   -2.7540    2.2400 h1        1 OSS      0.083000
     39 H152       -4.8220   -2.5050    0.7760 h1        1 OSS      0.083000
     40 HO6        -5.6780   -4.3090    1.6910 ho        1 OSS      0.266000
@<TRIPOS>BOND
     1    1    2 1   
     2    1    4 1   
     3    4    5 1   
     4    4   19 1   
     5    4   20 1   
     6    5    6 1   
     7    5   21 1   
     8    5   22 1   
     9    6    7 1   
    10    6   23 1   
    11    6   24 1   
    12    7    8 1   
    13    7   25 1   
    14    7   26 1   
    15    8    9 1   
    16    8   14 1   
    17    8   27 1   
    18    9   10 1   
    19    9   28 1   
    20    9   29 1   
    21   10   11 1   
    22   10   30 1   
    23   10   31 1   
    24   11   12 1   
    25   12   13 1   
    26   12   32 1   
    27   12   33 1   
    28   13   34 1   
    29   13   35 1   
    30   14   15 1   
    31   15   16 1   
    32   16   17 1   
    33   16   36 1   
    34   16   37 1   
    35   17   18 1   
    36   17   38 1   
    37   17   39 1   
    38   18   40 1   
@<TRIPOS>SUBSTRUCTURE
     1 OSS         1 TEMP              0 ****  ****    0 ROOT
