@<TRIPOS>MOLECULE
OSS
   41    40     1     0     0
SMALL
bcc


@<TRIPOS>ATOM
      1 C1         -1.5190   -1.3010   -4.1810 c         1 OSS      0.642100
      2 O1         -2.0580   -0.4960   -5.1370 oh        1 OSS     -0.611100
      3 O2         -1.1130   -2.4080   -4.5500 o         1 OSS     -0.565000
      4 C2         -1.4810   -0.7110   -2.8060 c3        1 OSS     -0.126400
      5 C3         -2.8680   -0.5560   -2.2120 c3        1 OSS     -0.077400
      6 C4         -3.5390    0.7230   -2.6690 c3        1 OSS     -0.085400
      7 C5         -4.9840    0.8090   -2.2140 c3        1 OSS     -0.082400
      8 C6         -5.9730    0.4310   -3.2920 c3        1 OSS      0.029400
      9 C7         -6.1200   -1.0640   -3.5140 c3        1 OSS     -0.061400
     10 C8         -5.4170   -1.5060   -4.7740 c3        1 OSS     -0.006300
     11 S9         -5.4380   -3.2760   -4.7820 ss        1 OSS     -0.326200
     12 C10        -4.6320   -3.7240   -6.3110 c3        1 OSS      0.248900
     13 N11        -3.3180   -3.1770   -6.4610 n3        1 OSS     -0.943800
     14 S12        -7.6530    0.9040   -2.8660 ss        1 OSS     -0.201100
     15 S13        -7.6300    2.9390   -2.3540 ss        1 OSS     -0.163100
     16 C14        -7.9470    3.8490   -3.8260 c3        1 OSS     -0.069300
     17 C15        -9.3350    3.6310   -4.3920 c3        1 OSS      0.127400
     18 O16        -9.5220    4.3590   -5.5900 oh        1 OSS     -0.592800
     19 H21        -0.8650   -1.3960   -2.1630 hc        1 OSS      0.079200
     20 H22        -0.9670    0.2850   -2.8580 hc        1 OSS      0.079200
     21 H31        -3.5010   -1.4390   -2.4940 hc        1 OSS      0.056200
     22 H32        -2.7790   -0.5510   -1.0940 hc        1 OSS      0.056200
     23 H41        -2.9730    1.5980   -2.2530 hc        1 OSS      0.053200
     24 H42        -3.4750    0.7950   -3.7890 hc        1 OSS      0.053200
     25 H51        -5.1430    0.1650   -1.3080 hc        1 OSS      0.060200
     26 H52        -5.2010    1.8710   -1.9030 hc        1 OSS      0.060200
     27 H6         -5.6960    0.9430   -4.2500 h1        1 OSS      0.075700
     28 H71        -7.2140   -1.3360   -3.5880 hc        1 OSS      0.072700
     29 H72        -5.7080   -1.6240   -2.6310 hc        1 OSS      0.072700
     30 H81        -5.9330   -1.1060   -5.6800 h1        1 OSS      0.072200
     31 H82        -4.3620   -1.1310   -4.7900 h1        1 OSS      0.072200
     32 H101       -4.6690   -4.8510   -6.2760 h2        1 OSS      0.057200
     33 H102       -5.2590   -3.3800   -7.1760 h2        1 OSS      0.057200
     34 HN11       -2.0810   -0.9610   -5.9900 ho        1 OSS      0.456000
     35 HN12       -2.7120   -3.4430   -5.7060 hn        1 OSS      0.371300
     36 H141       -7.8220    4.9160   -3.5030 h1        1 OSS      0.083200
     37 H142       -7.1850    3.6400   -4.6150 h1        1 OSS      0.083200
     38 H151       -9.4800    2.5560   -4.6930 h1        1 OSS      0.061700
     39 H152      -10.1160    3.9130   -3.6350 h1        1 OSS      0.061700
     40 HO6        -9.4630    5.2960   -5.3680 ho        1 OSS      0.396000
     41 H113       -2.9100   -3.4510   -7.3330 hn        1 OSS      0.371300
@<TRIPOS>BOND
     1    1    2 1   
     2    1    3 2   
     3    1    4 1   
     4    2   34 1   
     5    4    5 1   
     6    4   19 1   
     7    4   20 1   
     8    5    6 1   
     9    5   21 1   
    10    5   22 1   
    11    6    7 1   
    12    6   23 1   
    13    6   24 1   
    14    7    8 1   
    15    7   25 1   
    16    7   26 1   
    17    8    9 1   
    18    8   14 1   
    19    8   27 1   
    20    9   10 1   
    21    9   28 1   
    22    9   29 1   
    23   10   11 1   
    24   10   30 1   
    25   10   31 1   
    26   11   12 1   
    27   12   13 1   
    28   12   32 1   
    29   12   33 1   
    30   13   35 1   
    31   13   41 1   
    32   14   15 1   
    33   15   16 1   
    34   16   17 1   
    35   16   36 1   
    36   16   37 1   
    37   17   18 1   
    38   17   38 1   
    39   17   39 1   
    40   18   40 1   
@<TRIPOS>SUBSTRUCTURE
     1 OSS         1 TEMP              0 ****  ****    0 ROOT
