@<TRIPOS>MOLECULE
OSS
   41    40     1     0     0
SMALL
bcc


@<TRIPOS>ATOM
      1 C1         -1.5020   -1.2440   -4.2650 c         1 OSS      0.642100
      2 O1         -2.0730   -0.4380   -5.2020 oh        1 OSS     -0.611100
      3 O2         -1.0860   -2.3400   -4.6530 o         1 OSS     -0.565000
      4 C2         -1.4450   -0.6650   -2.8860 c3        1 OSS     -0.126400
      5 C3         -2.8220   -0.5380   -2.2630 c3        1 OSS     -0.077400
      6 C4         -3.5230    0.7340   -2.6940 c3        1 OSS     -0.085400
      7 C5         -4.9600    0.7930   -2.2080 c3        1 OSS     -0.082400
      8 C6         -5.9650    0.4080   -3.2700 c3        1 OSS      0.029400
      9 C7         -6.0920   -1.0870   -3.5030 c3        1 OSS     -0.061400
     10 C8         -5.4080   -1.5050   -4.7810 c3        1 OSS     -0.006300
     11 S9         -5.4010   -3.2760   -4.8050 ss        1 OSS     -0.326200
     12 C10        -4.6190   -3.6970   -6.3540 c3        1 OSS      0.248900
     13 N11        -3.3180   -3.1270   -6.5250 n8        1 OSS     -0.943800
     14 S12        -7.6420    0.8500   -2.8050 ss        1 OSS     -0.201100
     15 S13        -7.6410    2.8810   -2.2730 ss        1 OSS     -0.163100
     16 C14        -8.0030    3.8000   -3.7290 c3        1 OSS     -0.069300
     17 C15        -9.3990    3.5660   -4.2680 c3        1 OSS      0.127400
     18 O16        -9.6230    4.3030   -5.4540 oh        1 OSS     -0.592800
     19 H21        -0.9480    0.3390   -2.9390 hc        1 OSS      0.079200
     20 H22        -0.8060   -1.3460   -2.2620 hc        1 OSS      0.079200
     21 H31        -3.4470   -1.4290   -2.5390 hc        1 OSS      0.056200
     22 H32        -2.7110   -0.5420   -1.1460 hc        1 OSS      0.056200
     23 H41        -2.9620    1.6140   -2.2810 hc        1 OSS      0.053200
     24 H42        -3.4830    0.8170   -3.8140 hc        1 OSS      0.053200
     25 H51        -5.1870    1.8480   -1.8830 hc        1 OSS      0.060200
     26 H52        -5.0890    0.1380   -1.3060 hc        1 OSS      0.060200
     27 H6         -5.7150    0.9340   -4.2280 h1        1 OSS      0.075700
     28 H71        -7.1830   -1.3750   -3.5570 hc        1 OSS      0.072700
     29 H72        -5.6540   -1.6480   -2.6330 hc        1 OSS      0.072700
     30 H81        -4.3590   -1.1130   -4.8140 h1        1 OSS      0.072200
     31 H82        -5.9490   -1.1060   -5.6720 h1        1 OSS      0.072200
     32 H101       -5.2690   -3.3550   -7.2040 h2        1 OSS      0.057200
     33 H102       -4.6380   -4.8240   -6.3290 h2        1 OSS      0.057200
     34 HN11       -2.1060   -0.8960   -6.0600 ho        1 OSS      0.456000
     35 HN12       -2.9240   -3.3870   -7.4080 hn        1 OSS      0.371300
     36 H141       -7.8870    4.8650   -3.3980 h1        1 OSS      0.083200
     37 H142       -7.2550    3.6100   -4.5360 h1        1 OSS      0.083200
     38 H151       -9.5340    2.4920   -4.5760 h1        1 OSS      0.061700
     39 H152      -10.1680    3.8290   -3.4920 h1        1 OSS      0.061700
     40 HO6        -9.5730    5.2390   -5.2240 ho        1 OSS      0.396000
     41 H113       -2.6920   -3.3900   -5.7850 hn        1 OSS      0.371300
@<TRIPOS>BOND
     1    1    2 1   
     2    1    3 2   
     3    1    4 1   
     4    2   34 1   
     5    4    5 1   
     6    4   19 1   
     7    4   20 1   
     8    5    6 1   
     9    5   21 1   
    10    5   22 1   
    11    6    7 1   
    12    6   23 1   
    13    6   24 1   
    14    7    8 1   
    15    7   25 1   
    16    7   26 1   
    17    8    9 1   
    18    8   14 1   
    19    8   27 1   
    20    9   10 1   
    21    9   28 1   
    22    9   29 1   
    23   10   11 1   
    24   10   30 1   
    25   10   31 1   
    26   11   12 1   
    27   12   13 1   
    28   12   32 1   
    29   12   33 1   
    30   13   35 1   
    31   13   41 1   
    32   14   15 1   
    33   15   16 1   
    34   16   17 1   
    35   16   36 1   
    36   16   37 1   
    37   17   18 1   
    38   17   38 1   
    39   17   39 1   
    40   18   40 1   
@<TRIPOS>SUBSTRUCTURE
     1 OSS         1 TEMP              0 ****  ****    0 ROOT
