@<TRIPOS>MOLECULE
OST
   40    35     1     0     0
SMALL
bcc


@<TRIPOS>ATOM
      1 C5          0.1110   -0.9400    4.4370 c3        1 OST     -0.065000
      2 O1          0.0900   -0.6480    3.0560 os        1 OST     -0.261000
      3 C1          0.4780   -1.7530    2.2220 c2        1 OST      0.365000
      4 O3          1.2390   -2.6360    2.6710 o         1 OST     -0.355000
      5 C2         -0.0500   -1.8560    0.7960 c2        1 OST     -0.148000
      6 C3         -1.2720   -2.3740    0.5650 c1        1 OST      0.036000
      7 O2         -2.0730   -2.8260    1.6510 o         1 OST     -0.203000
      8 C4         -3.4870   -2.7990    1.3790 c3        1 OST     -0.079000
      9 C6          0.8070   -1.3750   -0.3690 c2        1 OST     -0.031000
     10 C11         2.0990   -1.8690   -0.5270 c1        1 OST     -0.107000
     11 C7          0.2540   -0.5450   -1.3440 c2        1 OST     -0.031000
     12 C8          0.9940   -0.2130   -2.4700 c1        1 OST     -0.121000
     13 C9          2.2890   -0.7090   -2.6250 c1        1 OST     -0.129000
     14 C10         2.8380   -1.5350   -1.6540 c1        1 OST     -0.129000
     15 C12        -1.1950   -0.1400   -1.2530 c2        1 OST     -0.117000
     16 C13        -1.5290    1.1790   -1.1470 c1        1 OST     -0.110000
     17 C14        -0.4460    2.2370   -1.1220 c1        1 OST     -0.053000
     18 C15        -0.2670    3.0190    0.0250 c2        1 OST     -0.109000
     19 C16         0.5740    4.1170   -0.0120 c1        1 OST     -0.132000
     20 C19         0.2180    2.5650   -2.2900 c1        1 OST     -0.122000
     21 C18         1.0690    3.6780   -2.3240 c1        1 OST     -0.129000
     22 C17         1.2440    4.4470   -1.1960 c1        1 OST     -0.129000
     23 H51        -0.6020   -1.5760    4.6470 h1        1 OST      0.088000
     24 H52        -0.0270   -0.1080    4.9510 h1        1 OST      0.088000
     25 H53         0.9650   -1.3240    4.6710 h1        1 OST      0.088000
     26 H3         -1.6130   -2.4390   -0.3610 ha        1 OST      0.147000
     27 H41        -3.9700   -3.3050    2.0840 h1        1 OST      0.087333
     28 H42        -3.6600   -3.2100    0.5060 h1        1 OST      0.087333
     29 H43        -3.8030   -1.8610    1.3710 h1        1 OST      0.087333
     30 H11         2.4890   -2.4530    0.1600 ha        1 OST      0.155000
     31 H8          0.6100    0.3650   -3.1500 ha        1 OST      0.144000
     32 H9          2.8040   -0.4770   -3.4100 ha        1 OST      0.132750
     33 H10         3.7380   -1.8790   -1.7630 ha        1 OST      0.132750
     34 H12        -1.8880   -0.8150   -1.2700 ha        1 OST      0.122000
     35 H13        -2.4680    1.4400   -1.0880 ha        1 OST      0.126000
     36 H15        -0.7480    2.7850    0.8730 ha        1 OST      0.145000
     37 H16         0.7000    4.6660    0.7920 ha        1 OST      0.133000
     38 H19         0.0940    2.0160   -3.0990 ha        1 OST      0.131000
     39 H18         1.5420    3.9130   -3.1590 ha        1 OST      0.132750
     40 H17         1.8490    5.2370   -1.2230 ha        1 OST      0.132750
@<TRIPOS>BOND
     1    1    2 1   
     2    1   23 1   
     3    1   24 1   
     4    1   25 1   
     5    2    3 1   
     6    3    4 1   
     7    3    5 1   
     8    5    6 1   
     9    5    9 1   
    10    6   26 1   
    11    7    8 1   
    12    8   27 1   
    13    8   28 1   
    14    8   29 1   
    15    9   10 1   
    16    9   11 1   
    17   10   30 1   
    18   11   12 1   
    19   11   15 1   
    20   12   31 1   
    21   13   14 1   
    22   13   32 1   
    23   14   33 1   
    24   15   16 1   
    25   15   34 1   
    26   16   35 1   
    27   17   18 1   
    28   17   20 1   
    29   18   19 1   
    30   18   36 1   
    31   19   37 1   
    32   20   38 1   
    33   21   22 1   
    34   21   39 1   
    35   22   40 1   
@<TRIPOS>SUBSTRUCTURE
     1 OST         1 TEMP              0 ****  ****    0 ROOT
