@<TRIPOS>MOLECULE
OST
   40    41     1     0     0
SMALL
bcc


@<TRIPOS>ATOM
      1 C5          1.1800    2.5380    3.0480 c3        1 OST      0.125700
      2 O1          1.4160    1.4890    2.1070 os        1 OST     -0.416900
      3 C1          1.6470    1.8730    0.8150 c         1 OST      0.646300
      4 O3          1.6200    3.0860    0.5640 o         1 OST     -0.573000
      5 C2          1.9040    0.7780   -0.1300 ce        1 OST     -0.182400
      6 C3          2.1680    1.1400   -1.4130 c2        1 OST      0.109100
      7 O2          2.4370    0.1800   -2.3520 os        1 OST     -0.309900
      8 C4          2.6380    0.6950   -3.6710 c3        1 OST      0.106700
      9 C6          1.8830   -0.6070    0.3390 ca        1 OST     -0.009800
     10 C11         3.0960   -1.2640    0.5820 ca        1 OST     -0.106000
     11 C7          0.6670   -1.2960    0.5320 ca        1 OST     -0.031800
     12 C8          0.7010   -2.6290    0.9680 ca        1 OST     -0.123000
     13 C9          1.9120   -3.2700    1.2080 ca        1 OST     -0.126000
     14 C10         3.1120   -2.5870    1.0150 ca        1 OST     -0.131000
     15 C12        -0.6020   -0.6210    0.3050 ce        1 OST     -0.096200
     16 C13        -1.7100   -1.2340   -0.1420 cf        1 OST     -0.111200
     17 C14        -2.9890   -0.5850   -0.3680 ca        1 OST     -0.052800
     18 C15        -4.1370   -1.3830   -0.5230 ca        1 OST     -0.120000
     19 C16        -5.3810   -0.7980   -0.7410 ca        1 OST     -0.131000
     20 C19        -3.1210    0.8090   -0.4470 ca        1 OST     -0.120000
     21 C18        -4.3680    1.3900   -0.6670 ca        1 OST     -0.131000
     22 C17        -5.5010    0.5900   -0.8120 ca        1 OST     -0.128000
     23 H51         1.0250    1.9920    4.0110 h1        1 OST      0.051033
     24 H52         2.0660    3.2140    3.0970 h1        1 OST      0.051033
     25 H53         0.2720    3.1180    2.7540 h1        1 OST      0.051033
     26 H3          2.1780    2.1960   -1.7370 h4        1 OST      0.160000
     27 H41         3.5120    1.3900   -3.6880 h1        1 OST      0.051700
     28 H42         2.8440   -0.2200   -4.2800 h1        1 OST      0.051700
     29 H43         1.7170    1.2130   -4.0300 h1        1 OST      0.051700
     30 H11         4.0430   -0.7260    0.4260 ha        1 OST      0.133000
     31 H8         -0.2450   -3.1680    1.1310 ha        1 OST      0.133000
     32 H9          1.9210   -4.3150    1.5520 ha        1 OST      0.130000
     33 H10         4.0710   -3.0910    1.2050 ha        1 OST      0.131000
     34 H12        -0.5920    0.4600    0.5340 ha        1 OST      0.132000
     35 H13        -1.6920   -2.3170   -0.3650 ha        1 OST      0.126000
     36 H15        -4.0480   -2.4780   -0.4680 ha        1 OST      0.132500
     37 H16        -6.2710   -1.4330   -0.8560 ha        1 OST      0.131000
     38 H19        -2.2350    1.4520   -0.3400 ha        1 OST      0.132500
     39 H18        -4.4570    2.4850   -0.7260 ha        1 OST      0.131000
     40 H17        -6.4840    1.0510   -0.9850 ha        1 OST      0.131000
@<TRIPOS>BOND
     1    1    2 1   
     2    1   23 1   
     3    1   24 1   
     4    1   25 1   
     5    2    3 1   
     6    3    4 2   
     7    3    5 1   
     8    5    6 2   
     9    5    9 1   
    10    6    7 1   
    11    6   26 1   
    12    7    8 1   
    13    8   27 1   
    14    8   28 1   
    15    8   29 1   
    16    9   10 ar  
    17    9   11 ar  
    18   10   14 ar  
    19   10   30 1   
    20   11   12 ar  
    21   11   15 1   
    22   12   13 ar  
    23   12   31 1   
    24   13   14 ar  
    25   13   32 1   
    26   14   33 1   
    27   15   16 2   
    28   15   34 1   
    29   16   17 1   
    30   16   35 1   
    31   17   18 ar  
    32   17   20 ar  
    33   18   19 ar  
    34   18   36 1   
    35   19   22 ar  
    36   19   37 1   
    37   20   21 ar  
    38   20   38 1   
    39   21   22 ar  
    40   21   39 1   
    41   22   40 1   
@<TRIPOS>SUBSTRUCTURE
     1 OST         1 TEMP              0 ****  ****    0 ROOT
