@<TRIPOS>MOLECULE
OSU
   68    69     1     0     0
SMALL
bcc


@<TRIPOS>ATOM
      1 C1         -0.8760   -0.8590   -2.7410 c3        1 OSU      0.320900
      2 C2         -1.8020   -0.9600   -3.9700 c3        1 OSU      0.089100
      3 C3         -1.9180    0.4170   -4.6400 c3        1 OSU      0.076100
      4 C4         -2.3960    1.4450   -3.6030 c3        1 OSU      0.126100
      5 C5         -1.4320    1.4520   -2.4050 c3        1 OSU      0.104100
      6 C6         -1.9830    2.3470   -1.2900 c3        1 OSU      0.142400
      7 O1          0.4000   -0.4290   -3.1930 os        1 OSU     -0.446600
      8 O2         -1.3680   -1.9250   -4.9020 oh        1 OSU     -0.592800
      9 O3         -2.8810    0.4040   -5.6810 oh        1 OSU     -0.611800
     10 O4         -2.3910    2.7530   -4.1470 oh        1 OSU     -0.596800
     11 O5         -1.3110    0.1380   -1.8430 os        1 OSU     -0.433600
     12 O6         -1.1060    2.4020   -0.1880 oh        1 OSU     -0.609800
     13 C1'         1.8630   -2.3530   -3.5560 c3        1 OSU      0.115400
     14 C2'         1.5510   -1.1000   -2.7180 c3        1 OSU      0.315600
     15 C3'         2.7360   -0.0970   -2.7090 c3        1 OSU      0.134100
     16 C4'         2.8450    0.3500   -1.2320 c3        1 OSU      0.078100
     17 C5'         1.9740   -0.6420   -0.4350 c3        1 OSU      0.115100
     18 C6'         0.9090    0.0450    0.4150 c3        1 OSU      0.106400
     19 O1'         0.8120   -3.2900   -3.5020 oh        1 OSU     -0.591800
     20 O2'         1.3050   -1.5010   -1.3780 os        1 OSU     -0.441600
     21 O3'         2.4400    0.9780   -3.5690 oh        1 OSU     -0.559800
     22 O4'         4.2100    0.2550   -0.8720 oh        1 OSU     -0.594800
     23 O6'         1.0700   -0.4630    1.7490 os        1 OSU     -0.451900
     24 C1N         0.0210   -0.2700    2.6080 c         1 OSU      0.640100
     25 C2N         0.2620   -0.8720    3.9570 c3        1 OSU     -0.126400
     26 C3N        -0.2850    0.0180    5.0530 c3        1 OSU     -0.080400
     27 C4N        -0.1630   -0.6570    6.4020 c3        1 OSU     -0.078400
     28 C5N        -0.6900    0.2340    7.5060 c3        1 OSU     -0.079400
     29 C6N        -0.5750   -0.4390    8.8570 c3        1 OSU     -0.079400
     30 C7N        -1.1010    0.4520    9.9620 c3        1 OSU     -0.080400
     31 C8N        -0.9890   -0.2150   11.3090 c3        1 OSU     -0.093100
     32 O1N        -0.9670    0.3390    2.1920 o         1 OSU     -0.545000
     33 H1         -0.8450   -1.8150   -2.1520 h2        1 OSU      0.104700
     34 H2         -2.8190   -1.3110   -3.6350 h1        1 OSU      0.093700
     35 H3         -0.9190    0.7240   -5.0590 h1        1 OSU      0.072700
     36 H4         -3.4380    1.1810   -3.2690 h1        1 OSU      0.052700
     37 H5         -0.4150    1.8050   -2.7300 h1        1 OSU      0.089700
     38 H61        -2.0450    3.3970   -1.6840 h1        1 OSU      0.059700
     39 H62        -2.9990    1.9910   -0.9770 h1        1 OSU      0.059700
     40 HO2        -0.4000   -1.9090   -4.9160 ho        1 OSU      0.424000
     41 HO3        -2.7010   -0.3830   -6.2130 ho        1 OSU      0.424000
     42 HO4        -2.8680    2.7000   -4.9870 ho        1 OSU      0.423000
     43 HO6        -1.2260    1.5840    0.3160 ho        1 OSU      0.423000
     44 H1'1        1.9440   -2.0610   -4.6370 h1        1 OSU      0.067700
     45 H1'2        2.8220   -2.8080   -3.1960 h1        1 OSU      0.067700
     46 H3'         3.6820   -0.6130   -3.0290 h1        1 OSU      0.072700
     47 H4'         2.4840    1.4070   -1.1150 h1        1 OSU      0.078700
     48 H5'         2.6110   -1.3230    0.1960 h1        1 OSU      0.093700
     49 H6'1       -0.1190   -0.2030    0.0280 h1        1 OSU      0.087200
     50 H6'2        1.0340    1.1590    0.4500 h1        1 OSU      0.087200
     51 H1'         0.7210   -3.5670   -2.5800 ho        1 OSU      0.417000
     52 H6          3.2070    1.5670   -3.5380 ho        1 OSU      0.412000
     53 H7          4.2790    0.5340    0.0500 ho        1 OSU      0.416000
     54 H2N1        1.3600   -1.0480    4.1020 hc        1 OSU      0.078700
     55 H2N2       -0.2520   -1.8710    3.9730 hc        1 OSU      0.078700
     56 H3N1       -1.3600    0.2580    4.8380 hc        1 OSU      0.059200
     57 H3N2        0.2760    0.9900    5.0640 hc        1 OSU      0.059200
     58 H4N1        0.9110   -0.9100    6.6030 hc        1 OSU      0.040700
     59 H4N2       -0.7350   -1.6230    6.3940 hc        1 OSU      0.040700
     60 H5N1       -1.7640    0.4900    7.3030 hc        1 OSU      0.043200
     61 H5N2       -0.1170    1.1990    7.5160 hc        1 OSU      0.043200
     62 H6N1        0.4980   -0.6960    9.0590 hc        1 OSU      0.039700
     63 H6N2       -1.1490   -1.4030    8.8470 hc        1 OSU      0.039700
     64 H7N1       -2.1740    0.7080    9.7560 hc        1 OSU      0.039700
     65 H7N2       -0.5270    1.4160    9.9700 hc        1 OSU      0.039700
     66 H8N1       -1.3820    0.4580   12.1080 hc        1 OSU      0.033033
     67 H8N2       -1.5750   -1.1650   11.3290 hc        1 OSU      0.033033
     68 H8N3        0.0760   -0.4560   11.5430 hc        1 OSU      0.033033
@<TRIPOS>BOND
     1    1    2 1   
     2    1    7 1   
     3    1   11 1   
     4    1   33 1   
     5    2    3 1   
     6    2    8 1   
     7    2   34 1   
     8    3    4 1   
     9    3    9 1   
    10    3   35 1   
    11    4    5 1   
    12    4   10 1   
    13    4   36 1   
    14    5    6 1   
    15    5   11 1   
    16    5   37 1   
    17    6   12 1   
    18    6   38 1   
    19    6   39 1   
    20    7   14 1   
    21    8   40 1   
    22    9   41 1   
    23   10   42 1   
    24   12   43 1   
    25   13   14 1   
    26   13   19 1   
    27   13   44 1   
    28   13   45 1   
    29   14   15 1   
    30   14   20 1   
    31   15   16 1   
    32   15   21 1   
    33   15   46 1   
    34   16   17 1   
    35   16   22 1   
    36   16   47 1   
    37   17   18 1   
    38   17   20 1   
    39   17   48 1   
    40   18   23 1   
    41   18   49 1   
    42   18   50 1   
    43   19   51 1   
    44   21   52 1   
    45   22   53 1   
    46   23   24 1   
    47   24   25 1   
    48   24   32 2   
    49   25   26 1   
    50   25   54 1   
    51   25   55 1   
    52   26   27 1   
    53   26   56 1   
    54   26   57 1   
    55   27   28 1   
    56   27   58 1   
    57   27   59 1   
    58   28   29 1   
    59   28   60 1   
    60   28   61 1   
    61   29   30 1   
    62   29   62 1   
    63   29   63 1   
    64   30   31 1   
    65   30   64 1   
    66   30   65 1   
    67   31   66 1   
    68   31   67 1   
    69   31   68 1   
@<TRIPOS>SUBSTRUCTURE
     1 OSU         1 TEMP              0 ****  ****    0 ROOT
