@<TRIPOS>MOLECULE
OSU
   68    69     1     0     0
SMALL
bcc


@<TRIPOS>ATOM
      1 C1         -0.3180    0.2340    0.2060 c3        1 OSU      0.319900
      2 C2          1.2060    0.0100    0.2720 c3        1 OSU      0.084100
      3 C3          1.6780   -0.0410    1.7310 c3        1 OSU      0.111100
      4 C4          1.1980    1.2240    2.4610 c3        1 OSU      0.123100
      5 C5         -0.3290    1.3400    2.3340 c3        1 OSU      0.105100
      6 C6         -0.8220    2.6580    2.9400 c3        1 OSU      0.142400
      7 O1         -1.0000   -0.8480    0.8250 os        1 OSU     -0.470600
      8 O2          1.5960   -1.2140   -0.3210 oh        1 OSU     -0.604800
      9 O3          3.0930   -0.0440    1.8110 oh        1 OSU     -0.609800
     10 O4          1.4980    1.1450    3.8430 oh        1 OSU     -0.595800
     11 O5         -0.7190    1.3600    0.9550 os        1 OSU     -0.423600
     12 O6         -2.2260    2.6750    3.0420 oh        1 OSU     -0.606800
     13 C1'        -1.1860   -2.4720   -1.0090 c3        1 OSU      0.120400
     14 C2'        -1.9030   -1.5960    0.0290 c3        1 OSU      0.278600
     15 C3'        -2.8040   -2.3880    1.0140 c3        1 OSU      0.109100
     16 C4'        -4.0960   -1.5350    1.1090 c3        1 OSU      0.085100
     17 C5'        -3.9880   -0.4840   -0.0110 c3        1 OSU      0.142100
     18 C6'        -4.0620    0.9420    0.5300 c3        1 OSU      0.114400
     19 O1'        -0.7180   -1.7060   -2.0990 oh        1 OSU     -0.612800
     20 O2'        -2.7180   -0.6620   -0.6640 os        1 OSU     -0.443600
     21 O3'        -2.2230   -2.6150    2.2690 oh        1 OSU     -0.576800
     22 O4'        -5.2430   -2.3170    0.8400 oh        1 OSU     -0.586800
     23 O6'        -4.6100    1.7360   -0.5330 os        1 OSU     -0.440900
     24 C1N        -4.3910    3.0850   -0.4870 c         1 OSU      0.643100
     25 C2N        -4.9710    3.8000   -1.6670 c3        1 OSU     -0.126400
     26 C3N        -5.5590    5.1340   -1.2590 c3        1 OSU     -0.079400
     27 C4N        -6.0180    5.9120   -2.4730 c3        1 OSU     -0.078400
     28 C5N        -6.6240    7.2400   -2.0710 c3        1 OSU     -0.079400
     29 C6N        -7.0790    8.0230   -3.2840 c3        1 OSU     -0.079400
     30 C7N        -7.6870    9.3510   -2.8840 c3        1 OSU     -0.080400
     31 C8N        -8.1410   10.1360   -4.0870 c3        1 OSU     -0.093100
     32 O1N        -3.7630    3.5470    0.4680 o         1 OSU     -0.553000
     33 H1         -0.6690    0.4230   -0.8460 h2        1 OSU      0.104700
     34 H2          1.7050    0.8680   -0.2620 h1        1 OSU      0.062700
     35 H3          1.2650   -0.9620    2.2290 h1        1 OSU      0.074700
     36 H4          1.7000    2.1280    2.0160 h1        1 OSU      0.057700
     37 H5         -0.8230    0.4690    2.8450 h1        1 OSU      0.072700
     38 H61        -0.4480    3.5240    2.3350 h1        1 OSU      0.062700
     39 H62        -0.4400    2.7240    3.9960 h1        1 OSU      0.062700
     40 HO2         1.2220   -1.2310   -1.2140 ho        1 OSU      0.430000
     41 HO3         3.3960   -0.8030    1.2930 ho        1 OSU      0.427000
     42 HO4         2.4430    0.9450    3.9050 ho        1 OSU      0.424000
     43 HO6        -2.5780    2.8540    2.1580 ho        1 OSU      0.426000
     44 H1'1       -0.2640   -2.9180   -0.5460 h1        1 OSU      0.075200
     45 H1'2       -1.8840   -3.2740   -1.3650 h1        1 OSU      0.075200
     46 H3'        -3.0320   -3.4110    0.6060 h1        1 OSU      0.100700
     47 H4'        -4.1740   -1.0600    2.1240 h1        1 OSU      0.069700
     48 H5'        -4.7670   -0.6510   -0.8070 h1        1 OSU      0.108700
     49 H6'1       -3.0380    1.3140    0.8110 h1        1 OSU      0.079700
     50 H6'2       -4.7580    1.0150    1.4040 h1        1 OSU      0.079700
     51 H1'        -1.4860   -1.2850   -2.5100 ho        1 OSU      0.424000
     52 H6         -1.8490   -1.7810    2.5910 ho        1 OSU      0.429000
     53 H7         -5.3400   -2.9300    1.5800 ho        1 OSU      0.416000
     54 H2N1       -4.1390    3.9500   -2.4080 hc        1 OSU      0.079200
     55 H2N2       -5.7510    3.1560   -2.1530 hc        1 OSU      0.079200
     56 H3N1       -6.4260    4.9670   -0.5660 hc        1 OSU      0.058700
     57 H3N2       -4.7900    5.7230   -0.6910 hc        1 OSU      0.058700
     58 H4N1       -6.7730    5.3110   -3.0450 hc        1 OSU      0.041200
     59 H4N2       -5.1470    6.0890   -3.1590 hc        1 OSU      0.041200
     60 H5N1       -7.4960    7.0630   -1.3880 hc        1 OSU      0.042700
     61 H5N2       -5.8690    7.8390   -1.4970 hc        1 OSU      0.042700
     62 H6N1       -7.8330    7.4240   -3.8590 hc        1 OSU      0.039700
     63 H6N2       -6.2070    8.2010   -3.9670 hc        1 OSU      0.039700
     64 H7N1       -6.9320    9.9480   -2.3070 hc        1 OSU      0.039700
     65 H7N2       -8.5580    9.1720   -2.1990 hc        1 OSU      0.039700
     66 H8N1       -8.9110    9.5670   -4.6610 hc        1 OSU      0.033033
     67 H8N2       -8.5850   11.1100   -3.7700 hc        1 OSU      0.033033
     68 H8N3       -7.2810   10.3460   -4.7680 hc        1 OSU      0.033033
@<TRIPOS>BOND
     1    1    2 1   
     2    1    7 1   
     3    1   11 1   
     4    1   33 1   
     5    2    3 1   
     6    2    8 1   
     7    2   34 1   
     8    3    4 1   
     9    3    9 1   
    10    3   35 1   
    11    4    5 1   
    12    4   10 1   
    13    4   36 1   
    14    5    6 1   
    15    5   11 1   
    16    5   37 1   
    17    6   12 1   
    18    6   38 1   
    19    6   39 1   
    20    7   14 1   
    21    8   40 1   
    22    9   41 1   
    23   10   42 1   
    24   12   43 1   
    25   13   14 1   
    26   13   19 1   
    27   13   44 1   
    28   13   45 1   
    29   14   15 1   
    30   14   20 1   
    31   15   16 1   
    32   15   21 1   
    33   15   46 1   
    34   16   17 1   
    35   16   22 1   
    36   16   47 1   
    37   17   18 1   
    38   17   20 1   
    39   17   48 1   
    40   18   23 1   
    41   18   49 1   
    42   18   50 1   
    43   19   51 1   
    44   21   52 1   
    45   22   53 1   
    46   23   24 1   
    47   24   25 1   
    48   24   32 2   
    49   25   26 1   
    50   25   54 1   
    51   25   55 1   
    52   26   27 1   
    53   26   56 1   
    54   26   57 1   
    55   27   28 1   
    56   27   58 1   
    57   27   59 1   
    58   28   29 1   
    59   28   60 1   
    60   28   61 1   
    61   29   30 1   
    62   29   62 1   
    63   29   63 1   
    64   30   31 1   
    65   30   64 1   
    66   30   65 1   
    67   31   66 1   
    68   31   67 1   
    69   31   68 1   
@<TRIPOS>SUBSTRUCTURE
     1 OSU         1 TEMP              0 ****  ****    0 ROOT
