@<TRIPOS>MOLECULE
OSU
   68    69     1     0     0
SMALL
bcc


@<TRIPOS>ATOM
      1 C1         -0.3860    0.3050    0.1360 c3        1 OSU      0.324900
      2 C2          1.1530    0.2530    0.1130 c3        1 OSU      0.087100
      3 C3          1.6880    0.0870    1.5410 c3        1 OSU      0.077100
      4 C4          1.1380    1.2220    2.4190 c3        1 OSU      0.125100
      5 C5         -0.3970    1.2280    2.3570 c3        1 OSU      0.108100
      6 C6         -0.9510    2.4640    3.0760 c3        1 OSU      0.142400
      7 O1         -0.8700   -0.9160    0.6800 os        1 OSU     -0.483600
      8 O2          1.6580   -0.7640   -0.7220 oh        1 OSU     -0.590800
      9 O3          3.1020    0.1880    1.5790 oh        1 OSU     -0.608800
     10 O4          1.4950    1.0260    3.7760 oh        1 OSU     -0.596800
     11 O5         -0.8640    1.3070    1.0050 os        1 OSU     -0.427600
     12 O6         -2.3570    2.4250    3.1470 oh        1 OSU     -0.607800
     13 C1'        -1.3330   -2.5480   -1.0790 c3        1 OSU      0.119400
     14 C2'        -1.9030   -1.6090   -0.0040 c3        1 OSU      0.278600
     15 C3'        -2.7410   -2.3650    1.0630 c3        1 OSU      0.103100
     16 C4'        -4.0450   -1.5380    1.1840 c3        1 OSU      0.084100
     17 C5'        -3.9940   -0.5020    0.0450 c3        1 OSU      0.143100
     18 C6'        -4.1040    0.9220    0.5790 c3        1 OSU      0.113400
     19 O1'        -0.6430   -1.8360   -2.0800 oh        1 OSU     -0.593800
     20 O2'        -2.7300   -0.6460   -0.6330 os        1 OSU     -0.438600
     21 O3'        -2.0910   -2.5210    2.2950 oh        1 OSU     -0.575800
     22 O4'        -5.1830   -2.3460    0.9610 oh        1 OSU     -0.586800
     23 O6'        -4.5970    1.7210   -0.5060 os        1 OSU     -0.438900
     24 C1N        -4.4010    3.0730   -0.4210 c         1 OSU      0.643100
     25 C2N        -4.9140    3.8030   -1.6230 c3        1 OSU     -0.126400
     26 C3N        -5.5500    5.1190   -1.2280 c3        1 OSU     -0.079400
     27 C4N        -5.9410    5.9140   -2.4550 c3        1 OSU     -0.078400
     28 C5N        -6.5960    7.2230   -2.0680 c3        1 OSU     -0.079400
     29 C6N        -6.9840    8.0240   -3.2930 c3        1 OSU     -0.079400
     30 C7N        -7.6390    9.3340   -2.9080 c3        1 OSU     -0.080400
     31 C8N        -8.0270   10.1360   -4.1230 c3        1 OSU     -0.093100
     32 O1N        -3.8420    3.5230    0.5810 o         1 OSU     -0.554000
     33 H1         -0.8160    0.5400   -0.8750 h2        1 OSU      0.111700
     34 H2          1.5410    1.2150   -0.3310 h1        1 OSU      0.096700
     35 H3          1.3750   -0.9120    1.9560 h1        1 OSU      0.065700
     36 H4          1.5500    2.2060    2.0590 h1        1 OSU      0.057700
     37 H5         -0.8000    0.2910    2.8290 h1        1 OSU      0.066700
     38 H61        -0.5950    3.3970    2.5660 h1        1 OSU      0.062700
     39 H62        -0.5900    2.4380    4.1400 h1        1 OSU      0.062700
     40 HO2         1.0710   -1.5310   -0.6470 ho        1 OSU      0.426000
     41 HO3         3.4380   -0.3650    0.8600 ho        1 OSU      0.426000
     42 HO4         2.4530    0.8900    3.7890 ho        1 OSU      0.426000
     43 HO6        -2.6980    2.7390    2.2960 ho        1 OSU      0.426000
     44 H1'1       -0.5670   -3.2250   -0.6150 h1        1 OSU      0.068700
     45 H1'2       -2.1720   -3.1470   -1.5220 h1        1 OSU      0.068700
     46 H3'        -2.9660   -3.4120    0.7160 h1        1 OSU      0.101700
     47 H4'        -4.1010   -1.0480    2.1940 h1        1 OSU      0.072700
     48 H5'        -4.7830   -0.7040   -0.7310 h1        1 OSU      0.107700
     49 H6'1       -3.0990    1.2980    0.9150 h1        1 OSU      0.080200
     50 H6'2       -4.8460    0.9860    1.4170 h1        1 OSU      0.080200
     51 H1'        -1.2770   -1.2380   -2.4980 ho        1 OSU      0.419000
     52 H6         -1.7130   -1.6660    2.5510 ho        1 OSU      0.428000
     53 H7         -5.2580   -2.9360    1.7230 ho        1 OSU      0.416000
     54 H2N1       -4.0380    3.9810   -2.3040 hc        1 OSU      0.080200
     55 H2N2       -5.6490    3.1570   -2.1720 hc        1 OSU      0.080200
     56 H3N1       -4.8300    5.7090   -0.6000 hc        1 OSU      0.058200
     57 H3N2       -6.4570    4.9240   -0.5980 hc        1 OSU      0.058200
     58 H4N1       -6.6470    5.3130   -3.0870 hc        1 OSU      0.041200
     59 H4N2       -5.0310    6.1190   -3.0790 hc        1 OSU      0.041200
     60 H5N1       -5.8910    7.8230   -1.4340 hc        1 OSU      0.042700
     61 H5N2       -7.5070    7.0190   -1.4480 hc        1 OSU      0.042700
     62 H6N1       -6.0720    8.2300   -3.9130 hc        1 OSU      0.039700
     63 H6N2       -7.6880    7.4250   -3.9280 hc        1 OSU      0.039700
     64 H7N1       -6.9340    9.9320   -2.2710 hc        1 OSU      0.039700
     65 H7N2       -8.5500    9.1270   -2.2860 hc        1 OSU      0.039700
     66 H8N1       -7.1290   10.3730   -4.7430 hc        1 OSU      0.033033
     67 H8N2       -8.5080   11.0960   -3.8170 hc        1 OSU      0.033033
     68 H8N3       -8.7490    9.5660   -4.7580 hc        1 OSU      0.033033
@<TRIPOS>BOND
     1    1    2 1   
     2    1    7 1   
     3    1   11 1   
     4    1   33 1   
     5    2    3 1   
     6    2    8 1   
     7    2   34 1   
     8    3    4 1   
     9    3    9 1   
    10    3   35 1   
    11    4    5 1   
    12    4   10 1   
    13    4   36 1   
    14    5    6 1   
    15    5   11 1   
    16    5   37 1   
    17    6   12 1   
    18    6   38 1   
    19    6   39 1   
    20    7   14 1   
    21    8   40 1   
    22    9   41 1   
    23   10   42 1   
    24   12   43 1   
    25   13   14 1   
    26   13   19 1   
    27   13   44 1   
    28   13   45 1   
    29   14   15 1   
    30   14   20 1   
    31   15   16 1   
    32   15   21 1   
    33   15   46 1   
    34   16   17 1   
    35   16   22 1   
    36   16   47 1   
    37   17   18 1   
    38   17   20 1   
    39   17   48 1   
    40   18   23 1   
    41   18   49 1   
    42   18   50 1   
    43   19   51 1   
    44   21   52 1   
    45   22   53 1   
    46   23   24 1   
    47   24   25 1   
    48   24   32 2   
    49   25   26 1   
    50   25   54 1   
    51   25   55 1   
    52   26   27 1   
    53   26   56 1   
    54   26   57 1   
    55   27   28 1   
    56   27   58 1   
    57   27   59 1   
    58   28   29 1   
    59   28   60 1   
    60   28   61 1   
    61   29   30 1   
    62   29   62 1   
    63   29   63 1   
    64   30   31 1   
    65   30   64 1   
    66   30   65 1   
    67   31   66 1   
    68   31   67 1   
    69   31   68 1   
@<TRIPOS>SUBSTRUCTURE
     1 OSU         1 TEMP              0 ****  ****    0 ROOT
