@<TRIPOS>MOLECULE
OSU
   68    69     1     0     0
SMALL
bcc


@<TRIPOS>ATOM
      1 C1          4.3780   -0.3640   -0.3860 c3        1 OSU      0.306900
      2 C2          5.5230   -1.0450   -1.0940 c3        1 OSU      0.144100
      3 C3          6.2680   -0.1200   -1.9710 c3        1 OSU      0.104100
      4 C4          6.6910    1.1210   -1.2520 c3        1 OSU      0.080100
      5 C5          5.5290    1.7970   -0.5300 c3        1 OSU      0.120100
      6 C6          4.5690    2.3730   -1.5680 c3        1 OSU      0.090400
      7 O1          3.8460   -1.2350    0.5300 os        1 OSU     -0.417600
      8 O2          6.4220   -1.5780   -0.1130 oh        1 OSU     -0.570800
      9 O3          5.4290    0.2480   -3.0850 oh        1 OSU     -0.595800
     10 O4          7.6860    0.7790   -0.3000 oh        1 OSU     -0.595800
     11 O5          4.8040    0.8850    0.3240 os        1 OSU     -0.450600
     12 O6          5.1950    3.4400   -2.2500 oh        1 OSU     -0.607800
     13 C1'         1.8490   -0.1340    1.4210 c3        1 OSU      0.135400
     14 C2'         2.4430   -1.2130    0.4360 c3        1 OSU      0.311600
     15 C3'         1.8510   -2.6500    0.7580 c3        1 OSU      0.132100
     16 C4'         0.9000   -2.9480   -0.3510 c3        1 OSU      0.084100
     17 C5'         0.7490   -1.7910   -0.9900 c3        1 OSU      0.091100
     18 C6'        -0.4390   -1.0370   -0.4270 c3        1 OSU      0.125400
     19 O1'         1.9470    1.1700    0.8190 oh        1 OSU     -0.591800
     20 O2'         2.0880   -0.9680   -0.7460 os        1 OSU     -0.425600
     21 O3'         1.1930   -2.6350    1.9510 oh        1 OSU     -0.588800
     22 O4'         1.4880   -3.9910   -1.2810 oh        1 OSU     -0.589800
     23 O6'        -1.6270   -1.5140   -1.0200 os        1 OSU     -0.454900
     24 C1N        -2.6530   -0.5090   -1.1570 c         1 OSU      0.630100
     25 C2N        -4.1020   -0.8840   -0.9980 c3        1 OSU     -0.127400
     26 C3N        -4.9530    0.4070   -0.8410 c3        1 OSU     -0.079400
     27 C4N        -6.2480    0.0810   -0.0860 c3        1 OSU     -0.078400
     28 C5N        -6.8350    1.3610    0.5030 c3        1 OSU     -0.079400
     29 C6N        -7.7090    1.0070    1.6910 c3        1 OSU     -0.079400
     30 C7N        -7.6860    2.1770    2.7320 c3        1 OSU     -0.080400
     31 C8N        -8.1380    1.6390    4.1370 c3        1 OSU     -0.093100
     32 O1N        -2.3540    0.6220   -1.4710 o         1 OSU     -0.530000
     33 H1          3.6940   -0.1370   -1.0390 h2        1 OSU      0.081700
     34 H2          5.1670   -1.7850   -1.6390 h1        1 OSU      0.103700
     35 H3          7.0900   -0.5920   -2.3220 h1        1 OSU      0.076700
     36 H4          7.0760    1.7560   -1.9070 h1        1 OSU      0.062700
     37 H5          5.8810    2.5310    0.0190 h1        1 OSU      0.089700
     38 H61         3.7730    2.6970   -1.1240 h1        1 OSU      0.048700
     39 H62         4.3290    1.6870   -2.1970 h1        1 OSU      0.048700
     40 HO2         6.7830   -2.3470   -0.4210 ho        1 OSU      0.424000
     41 HO3         5.7960   -0.0530   -3.8500 ho        1 OSU      0.410000
     42 HO4         8.4210    1.2440   -0.4610 ho        1 OSU      0.412000
     43 HO6         4.6860    4.1840   -2.1760 ho        1 OSU      0.411000
     44 H1'1        2.3620   -0.1450    2.2690 h1        1 OSU      0.076700
     45 H1'2        0.9080   -0.3400    1.6030 h1        1 OSU      0.076700
     46 H3'         2.5680   -3.3150    0.7760 h1        1 OSU      0.099700
     47 H4'         0.0250   -3.2600    0.0150 h1        1 OSU      0.068700
     48 H5'         0.6270   -1.9470   -1.9280 h1        1 OSU      0.078700
     49 H6'1       -0.3400   -0.0870   -0.6180 h1        1 OSU      0.084700
     50 H6'2       -0.4810   -1.1750    0.5610 h1        1 OSU      0.084700
     51 H1'         1.6570    1.7930    1.4030 ho        1 OSU      0.408000
     52 H6          1.3400   -3.4260    2.3920 ho        1 OSU      0.418000
     53 H7          0.9860   -4.7280   -1.2580 ho        1 OSU      0.412000
     54 H2N1       -4.2100   -1.4500   -0.1980 hc        1 OSU      0.078200
     55 H2N2       -4.3960   -1.3710   -1.7790 hc        1 OSU      0.078200
     56 H3N1       -4.4510    1.0620   -0.3480 hc        1 OSU      0.058700
     57 H3N2       -5.1770    0.7710   -1.7510 hc        1 OSU      0.058700
     58 H4N1       -6.8840   -0.3130   -0.6940 hc        1 OSU      0.041200
     59 H4N2       -6.0520   -0.5580    0.6450 hc        1 OSU      0.041200
     60 H5N1       -7.3810    1.8230   -0.1850 hc        1 OSU      0.042700
     61 H5N2       -6.1120    1.9490    0.7940 hc        1 OSU      0.042700
     62 H6N1       -7.3670    0.1790    2.1180 hc        1 OSU      0.040200
     63 H6N2       -8.6360    0.8600    1.3830 hc        1 OSU      0.040200
     64 H7N1       -6.8020    2.5290    2.7970 hc        1 OSU      0.039200
     65 H7N2       -8.2990    2.8840    2.4400 hc        1 OSU      0.039200
     66 H8N1       -7.9640    2.3300    4.8250 hc        1 OSU      0.033033
     67 H8N2       -7.6310    0.8210    4.3560 hc        1 OSU      0.033033
     68 H8N3       -9.0890    1.4360    4.1160 hc        1 OSU      0.033033
@<TRIPOS>BOND
     1    1    2 1   
     2    1    7 1   
     3    1   11 1   
     4    1   33 1   
     5    2    3 1   
     6    2    8 1   
     7    2   34 1   
     8    3    4 1   
     9    3    9 1   
    10    3   35 1   
    11    4    5 1   
    12    4   10 1   
    13    4   36 1   
    14    5    6 1   
    15    5   11 1   
    16    5   37 1   
    17    6   12 1   
    18    6   38 1   
    19    6   39 1   
    20    7   14 1   
    21    8   40 1   
    22    9   41 1   
    23   10   42 1   
    24   12   43 1   
    25   13   14 1   
    26   13   19 1   
    27   13   44 1   
    28   13   45 1   
    29   14   15 1   
    30   14   20 1   
    31   15   16 1   
    32   15   21 1   
    33   15   46 1   
    34   16   17 1   
    35   16   22 1   
    36   16   47 1   
    37   17   18 1   
    38   17   20 1   
    39   17   48 1   
    40   18   23 1   
    41   18   49 1   
    42   18   50 1   
    43   19   51 1   
    44   21   52 1   
    45   22   53 1   
    46   23   24 1   
    47   24   25 1   
    48   24   32 2   
    49   25   26 1   
    50   25   54 1   
    51   25   55 1   
    52   26   27 1   
    53   26   56 1   
    54   26   57 1   
    55   27   28 1   
    56   27   58 1   
    57   27   59 1   
    58   28   29 1   
    59   28   60 1   
    60   28   61 1   
    61   29   30 1   
    62   29   62 1   
    63   29   63 1   
    64   30   31 1   
    65   30   64 1   
    66   30   65 1   
    67   31   66 1   
    68   31   67 1   
    69   31   68 1   
@<TRIPOS>SUBSTRUCTURE
     1 OSU         1 TEMP              0 ****  ****    0 ROOT
