@<TRIPOS>MOLECULE
OT5
   62    65     1     0     0
SMALL
bcc


@<TRIPOS>ATOM
      1 C01        -0.4780   -0.3300    0.6970 c3        1 OT5      0.081600
      2 N02         0.9330   -0.1550    0.2630 nx        1 OT5     -0.680400
      3 C03         1.8560   -0.0020    1.4390 c3        1 OT5      0.104800
      4 C04         1.8270    1.3930    2.0670 c3        1 OT5     -0.092700
      5 C05         2.4500    2.4360    1.1520 c3        1 OT5     -0.076900
      6 C06         2.4720    3.7960    1.8190 c3        1 OT5     -0.080400
      7 C07         3.2560    3.7370    3.1440 c3        1 OT5      0.197500
      8 C08         2.6050    2.6910    4.0560 c3        1 OT5     -0.080400
      9 C09         2.5950    1.3340    3.3840 c3        1 OT5     -0.076900
     10 N10         3.3300    5.0800    3.7290 nu        1 OT5     -0.691600
     11 C11         4.0500    5.2200    4.9420 ca        1 OT5      0.159300
     12 C12         5.3960    5.5980    4.9780 ca        1 OT5     -0.341900
     13 C13         6.0210    5.8380    6.2450 ca        1 OT5      0.449200
     14 N14         5.4180    5.7400    7.4110 nb        1 OT5     -0.648000
     15 C15         4.0830    5.3940    7.4160 ca        1 OT5      0.307300
     16 C16         3.3440    5.1080    6.2160 ca        1 OT5      0.286300
     17 N17         2.0140    4.7630    6.2460 nb        1 OT5     -0.640000
     18 C18         1.3910    4.7070    7.4230 cp        1 OT5      0.474800
     19 C19         2.0490    4.9930    8.6680 ca        1 OT5     -0.219300
     20 C20         3.3770    5.3250    8.6630 ca        1 OT5     -0.131300
     21 C21        -0.0360    4.3330    7.4600 cp        1 OT5     -0.177500
     22 C22        -0.9190    4.8070    6.4830 ca        1 OT5     -0.064000
     23 C23        -2.2680    4.4480    6.5140 ca        1 OT5     -0.048100
     24 Cl4        -3.2980    5.0490    5.3080 cl        1 OT5     -0.063900
     25 C25        -2.7490    3.6040    7.5370 ca        1 OT5      0.158100
     26 C26        -1.8510    3.1310    8.5160 ca        1 OT5     -0.048100
     27 C27        -0.5050    3.4940    8.4760 ca        1 OT5     -0.064000
     28 Cl8        -2.3920    2.1110    9.7640 cl        1 OT5     -0.063900
     29 O29        -4.0770    3.2710    7.5110 oh        1 OT5     -0.471100
     30 C30         6.2110    5.7680    3.7560 c         1 OT5      0.591700
     31 O31         5.9720    5.1400    2.7130 o         1 OT5     -0.562100
     32 C32         7.3470    6.7360    3.8310 c3        1 OT5     -0.201100
     33 C33         1.3590   -1.2920   -0.5950 c3        1 OT5      0.081600
     34 H011       -1.1430   -0.3630   -0.2070 hx        1 OT5      0.105367
     35 H012       -0.5790   -1.2880    1.2720 hx        1 OT5      0.105367
     36 H013       -0.7770    0.5330    1.3520 hx        1 OT5      0.105367
     37 H031        1.5630   -0.7750    2.2060 hx        1 OT5      0.102700
     38 H032        2.9040   -0.2250    1.0840 hx        1 OT5      0.102700
     39 H331        2.3880   -1.0920   -0.9970 hx        1 OT5      0.105367
     40 H332        1.3700   -2.2350    0.0130 hx        1 OT5      0.105367
     41 H333        0.6370   -1.4050   -1.4480 hx        1 OT5      0.105367
     42 H04         0.7650    1.6940    2.2960 hc        1 OT5      0.071700
     43 H051        1.8700    2.5200    0.1960 hc        1 OT5      0.047200
     44 H052        3.4980    2.1300    0.8900 hc        1 OT5      0.047200
     45 H091        2.1140    0.5880    4.0690 hc        1 OT5      0.047200
     46 H092        3.6470    0.9950    3.1900 hc        1 OT5      0.047200
     47 H061        2.9540    4.5300    1.1200 hc        1 OT5      0.070450
     48 H062        1.4250    4.1440    2.0140 hc        1 OT5      0.070450
     49 H07         4.3070    3.3760    2.9020 h1        1 OT5      0.048700
     50 H081        3.1800    2.6110    5.0160 hc        1 OT5      0.070450
     51 H082        1.5560    2.9990    4.3050 hc        1 OT5      0.070450
     52 H10         3.7220    5.6970    3.0330 hn        1 OT5      0.390800
     53 H13         7.0920    6.1210    6.2820 h4        1 OT5      0.036100
     54 H20         3.9160    5.5490    9.5990 ha        1 OT5      0.170000
     55 H19         1.4720    4.9530    9.6040 ha        1 OT5      0.159000
     56 H22        -0.5510    5.4730    5.6840 ha        1 OT5      0.164000
     57 H27         0.1870    3.1120    9.2450 ha        1 OT5      0.164000
     58 H29        -4.2900    2.7840    8.3250 ho        1 OT5      0.440000
     59 H321        7.6630    7.0400    2.8020 hc        1 OT5      0.075367
     60 H322        8.2190    6.2500    4.3370 hc        1 OT5      0.075367
     61 H323        7.0550    7.6470    4.4070 hc        1 OT5      0.075367
     62 H021        0.9910    0.7110   -0.2940 hn        1 OT5      0.453800
@<TRIPOS>BOND
     1    1    2 1   
     2    1   34 1   
     3    1   35 1   
     4    1   36 1   
     5    2    3 1   
     6    2   33 1   
     7    2   62 1   
     8    3    4 1   
     9    3   37 1   
    10    3   38 1   
    11    4    5 1   
    12    4    9 1   
    13    4   42 1   
    14    5    6 1   
    15    5   43 1   
    16    5   44 1   
    17    6    7 1   
    18    6   47 1   
    19    6   48 1   
    20    7    8 1   
    21    7   10 1   
    22    7   49 1   
    23    8    9 1   
    24    8   50 1   
    25    8   51 1   
    26    9   45 1   
    27    9   46 1   
    28   10   11 1   
    29   10   52 1   
    30   11   12 ar  
    31   11   16 ar  
    32   12   13 ar  
    33   12   30 1   
    34   13   14 ar  
    35   13   53 1   
    36   14   15 ar  
    37   15   16 ar  
    38   15   20 ar  
    39   16   17 ar  
    40   17   18 ar  
    41   18   19 ar  
    42   18   21 1   
    43   19   20 ar  
    44   19   55 1   
    45   20   54 1   
    46   21   22 ar  
    47   21   27 ar  
    48   22   23 ar  
    49   22   56 1   
    50   23   24 1   
    51   23   25 ar  
    52   25   26 ar  
    53   25   29 1   
    54   26   27 ar  
    55   26   28 1   
    56   27   57 1   
    57   29   58 1   
    58   30   31 2   
    59   30   32 1   
    60   32   59 1   
    61   32   60 1   
    62   32   61 1   
    63   33   39 1   
    64   33   40 1   
    65   33   41 1   
@<TRIPOS>SUBSTRUCTURE
     1 OT5         1 TEMP              0 ****  ****    0 ROOT
