@<TRIPOS>MOLECULE
OT5
   62    65     1     0     0
SMALL
bcc


@<TRIPOS>ATOM
      1 C01         0.3900   -0.2720   -0.7510 c3        1 OT5      0.082100
      2 N02         1.8460   -0.2080   -0.4590 n4        1 OT5     -0.680400
      3 C03         2.1080   -0.1420    1.0190 c3        1 OT5      0.103800
      4 C04         1.8530    1.2370    1.6360 c3        1 OT5     -0.091700
      5 C05         2.8310    2.2760    1.1090 c3        1 OT5     -0.076900
      6 C06         2.6510    3.6080    1.8080 c3        1 OT5     -0.091900
      7 C07         2.8480    3.4390    3.3250 c3        1 OT5      0.188500
      8 C08         1.8110    2.4260    3.8400 c3        1 OT5     -0.091900
      9 C09         1.9900    1.0920    3.1500 c3        1 OT5     -0.076900
     10 N10         2.7940    4.7330    3.9940 nh        1 OT5     -0.716600
     11 C11         3.6670    4.9250    5.0840 ca        1 OT5      0.149300
     12 C12         5.0350    5.1080    4.8910 ca        1 OT5     -0.306900
     13 C13         5.8730    5.3680    6.0240 ca        1 OT5      0.447200
     14 N14         5.4500    5.4790    7.2660 nb        1 OT5     -0.647000
     15 C15         4.0980    5.3370    7.4960 ca        1 OT5      0.310300
     16 C16         3.1590    5.0480    6.4500 ca        1 OT5      0.254300
     17 N17         1.8180    4.8720    6.6920 nb        1 OT5     -0.677000
     18 C18         1.3740    4.9890    7.9440 cp        1 OT5      0.491800
     19 C19         2.2390    5.2980    9.0480 ca        1 OT5     -0.223300
     20 C20         3.5800    5.4690    8.8280 ca        1 OT5     -0.125300
     21 C21        -0.0620    4.7950    8.2220 cp        1 OT5     -0.182500
     22 C22        -1.0300    5.3310    7.3660 ca        1 OT5     -0.062500
     23 C23        -2.3890    5.1510    7.6330 ca        1 OT5     -0.046600
     24 CL4        -3.5240    5.8240    6.5670 cl        1 OT5     -0.061400
     25 C25        -2.7920    4.4230    8.7730 ca        1 OT5      0.163100
     26 C26        -1.8080    3.8840    9.6270 ca        1 OT5     -0.046600
     27 C27        -0.4530    4.0710    9.3520 ca        1 OT5     -0.062500
     28 CL8        -2.2530    2.9980   11.0080 cl        1 OT5     -0.061400
     29 O29        -4.1350    4.2700    8.9810 oh        1 OT5     -0.468100
     30 C30         5.6740    5.0980    3.5550 c         1 OT5      0.609700
     31 O31         5.6700    4.1060    2.8170 o         1 OT5     -0.554100
     32 C32         6.3320    6.3810    3.1580 c3        1 OT5     -0.199100
     33 C33         2.5510   -1.3670   -1.0650 c3        1 OT5      0.082100
     34 H011       -0.0370   -1.2200   -0.3310 hx        1 OT5      0.105033
     35 H012       -0.1240    0.6100   -0.2830 hx        1 OT5      0.105033
     36 H013        0.2340   -0.2510   -1.8630 hx        1 OT5      0.105033
     37 H031        1.4530   -0.9120    1.5170 hx        1 OT5      0.103200
     38 H032        3.1890   -0.4230    1.1860 hx        1 OT5      0.103200
     39 H331        3.6590   -1.2480   -0.9210 hx        1 OT5      0.105033
     40 H332        2.3180   -1.4120   -2.1630 hx        1 OT5      0.105033
     41 H333        2.2080   -2.3150   -0.5700 hx        1 OT5      0.105033
     42 H04         0.8030    1.5730    1.4090 hc        1 OT5      0.066700
     43 H051        2.6800    2.4360    0.0080 hc        1 OT5      0.049450
     44 H052        3.8840    1.9190    1.2640 hc        1 OT5      0.049450
     45 H091        3.0020    0.6750    3.3960 hc        1 OT5      0.049450
     46 H092        1.2200    0.3710    3.5290 hc        1 OT5      0.049450
     47 H061        1.6340    4.0240    1.5920 hc        1 OT5      0.065450
     48 H062        3.4170    4.3290    1.4130 hc        1 OT5      0.065450
     49 H07         3.8800    2.9970    3.4870 h1        1 OT5      0.092700
     50 H081        0.7740    2.8140    3.6610 hc        1 OT5      0.065450
     51 H082        1.9310    2.2850    4.9470 hc        1 OT5      0.065450
     52 H10         1.8490    4.9960    4.2030 hn        1 OT5      0.410800
     53 H13         6.9640    5.4880    5.8710 h4        1 OT5      0.035100
     54 H20         4.2710    5.7100    9.6530 ha        1 OT5      0.170000
     55 H19         1.8070    5.4050   10.0540 ha        1 OT5      0.160000
     56 H22        -0.7230    5.9050    6.4760 ha        1 OT5      0.160000
     57 H27         0.3060    3.6390   10.0250 ha        1 OT5      0.160000
     58 H29        -4.2680    3.8030    9.8250 ho        1 OT5      0.440000
     59 H321        7.0750    6.6900    3.9330 hc        1 OT5      0.073367
     60 H322        6.8530    6.2690    2.1760 hc        1 OT5      0.073367
     61 H323        5.5570    7.1820    3.0710 hc        1 OT5      0.073367
     62 H021        2.2200    0.6550   -0.8810 hn        1 OT5      0.455800
@<TRIPOS>BOND
     1    1    2 1   
     2    1   34 1   
     3    1   35 1   
     4    1   36 1   
     5    2    3 1   
     6    2   33 1   
     7    2   62 1   
     8    3    4 1   
     9    3   37 1   
    10    3   38 1   
    11    4    5 1   
    12    4    9 1   
    13    4   42 1   
    14    5    6 1   
    15    5   43 1   
    16    5   44 1   
    17    6    7 1   
    18    6   47 1   
    19    6   48 1   
    20    7    8 1   
    21    7   10 1   
    22    7   49 1   
    23    8    9 1   
    24    8   50 1   
    25    8   51 1   
    26    9   45 1   
    27    9   46 1   
    28   10   11 1   
    29   10   52 1   
    30   11   12 ar  
    31   11   16 ar  
    32   12   13 ar  
    33   12   30 1   
    34   13   14 ar  
    35   13   53 1   
    36   14   15 ar  
    37   15   16 ar  
    38   15   20 ar  
    39   16   17 ar  
    40   17   18 ar  
    41   18   19 ar  
    42   18   21 1   
    43   19   20 ar  
    44   19   55 1   
    45   20   54 1   
    46   21   22 ar  
    47   21   27 ar  
    48   22   23 ar  
    49   22   56 1   
    50   23   24 1   
    51   23   25 ar  
    52   25   26 ar  
    53   25   29 1   
    54   26   27 ar  
    55   26   28 1   
    56   27   57 1   
    57   29   58 1   
    58   30   31 2   
    59   30   32 1   
    60   32   59 1   
    61   32   60 1   
    62   32   61 1   
    63   33   39 1   
    64   33   40 1   
    65   33   41 1   
@<TRIPOS>SUBSTRUCTURE
     1 OT5         1 TEMP              0 ****  ****    0 ROOT
