@<TRIPOS>MOLECULE
OT5
   63    66     1     0     0
SMALL
bcc


@<TRIPOS>ATOM
      1 C01         0.0030   -0.5010   -0.0740 c3        1 OT5      0.080100
      2 N02         1.4700   -0.2640   -0.1610 n4        1 OT5     -0.679400
      3 C03         2.0780   -0.0610    1.1960 c3        1 OT5      0.103800
      4 C04         1.8640    1.3370    1.7850 c3        1 OT5     -0.095700
      5 C05         2.7150    2.3800    1.0750 c3        1 OT5     -0.078900
      6 C06         2.5740    3.7440    1.7210 c3        1 OT5     -0.100900
      7 C07         2.9660    3.6680    3.2040 c3        1 OT5      0.140500
      8 C08         2.0910    2.6400    3.9240 c3        1 OT5     -0.100900
      9 C09         2.2350    1.2840    3.2650 c3        1 OT5     -0.078900
     10 N10         2.8740    5.0420    3.8370 n4        1 OT5     -0.634400
     11 C11         3.7530    5.2070    5.0000 ca        1 OT5     -0.011700
     12 C12         5.1050    5.5260    4.8520 ca        1 OT5     -0.245900
     13 C13         5.8830    5.6600    6.0490 ca        1 OT5      0.434200
     14 N14         5.4090    5.5350    7.2760 nb        1 OT5     -0.578000
     15 C15         4.0760    5.2660    7.4360 ca        1 OT5      0.319300
     16 C16         3.1820    5.0820    6.3200 ca        1 OT5      0.295300
     17 N17         1.8420    4.8120    6.4760 nb        1 OT5     -0.744000
     18 C18         1.3460    4.7270    7.7120 cp        1 OT5      0.567800
     19 C19         2.1680    4.9020    8.8860 ca        1 OT5     -0.210300
     20 C20         3.5030    5.1640    8.7540 ca        1 OT5     -0.106300
     21 C21        -0.0850    4.4510    7.9040 cp        1 OT5     -0.227500
     22 C22        -1.0430    5.0330    7.0640 ca        1 OT5     -0.055000
     23 C23        -2.4010    4.7820    7.2520 ca        1 OT5     -0.051600
     24 CL4        -3.5170    5.5170    6.2130 cl        1 OT5     -0.034400
     25 C25        -2.8200    3.9300    8.3030 ca        1 OT5      0.192100
     26 C26        -1.8470    3.3440    9.1430 ca        1 OT5     -0.051600
     27 C27        -0.4930    3.6070    8.9460 ca        1 OT5     -0.055000
     28 CL8        -2.3090    2.3160   10.4100 cl        1 OT5     -0.034400
     29 O29        -4.1580    3.7120    8.4330 oh        1 OT5     -0.453100
     30 C30         5.7670    5.7570    3.5400 c         1 OT5      0.599700
     31 O31         5.1870    5.4550    2.4830 o         1 OT5     -0.583100
     32 C32         7.1250    6.3680    3.5410 c3        1 OT5     -0.203100
     33 C33         2.1330   -1.3960   -0.8670 c3        1 OT5      0.080100
     34 H011       -0.4830    0.3480    0.4760 hx        1 OT5      0.111033
     35 H012       -0.4230   -0.5690   -1.1120 hx        1 OT5      0.111033
     36 H013       -0.1930   -1.4630    0.4710 hx        1 OT5      0.111033
     37 H031        1.6330   -0.8360    1.8860 hx        1 OT5      0.110700
     38 H032        3.1870   -0.2580    1.1090 hx        1 OT5      0.110700
     39 H331        1.6390   -1.5500   -1.8650 hx        1 OT5      0.111033
     40 H332        2.0340   -2.3310   -0.2530 hx        1 OT5      0.111033
     41 H333        3.2200   -1.1580   -1.0200 hx        1 OT5      0.111033
     42 H04         0.7790    1.6300    1.7030 hc        1 OT5      0.075700
     43 H051        3.7930    2.0670    1.0940 hc        1 OT5      0.068950
     44 H052        2.4080    2.4740   -0.0000 hc        1 OT5      0.068950
     45 H091        3.2900    0.9180    3.3750 hc        1 OT5      0.068950
     46 H092        1.5660    0.5570    3.7990 hc        1 OT5      0.068950
     47 H061        1.5170    4.1060    1.6170 hc        1 OT5      0.084700
     48 H062        3.2510    4.4660    1.1840 hc        1 OT5      0.084700
     49 H07         4.0540    3.3630    3.2730 hx        1 OT5      0.116700
     50 H081        1.0160    2.9620    3.9040 hc        1 OT5      0.084700
     51 H082        2.4000    2.5520    5.0000 hc        1 OT5      0.084700
     52 H10         1.8990    5.2240    4.1090 hn        1 OT5      0.475300
     53 H13         6.9680    5.8880    5.9800 h4        1 OT5      0.068100
     54 H20         4.1560    5.3090    9.6340 ha        1 OT5      0.195000
     55 H19         1.6950    4.8410    9.8800 ha        1 OT5      0.186000
     56 H22        -0.7300    5.7140    6.2560 ha        1 OT5      0.155500
     57 H27         0.2530    3.1380    9.6090 ha        1 OT5      0.155500
     58 H29        -4.3200    3.1820    9.2350 ho        1 OT5      0.454000
     59 H321        7.1400    7.2970    4.1650 hc        1 OT5      0.096700
     60 H322        7.8720    5.6420    3.9500 hc        1 OT5      0.096700
     61 H323        7.4280    6.6330    2.4950 hc        1 OT5      0.096700
     62 H021        1.6240    0.5920   -0.7110 hn        1 OT5      0.449800
     63 H102        3.1610    5.7320    3.1200 hn        1 OT5      0.475300
@<TRIPOS>BOND
     1    1    2 1   
     2    1   34 1   
     3    1   35 1   
     4    1   36 1   
     5    2    3 1   
     6    2   33 1   
     7    2   62 1   
     8    3    4 1   
     9    3   37 1   
    10    3   38 1   
    11    4    5 1   
    12    4    9 1   
    13    4   42 1   
    14    5    6 1   
    15    5   43 1   
    16    5   44 1   
    17    6    7 1   
    18    6   47 1   
    19    6   48 1   
    20    7    8 1   
    21    7   10 1   
    22    7   49 1   
    23    8    9 1   
    24    8   50 1   
    25    8   51 1   
    26    9   45 1   
    27    9   46 1   
    28   10   11 1   
    29   10   52 1   
    30   10   63 1   
    31   11   12 ar  
    32   11   16 ar  
    33   12   13 ar  
    34   12   30 1   
    35   13   14 ar  
    36   13   53 1   
    37   14   15 ar  
    38   15   16 ar  
    39   15   20 ar  
    40   16   17 ar  
    41   17   18 ar  
    42   18   19 ar  
    43   18   21 1   
    44   19   20 ar  
    45   19   55 1   
    46   20   54 1   
    47   21   22 ar  
    48   21   27 ar  
    49   22   23 ar  
    50   22   56 1   
    51   23   24 1   
    52   23   25 ar  
    53   25   26 ar  
    54   25   29 1   
    55   26   27 ar  
    56   26   28 1   
    57   27   57 1   
    58   29   58 1   
    59   30   31 2   
    60   30   32 1   
    61   32   59 1   
    62   32   60 1   
    63   32   61 1   
    64   33   39 1   
    65   33   40 1   
    66   33   41 1   
@<TRIPOS>SUBSTRUCTURE
     1 OT5         1 TEMP              0 ****  ****    0 ROOT
