@<TRIPOS>MOLECULE
OTA
   26    24     1     0     0
SMALL
bcc


@<TRIPOS>ATOM
      1 N1         -2.2750   -0.0460   -2.7490 n3        1 OTA     -0.285000
      2 C2         -0.8940   -0.0560   -2.7660 c3        1 OTA      0.014000
      3 C3         -0.1860    0.0420   -1.3760 c2        1 OTA     -0.562000
      4 C4         -1.0430    0.3020   -0.1820 c1        1 OTA     -0.019000
      5 C5         -2.5140    0.6150   -0.4260 c2        1 OTA     -0.131000
      6 C6         -2.9180    0.7770   -1.8000 c3        1 OTA     -0.090000
      7 S13         1.2670   -0.1700   -0.8800 ss        1 OTA      0.517000
      8 C14         1.2590   -0.0270    0.6890 c1        1 OTA     -0.127000
      9 C15        -0.1220    0.2560    1.1130 c1        1 OTA     -0.221000
     10 C16        -0.5860    0.4690    2.5370 c1        1 OTA      0.382000
     11 O17        -0.5510    1.6210    3.0440 o         1 OTA     -0.589500
     12 O18        -1.0110   -0.5040    3.2130 o         1 OTA     -0.589500
     13 N19         2.3920   -0.1120    1.5390 n2        1 OTA     -0.281000
     14 C20         3.2920   -1.2020    1.4170 c2        1 OTA      0.232000
     15 C21         4.4840   -1.3060    2.3420 c2        1 OTA      0.365000
     16 O22         5.5750   -0.7630    2.0260 o         1 OTA     -0.542000
     17 O23         4.3870   -1.9390    3.4260 o         1 OTA     -0.542000
     18 O24         3.0920   -2.0630    0.5840 o         1 OTA     -0.432000
     19 H1         -2.5890    0.1490   -3.5860 hn        1 OTA      0.127000
     20 H21        -0.6210   -0.9080   -3.1650 h1        1 OTA      0.064500
     21 H22A       -0.6110    0.7250   -3.2860 h1        1 OTA      0.064500
     22 H51        -2.7310    1.4420    0.0520 ha        1 OTA      0.113000
     23 H52        -3.0460   -0.1100   -0.0380 ha        1 OTA      0.113000
     24 H61        -3.8750    0.5640   -1.8420 h1        1 OTA      0.064500
     25 H62        -2.7170    1.7050   -2.0470 h1        1 OTA      0.064500
     26 H19         2.5440    0.5370    2.1620 hn        1 OTA      0.290000
@<TRIPOS>BOND
     1    1    2 1   
     2    1    6 1   
     3    1   19 1   
     4    2    3 1   
     5    2   20 1   
     6    2   21 1   
     7    3    4 1   
     8    3    7 1   
     9    4    9 1   
    10    5    6 1   
    11    5   22 1   
    12    5   23 1   
    13    6   24 1   
    14    6   25 1   
    15    7    8 1   
    16    8    9 1   
    17   10   11 1   
    18   10   12 1   
    19   13   14 1   
    20   13   26 1   
    21   14   15 1   
    22   14   18 1   
    23   15   16 1   
    24   15   17 1   
@<TRIPOS>SUBSTRUCTURE
     1 OTA         1 TEMP              0 ****  ****    0 ROOT
