@<TRIPOS>MOLECULE
OTA
   27    28     1     0     0
SMALL
bcc


@<TRIPOS>ATOM
      1 N1          0.4870    0.4400   -0.1440 n3        1 OTA     -0.817200
      2 C2          1.8910    0.2680    0.1970 c3        1 OTA      0.249100
      3 C3          2.1730    0.1620    1.6500 cc        1 OTA     -0.145400
      4 C4          1.1870    0.2680    2.6190 cd        1 OTA     -0.056300
      5 C5         -0.2270    0.4760    2.2600 c3        1 OTA     -0.022100
      6 C6         -0.3420    1.0820    0.8600 c3        1 OTA      0.163800
      7 S13         3.6840   -0.0930    2.3070 ss        1 OTA      0.041200
      8 C14         3.0900   -0.0680    3.9000 cc        1 OTA     -0.045500
      9 C15         1.7110    0.1440    3.9450 cd        1 OTA     -0.101600
     10 C16         0.8950    0.2540    5.2160 c         1 OTA      0.927200
     11 O17        -0.3270    0.5300    5.1330 o         1 OTA     -0.807800
     12 O18         1.5030    0.0710    6.3180 o         1 OTA     -0.807800
     13 N19         3.9080   -0.2290    5.0680 n4        1 OTA     -0.539200
     14 C20         5.0180   -1.2620    4.9290 c         1 OTA      0.387100
     15 C21         6.4600   -0.6280    4.6500 c         1 OTA      0.907600
     16 O22         7.1890   -1.3260    3.9300 o         1 OTA     -0.727300
     17 O23         6.6360    0.4790    5.1970 o         1 OTA     -0.727300
     18 O24         4.7120   -2.4270    5.1110 o         1 OTA     -0.471100
     19 H1          0.4240    0.9570   -1.0020 hn        1 OTA      0.349800
     20 H21         2.5250    1.1070   -0.2240 h1        1 OTA      0.033200
     21 H22A        2.2190   -0.6850   -0.3150 h1        1 OTA      0.033200
     22 H51        -0.7620   -0.5110    2.3020 hc        1 OTA      0.088200
     23 H52        -0.7230    1.1510    3.0110 hc        1 OTA      0.088200
     24 H61        -0.1190    2.1880    0.9400 h1        1 OTA      0.022200
     25 H62        -1.4080    0.9780    0.5100 h1        1 OTA      0.022200
     26 H19         3.2610   -0.4630    5.8650 hn        1 OTA      0.478300
     27 H192        4.3670    0.6680    5.2800 hn        1 OTA      0.478300
@<TRIPOS>BOND
     1    1    2 1   
     2    1    6 1   
     3    1   19 1   
     4    2    3 1   
     5    2   20 1   
     6    2   21 1   
     7    3    4 2   
     8    3    7 1   
     9    4    5 1   
    10    4    9 1   
    11    5    6 1   
    12    5   22 1   
    13    5   23 1   
    14    6   24 1   
    15    6   25 1   
    16    7    8 1   
    17    8    9 2   
    18    8   13 1   
    19    9   10 1   
    20   10   11 1   
    21   10   12 1   
    22   13   14 1   
    23   13   26 1   
    24   13   27 1   
    25   14   15 1   
    26   14   18 2   
    27   15   16 1   
    28   15   17 1   
@<TRIPOS>SUBSTRUCTURE
     1 OTA         1 TEMP              0 ****  ****    0 ROOT
