@<TRIPOS>MOLECULE
OTA
   26    27     1     0     0
SMALL
bcc


@<TRIPOS>ATOM
      1 N1          0.4020    1.0540   -0.1410 n3        1 OTA     -0.806200
      2 C2          1.6080    0.2490    0.0440 c3        1 OTA      0.258100
      3 C3          2.0590    0.1370    1.4500 cc        1 OTA     -0.299400
      4 C4          1.2180    0.4190    2.5160 cd        1 OTA     -0.026300
      5 C5         -0.1730    0.8780    2.3230 c3        1 OTA     -0.045100
      6 C6         -0.6100    0.7470    0.8610 c3        1 OTA      0.146800
      7 S13         3.5760   -0.3400    1.9640 ss        1 OTA     -0.022800
      8 C14         3.1700   -0.1860    3.6300 cc        1 OTA      0.135500
      9 C15         1.8430    0.2400    3.7870 cd        1 OTA     -0.241600
     10 C16         1.1490    0.4820    5.0960 c         1 OTA      0.933200
     11 O17        -0.0550    0.8830    5.0870 o         1 OTA     -0.854800
     12 O18         1.7810    0.2800    6.1770 o         1 OTA     -0.854800
     13 N19         4.0670   -0.4580    4.6410 n         1 OTA     -0.427100
     14 C20         5.3770   -0.8700    4.4240 c         1 OTA      0.538100
     15 C21         6.2840   -1.1390    5.6620 c         1 OTA      0.895600
     16 O22         6.2900   -2.3120    6.1130 o         1 OTA     -0.807300
     17 O23         6.9630   -0.1710    6.0850 o         1 OTA     -0.807300
     18 O24         5.7950   -1.0140    3.2510 o         1 OTA     -0.671100
     19 H1          0.6550    2.0240   -0.0400 hn        1 OTA      0.331800
     20 H21         2.4230    0.6900   -0.5980 h1        1 OTA      0.025200
     21 H22A        1.3780   -0.7800   -0.3620 h1        1 OTA      0.025200
     22 H51        -0.2510    1.9460    2.6640 hc        1 OTA      0.073700
     23 H52        -0.8580    0.2890    2.9910 hc        1 OTA      0.073700
     24 H61        -0.9460   -0.3120    0.6770 h1        1 OTA      0.025200
     25 H62        -1.4910    1.4230    0.6760 h1        1 OTA      0.025200
     26 H19         3.7150   -0.3380    5.5770 hn        1 OTA      0.376500
@<TRIPOS>BOND
     1    1    2 1   
     2    1    6 1   
     3    1   19 1   
     4    2    3 1   
     5    2   20 1   
     6    2   21 1   
     7    3    4 2   
     8    3    7 1   
     9    4    5 1   
    10    4    9 1   
    11    5    6 1   
    12    5   22 1   
    13    5   23 1   
    14    6   24 1   
    15    6   25 1   
    16    7    8 1   
    17    8    9 2   
    18    8   13 1   
    19    9   10 1   
    20   10   11 1   
    21   10   12 1   
    22   13   14 1   
    23   13   26 1   
    24   14   15 1   
    25   14   18 2   
    26   15   16 1   
    27   15   17 1   
@<TRIPOS>SUBSTRUCTURE
     1 OTA         1 TEMP              0 ****  ****    0 ROOT
