@<TRIPOS>MOLECULE
OTA
   26    27     1     0     0
SMALL
bcc


@<TRIPOS>ATOM
      1 N1          0.4170    1.1000   -0.1350 n7        1 OTA     -0.806200
      2 C2          1.6270    0.2990    0.0430 c3        1 OTA      0.258100
      3 C3          2.0690    0.1640    1.4500 cc        1 OTA     -0.299400
      4 C4          1.2180    0.4200    2.5150 cd        1 OTA     -0.026300
      5 C5         -0.1740    0.8730    2.3210 c3        1 OTA     -0.045100
      6 C6         -0.6000    0.7660    0.8530 c3        1 OTA      0.146800
      7 S13         3.5860   -0.3130    1.9650 ss        1 OTA     -0.022800
      8 C14         3.1670   -0.1930    3.6310 cc        1 OTA      0.135500
      9 C15         1.8360    0.2210    3.7860 cd        1 OTA     -0.241600
     10 C16         1.1310    0.4320    5.0950 c         1 OTA      0.933200
     11 O17        -0.0760    0.8260    5.0850 o         1 OTA     -0.854800
     12 O18         1.7560    0.2130    6.1760 o         1 OTA     -0.854800
     13 N19         4.0590   -0.4790    4.6430 ns        1 OTA     -0.427100
     14 C20         5.3730   -0.8770    4.4270 c         1 OTA      0.538100
     15 C21         6.2740   -1.1640    5.6670 c         1 OTA      0.895600
     16 O22         6.2850   -2.3450    6.0950 o         1 OTA     -0.807300
     17 O23         6.9420   -0.1990    6.1130 o         1 OTA     -0.807300
     18 O24         5.8010   -0.9960    3.2550 o         1 OTA     -0.671100
     19 H1          0.6620    2.0690   -0.0140 hn        1 OTA      0.331800
     20 H21         1.4070   -0.7230   -0.3840 h1        1 OTA      0.025200
     21 H22A        2.4430    0.7580   -0.5850 h1        1 OTA      0.025200
     22 H51        -0.2620    1.9330    2.6820 hc        1 OTA      0.073700
     23 H52        -0.8600    0.2660    2.9720 hc        1 OTA      0.073700
     24 H61        -0.9280   -0.2910    0.6460 h1        1 OTA      0.025200
     25 H62        -1.4840    1.4400    0.6750 h1        1 OTA      0.025200
     26 H19         3.6990   -0.3790    5.5790 hn        1 OTA      0.376500
@<TRIPOS>BOND
     1    1    2 1   
     2    1    6 1   
     3    1   19 1   
     4    2    3 1   
     5    2   20 1   
     6    2   21 1   
     7    3    4 2   
     8    3    7 1   
     9    4    5 1   
    10    4    9 1   
    11    5    6 1   
    12    5   22 1   
    13    5   23 1   
    14    6   24 1   
    15    6   25 1   
    16    7    8 1   
    17    8    9 2   
    18    8   13 1   
    19    9   10 1   
    20   10   11 1   
    21   10   12 1   
    22   13   14 1   
    23   13   26 1   
    24   14   15 1   
    25   14   18 2   
    26   15   16 1   
    27   15   17 1   
@<TRIPOS>SUBSTRUCTURE
     1 OTA         1 TEMP              0 ****  ****    0 ROOT
