@<TRIPOS>MOLECULE
OTA
   26    27     1     0     0
SMALL
bcc


@<TRIPOS>ATOM
      1 N1         -1.3850   -0.6980   -4.3100 n3        1 OTA     -0.806200
      2 C2         -2.0630   -0.2730   -3.0870 c3        1 OTA      0.258100
      3 C3         -1.1790   -0.1620   -1.9040 cc        1 OTA     -0.299400
      4 C4          0.2000   -0.0750   -2.0240 cd        1 OTA     -0.026300
      5 C5          0.8820   -0.1170   -3.3330 c3        1 OTA     -0.045100
      6 C6         -0.1160   -0.0060   -4.4900 c3        1 OTA      0.146800
      7 S13        -1.6710   -0.1090   -0.3080 ss        1 OTA     -0.022800
      8 C14        -0.0610    0.0300    0.2870 cc        1 OTA      0.135500
      9 C15         0.8650    0.0350   -0.7660 cd        1 OTA     -0.241600
     10 C16         2.3560    0.1410   -0.6210 c         1 OTA      0.933200
     11 O17         3.0770    0.1170   -1.6650 o         1 OTA     -0.854800
     12 O18         2.8580    0.2530    0.5380 o         1 OTA     -0.854800
     13 N19         0.2280    0.1220    1.6320 n         1 OTA     -0.427100
     14 C20        -0.7360    0.1020    2.6340 c         1 OTA      0.538100
     15 C21        -0.2650    0.2110    4.1170 c         1 OTA      0.895600
     16 O22        -0.1920    1.3670    4.6020 o         1 OTA     -0.807300
     17 O23        -0.0340   -0.8690    4.7150 o         1 OTA     -0.807300
     18 O24        -1.9460   -0.0010    2.3290 o         1 OTA     -0.671100
     19 H1         -1.1940   -1.6840   -4.2360 hn        1 OTA      0.331800
     20 H21        -2.9030   -0.9970   -2.8850 h1        1 OTA      0.025200
     21 H22A       -2.5300    0.7320   -3.3060 h1        1 OTA      0.025200
     22 H51         1.4660   -1.0730   -3.4040 hc        1 OTA      0.073700
     23 H52         1.6380    0.7130   -3.3880 hc        1 OTA      0.073700
     24 H61         0.3620   -0.4060   -5.4280 h1        1 OTA      0.025200
     25 H62        -0.3530    1.0810   -4.6620 h1        1 OTA      0.025200
     26 H19         1.2060    0.2050    1.8610 hn        1 OTA      0.376500
@<TRIPOS>BOND
     1    1    2 1   
     2    1    6 1   
     3    1   19 1   
     4    2    3 1   
     5    2   20 1   
     6    2   21 1   
     7    3    4 2   
     8    3    7 1   
     9    4    5 1   
    10    4    9 1   
    11    5    6 1   
    12    5   22 1   
    13    5   23 1   
    14    6   24 1   
    15    6   25 1   
    16    7    8 1   
    17    8    9 2   
    18    8   13 1   
    19    9   10 1   
    20   10   11 1   
    21   10   12 1   
    22   13   14 1   
    23   13   26 1   
    24   14   15 1   
    25   14   18 2   
    26   15   16 1   
    27   15   17 1   
@<TRIPOS>SUBSTRUCTURE
     1 OTA         1 TEMP              0 ****  ****    0 ROOT
