@<TRIPOS>MOLECULE
OTB
   18    17     1     0     0
SMALL
bcc


@<TRIPOS>ATOM
      1 C          -0.0370   -0.0000   -1.3110 c         1 OTB      0.771200
      2 O1          1.1830   -0.0000   -1.4820 o         1 OTB     -0.599000
      3 O2         -0.9220   -0.0000   -2.3370 oh        1 OTB     -0.563100
      4 O          -0.7420    0.0000   -0.1650 os        1 OTB     -0.391900
      5 C'         -0.0040    0.0000    1.0970 c3        1 OTB      0.176800
      6 C1         -1.1210    0.0000    2.1350 c3        1 OTB     -0.117433
      7 C2          0.8410    1.2560    1.2100 c3        1 OTB     -0.117433
      8 C3          0.8410   -1.2560    1.2100 c3        1 OTB     -0.117433
      9 HO2        -0.4090   -0.0000   -3.1640 ho        1 OTB      0.454000
     10 H11        -0.6680    0.0000    3.1540 hc        1 OTB      0.055922
     11 H12        -1.7600    0.9060    2.0130 hc        1 OTB      0.055922
     12 H13        -1.7600   -0.9060    2.0130 hc        1 OTB      0.055922
     13 H21         0.2090    2.1610    1.0440 hc        1 OTB      0.055922
     14 H22         1.2920    1.3100    2.2290 hc        1 OTB      0.055922
     15 H23         1.6610    1.2440    0.4500 hc        1 OTB      0.055922
     16 H31         0.2090   -2.1610    1.0450 hc        1 OTB      0.055922
     17 H32         1.6600   -1.2440    0.4500 hc        1 OTB      0.055922
     18 H33         1.2920   -1.3100    2.2290 hc        1 OTB      0.055922
@<TRIPOS>BOND
     1    1    2 2   
     2    1    3 1   
     3    1    4 1   
     4    3    9 1   
     5    4    5 1   
     6    5    6 1   
     7    5    7 1   
     8    5    8 1   
     9    6   10 1   
    10    6   11 1   
    11    6   12 1   
    12    7   13 1   
    13    7   14 1   
    14    7   15 1   
    15    8   16 1   
    16    8   17 1   
    17    8   18 1   
@<TRIPOS>SUBSTRUCTURE
     1 OTB         1 TEMP              0 ****  ****    0 ROOT
