@<TRIPOS>MOLECULE
OTB
   18    16     1     0     0
SMALL
bcc


@<TRIPOS>ATOM
      1 C          -0.2920    0.2990    1.8870 c1        1 OTB      0.402000
      2 O1          0.9070    0.4960    1.9290 o         1 OTB     -0.410000
      3 O2         -1.0050    0.0440    3.0720 o         1 OTB     -0.272000
      4 O          -0.9680    0.3520    0.6590 os        1 OTB     -0.230000
      5 C'         -0.1690    0.0240   -0.4450 c3        1 OTB      0.105000
      6 C1         -1.0390   -0.1230   -1.6710 c3        1 OTB     -0.235333
      7 C2          0.5500   -1.2820   -0.1770 c3        1 OTB     -0.235333
      8 C3          0.8480    1.1210   -0.6760 c3        1 OTB     -0.235333
      9 HO2        -0.4660    0.1500    3.7700 ho        1 OTB      0.253000
     10 H11        -0.4860   -0.3940   -2.4330 hc        1 OTB      0.095222
     11 H12        -1.7240   -0.8040   -1.5060 hc        1 OTB      0.095222
     12 H13        -1.4710    0.7340   -1.8700 hc        1 OTB      0.095222
     13 H21         0.8750   -1.6550   -1.0230 hc        1 OTB      0.095222
     14 H22         1.3080   -1.1200    0.4210 hc        1 OTB      0.095222
     15 H23        -0.0690   -1.9150    0.2440 hc        1 OTB      0.095222
     16 H31         1.1580    1.0880   -1.6050 hc        1 OTB      0.095222
     17 H32         1.6090    0.9930   -0.0730 hc        1 OTB      0.095222
     18 H33         0.4340    1.9920   -0.5010 hc        1 OTB      0.095222
@<TRIPOS>BOND
     1    1    2 1   
     2    1    4 1   
     3    3    9 1   
     4    4    5 1   
     5    5    6 1   
     6    5    7 1   
     7    5    8 1   
     8    6   10 1   
     9    6   11 1   
    10    6   12 1   
    11    7   13 1   
    12    7   14 1   
    13    7   15 1   
    14    8   16 1   
    15    8   17 1   
    16    8   18 1   
@<TRIPOS>SUBSTRUCTURE
     1 OTB         1 TEMP              0 ****  ****    0 ROOT
