@<TRIPOS>MOLECULE
OTC
   57    60     1     0     0
SMALL
bcc


@<TRIPOS>ATOM
      1 C1         -1.8170   -1.1830   -0.5040 c         1 OTC      0.592300
      2 O1         -1.7500   -2.2820   -1.0710 o         1 OTC     -0.547100
      3 C2         -2.5490   -0.0290   -1.0160 ce        1 OTC     -0.389400
      4 O21        -3.5620    1.0310   -2.8980 o         1 OTC     -0.685100
      5 C21        -2.8180    0.1070   -2.4690 c         1 OTC      0.699300
      6 N21        -2.2420   -0.7370   -3.3730 n         1 OTC     -0.640000
      7 C3         -3.0030    0.9140   -0.1310 c2        1 OTC      0.267900
      8 O3         -3.7150    2.0210   -0.4100 oh        1 OTC     -0.488100
      9 C4         -2.7270    0.8300    1.3700 c3        1 OTC      0.191700
     10 N4         -3.7570    0.0290    2.0450 n3        1 OTC     -0.738600
     11 C41        -3.4970   -0.1300    3.4620 c3        1 OTC      0.141600
     12 C42        -5.0950    0.5240    1.7820 c3        1 OTC      0.141600
     13 C4A        -1.2880    0.2920    1.5470 c3        1 OTC     -0.103700
     14 C5         -0.3200    1.3740    1.0400 c3        1 OTC      0.141100
     15 O5         -0.4390    2.5090    1.8900 oh        1 OTC     -0.597800
     16 C5A         1.1510    0.9400    0.9380 c3        1 OTC     -0.003500
     17 C6          1.8640    1.6970   -0.2160 c3        1 OTC      0.206100
     18 O6          1.0130    1.5930   -1.3600 oh        1 OTC     -0.595800
     19 C61         2.0120    3.1700    0.1760 c3        1 OTC     -0.133100
     20 C6A         3.2270    1.1210   -0.5460 ca        1 OTC     -0.031300
     21 C7          4.0500    1.8580   -1.3970 ca        1 OTC     -0.190000
     22 C8          5.3260    1.4000   -1.7360 ca        1 OTC     -0.068000
     23 C9          5.7940    0.2010   -1.2300 ca        1 OTC     -0.176000
     24 C10         4.9650   -0.5640   -0.3790 ca        1 OTC      0.204100
     25 O10         5.5420   -1.7240    0.0500 oh        1 OTC     -0.503100
     26 C6B         3.6670   -0.1200   -0.0430 ca        1 OTC     -0.235600
     27 C11         2.7640   -0.9480    0.7750 c         1 OTC      0.617900
     28 O11         3.1610   -1.9350    1.4140 o         1 OTC     -0.551100
     29 C5B         1.3520   -0.5220    0.7990 ce        1 OTC     -0.262400
     30 C12         0.3440   -1.4210    0.7160 c2        1 OTC      0.175900
     31 O12         0.6360   -2.7390    0.5120 oh        1 OTC     -0.465100
     32 C4B        -1.1210   -1.0630    0.8650 c3        1 OTC      0.087000
     33 O13        -1.6300   -2.0960    1.7170 oh        1 OTC     -0.590800
     34 H211       -1.7290   -1.5350   -3.0880 hn        1 OTC      0.326500
     35 H212       -2.4770   -0.6350   -4.3300 hn        1 OTC      0.326500
     36 H3         -3.8750    2.1290   -1.3710 ho        1 OTC      0.490000
     37 H4         -2.7300    1.8970    1.7680 h1        1 OTC      0.088700
     38 H4A        -1.0830    0.1390    2.6450 hc        1 OTC      0.089700
     39 H411       -3.2480    0.8360    3.9790 h1        1 OTC      0.044700
     40 H412       -4.4020   -0.5730    3.9570 h1        1 OTC      0.044700
     41 H413       -2.6420   -0.8470    3.5920 h1        1 OTC      0.044700
     42 H421       -5.2950    0.4810    0.6790 h1        1 OTC      0.044700
     43 H422       -5.8330   -0.1410    2.3030 h1        1 OTC      0.044700
     44 H423       -5.2500    1.5820    2.1290 h1        1 OTC      0.044700
     45 H5         -0.6740    1.7580    0.0370 h1        1 OTC      0.113700
     46 HA         -0.0850    2.2710    2.7560 ho        1 OTC      0.401000
     47 H5A         1.6750    1.2640    1.8870 hc        1 OTC      0.066700
     48 H6          1.4980    1.9630   -2.1080 ho        1 OTC      0.411000
     49 H611        2.8210    3.2850    0.9340 hc        1 OTC      0.054367
     50 H612        2.2600    3.7910   -0.7180 hc        1 OTC      0.054367
     51 H613        1.0520    3.5520    0.6020 hc        1 OTC      0.054367
     52 H7          3.7040    2.8170   -1.8110 ha        1 OTC      0.134000
     53 H8          5.9600    1.9990   -2.4080 ha        1 OTC      0.139000
     54 H9          6.7970   -0.1780   -1.4750 ha        1 OTC      0.157000
     55 H10         4.9270   -2.2330    0.6050 ho        1 OTC      0.463000
     56 H12        -0.1990   -3.2410    0.4890 ho        1 OTC      0.454000
     57 H13        -2.5890   -2.1300    1.6050 ho        1 OTC      0.437000
@<TRIPOS>BOND
     1    1    2 2   
     2    1    3 1   
     3    1   32 1   
     4    3    5 1   
     5    3    7 2   
     6    4    5 2   
     7    5    6 1   
     8    6   34 1   
     9    6   35 1   
    10    7    8 1   
    11    7    9 1   
    12    8   36 1   
    13    9   10 1   
    14    9   13 1   
    15    9   37 1   
    16   10   11 1   
    17   10   12 1   
    18   11   39 1   
    19   11   40 1   
    20   11   41 1   
    21   12   42 1   
    22   12   43 1   
    23   12   44 1   
    24   13   14 1   
    25   13   32 1   
    26   13   38 1   
    27   14   15 1   
    28   14   16 1   
    29   14   45 1   
    30   15   46 1   
    31   16   17 1   
    32   16   29 1   
    33   16   47 1   
    34   17   18 1   
    35   17   19 1   
    36   17   20 1   
    37   18   48 1   
    38   19   49 1   
    39   19   50 1   
    40   19   51 1   
    41   20   21 ar  
    42   20   26 ar  
    43   21   22 ar  
    44   21   52 1   
    45   22   23 ar  
    46   22   53 1   
    47   23   24 ar  
    48   23   54 1   
    49   24   25 1   
    50   24   26 ar  
    51   25   55 1   
    52   26   27 1   
    53   27   28 2   
    54   27   29 1   
    55   29   30 2   
    56   30   31 1   
    57   30   32 1   
    58   31   56 1   
    59   32   33 1   
    60   33   57 1   
@<TRIPOS>SUBSTRUCTURE
     1 OTC         1 TEMP              0 ****  ****    0 ROOT
