@<TRIPOS>MOLECULE
OTC
   59    62     1     0     0
SMALL
bcc


@<TRIPOS>ATOM
      1 C1         -0.0120   -0.0060    0.1870 c         1 OTC      0.568300
      2 O1         -0.5670    0.0650   -0.9110 o         1 OTC     -0.479100
      3 C2          1.3800   -0.4870    0.3090 ce        1 OTC     -0.337400
      4 O21         3.1210   -1.1180   -1.2640 o         1 OTC     -0.367100
      5 C21         1.9780   -1.1780   -0.8430 c         1 OTC      0.579300
      6 N21         1.0410   -2.1020   -1.5810 nz        1 OTC     -0.755400
      7 C3          2.1110   -0.3040    1.4520 c2        1 OTC      0.221900
      8 O3          3.3920   -0.7330    1.4730 oh        1 OTC     -0.436100
      9 C4          1.4920    0.2700    2.7160 c3        1 OTC      0.122700
     10 N4          1.7460    1.7510    2.8490 nx        1 OTC     -0.676400
     11 C41         1.1190    2.2960    4.0880 c3        1 OTC      0.073600
     12 C42         3.2030    2.0520    2.8320 c3        1 OTC      0.073600
     13 C4A        -0.0050   -0.1180    2.7260 c3        1 OTC     -0.103700
     14 C5         -0.0790   -1.6610    2.8390 c3        1 OTC      0.151100
     15 O5          0.5340   -2.0000    4.0710 oh        1 OTC     -0.611800
     16 C5A        -1.4830   -2.2520    2.6720 c3        1 OTC     -0.021500
     17 C6         -1.4190   -3.6430    1.9870 c3        1 OTC      0.223100
     18 O6         -0.7740   -3.4750    0.7090 oh        1 OTC     -0.670800
     19 C61        -0.5730   -4.5990    2.8310 c3        1 OTC     -0.137100
     20 C6A        -2.8120   -4.2050    1.7980 ca        1 OTC     -0.069300
     21 C7         -2.9660   -5.5770    1.6210 ca        1 OTC     -0.174000
     22 C8         -4.2420   -6.1450    1.4880 ca        1 OTC     -0.038000
     23 C9         -5.3710   -5.3470    1.5280 ca        1 OTC     -0.202000
     24 C10        -5.2260   -3.9530    1.6820 ca        1 OTC      0.210100
     25 O10        -6.2960   -3.1090    1.7120 oh        1 OTC     -0.450100
     26 C6B        -3.9450   -3.3660    1.8020 ca        1 OTC     -0.203600
     27 C11        -3.8320   -1.9080    1.8780 c         1 OTC      0.600900
     28 O11        -4.7990   -1.1370    1.8260 o         1 OTC     -0.506100
     29 C5B        -2.4510   -1.3670    1.9730 ce        1 OTC     -0.263400
     30 C12        -2.1400   -0.1510    1.4760 c2        1 OTC      0.117900
     31 O12        -2.9810    0.7520    0.9010 oh        1 OTC     -0.505100
     32 C4B        -0.7290    0.4010    1.4810 c3        1 OTC      0.138000
     33 O13        -0.7120    1.8200    1.5550 oh        1 OTC     -0.635800
     34 H211        1.5670   -2.6860   -2.2430 hn        1 OTC      0.486800
     35 H212        0.3500   -1.5350   -2.0990 hn        1 OTC      0.486800
     36 H3          3.7560   -0.7040    2.3790 ho        1 OTC      0.475000
     37 H4          1.9680   -0.2330    3.6230 hx        1 OTC      0.153700
     38 H4A        -0.5050    0.3200    3.6360 hc        1 OTC      0.122700
     39 H411        0.0030    2.3390    3.9450 hx        1 OTC      0.116867
     40 H412        1.5020    3.3400    4.2620 hx        1 OTC      0.116867
     41 H413        1.3780    1.6510    4.9680 hx        1 OTC      0.116867
     42 H421        3.7020    1.5650    3.7120 hx        1 OTC      0.116867
     43 H422        3.3480    3.1670    2.9000 hx        1 OTC      0.116867
     44 H423        3.6600    1.6860    1.8730 hx        1 OTC      0.116867
     45 H5          0.5970   -2.1210    2.0570 h1        1 OTC      0.078700
     46 HA         -0.1460   -2.1440    4.7440 ho        1 OTC      0.442000
     47 H5A        -1.9090   -2.4490    3.7050 hc        1 OTC      0.100700
     48 H6         -1.0210   -4.2510    0.1880 ho        1 OTC      0.429000
     49 H611        0.3660   -4.1080    3.1800 hc        1 OTC      0.065033
     50 H612       -0.2810   -5.4930    2.2270 hc        1 OTC      0.065033
     51 H613       -1.1560   -4.9400    3.7200 hc        1 OTC      0.065033
     52 H7         -2.0920   -6.2450    1.5970 ha        1 OTC      0.146000
     53 H8         -4.3400   -7.2360    1.3590 ha        1 OTC      0.166000
     54 H9         -6.3770   -5.7870    1.4380 ha        1 OTC      0.169000
     55 H10        -7.1120   -3.6330    1.6330 ho        1 OTC      0.446000
     56 H12        -3.9110    0.4470    0.9460 ho        1 OTC      0.501000
     57 H13        -1.4400    2.1800    1.0160 ho        1 OTC      0.493000
     58 H213        0.5350   -2.6960   -0.9080 hn        1 OTC      0.486800
     59 H41         1.2980    2.2260    2.0420 hn        1 OTC      0.482800
@<TRIPOS>BOND
     1    1    2 2   
     2    1    3 1   
     3    1   32 1   
     4    3    5 1   
     5    3    7 2   
     6    4    5 2   
     7    5    6 1   
     8    6   34 1   
     9    6   35 1   
    10    6   58 1   
    11    7    8 1   
    12    7    9 1   
    13    8   36 1   
    14    9   10 1   
    15    9   13 1   
    16    9   37 1   
    17   10   11 1   
    18   10   12 1   
    19   10   59 1   
    20   11   39 1   
    21   11   40 1   
    22   11   41 1   
    23   12   42 1   
    24   12   43 1   
    25   12   44 1   
    26   13   14 1   
    27   13   32 1   
    28   13   38 1   
    29   14   15 1   
    30   14   16 1   
    31   14   45 1   
    32   15   46 1   
    33   16   17 1   
    34   16   29 1   
    35   16   47 1   
    36   17   18 1   
    37   17   19 1   
    38   17   20 1   
    39   18   48 1   
    40   19   49 1   
    41   19   50 1   
    42   19   51 1   
    43   20   21 ar  
    44   20   26 ar  
    45   21   22 ar  
    46   21   52 1   
    47   22   23 ar  
    48   22   53 1   
    49   23   24 ar  
    50   23   54 1   
    51   24   25 1   
    52   24   26 ar  
    53   25   55 1   
    54   26   27 1   
    55   27   28 2   
    56   27   29 1   
    57   29   30 2   
    58   30   31 1   
    59   30   32 1   
    60   31   56 1   
    61   32   33 1   
    62   33   57 1   
@<TRIPOS>SUBSTRUCTURE
     1 OTC         1 TEMP              0 ****  ****    0 ROOT
