@<TRIPOS>MOLECULE
OTC
   59    62     1     0     0
SMALL
bcc


@<TRIPOS>ATOM
      1 C1          1.3360    0.0410    0.0310 c         1 OTC      0.568300
      2 O1          1.9640   -0.3520   -0.9540 o         1 OTC     -0.479100
      3 C2          2.0340    0.4510    1.2670 ce        1 OTC     -0.337400
      4 O21         4.3610    0.7240    1.9130 o         1 OTC     -0.367100
      5 C21         3.4490    0.0820    1.4190 c         1 OTC      0.579300
      6 N21         3.8010   -1.2940    0.9090 n4        1 OTC     -0.755400
      7 C3          1.4010    1.1560    2.2550 c2        1 OTC      0.221900
      8 O3          2.1170    1.5330    3.3380 oh        1 OTC     -0.436100
      9 C4         -0.0940    1.4320    2.2120 c3        1 OTC      0.122700
     10 N4         -0.4000    2.8000    1.6550 n4        1 OTC     -0.676400
     11 C41        -1.8720    3.0450    1.6080 c3        1 OTC      0.073600
     12 C42         0.2760    3.8660    2.4410 c3        1 OTC      0.073600
     13 C4A        -0.7650    0.2700    1.4430 c3        1 OTC     -0.103700
     14 C5         -0.5600   -1.0150    2.2820 c3        1 OTC      0.151100
     15 O5         -1.2120   -0.7910    3.5190 oh        1 OTC     -0.611800
     16 C5A        -0.9930   -2.3120    1.5890 c3        1 OTC     -0.021500
     17 C6         -0.0840   -3.4960    2.0130 c3        1 OTC      0.223100
     18 O6          1.2730   -3.1540    1.6670 oh        1 OTC     -0.670800
     19 C61        -0.1590   -3.6920    3.5280 c3        1 OTC     -0.137100
     20 C6A        -0.5000   -4.7650    1.2990 ca        1 OTC     -0.069300
     21 C7         -0.1290   -5.9930    1.8400 ca        1 OTC     -0.174000
     22 C8         -0.5320   -7.1930    1.2380 ca        1 OTC     -0.038000
     23 C9         -1.3040   -7.1760    0.0890 ca        1 OTC     -0.202000
     24 C10        -1.6640   -5.9380   -0.4810 ca        1 OTC      0.210100
     25 O10        -2.4080   -5.8510   -1.6200 oh        1 OTC     -0.450100
     26 C6B        -1.2520   -4.7200    0.1080 ca        1 OTC     -0.203600
     27 C11        -1.5760   -3.4580   -0.5590 c         1 OTC      0.600900
     28 O11        -2.1830   -3.3820   -1.6350 o         1 OTC     -0.506100
     29 C5B        -1.0840   -2.2240    0.1080 ce        1 OTC     -0.263400
     30 C12        -0.7760   -1.1190   -0.6050 c2        1 OTC      0.117900
     31 O12        -0.9110   -0.9300   -1.9460 oh        1 OTC     -0.505100
     32 C4B        -0.1960    0.1300    0.0290 c3        1 OTC      0.138000
     33 O13        -0.5580    1.3050   -0.6820 oh        1 OTC     -0.635800
     34 H211        4.7460   -1.5550    1.2150 hn        1 OTC      0.486800
     35 H212        3.1140   -1.9800    1.2520 hn        1 OTC      0.486800
     36 H3          1.5330    1.8760    4.0420 ho        1 OTC      0.475000
     37 H4         -0.5050    1.4040    3.2750 hx        1 OTC      0.153700
     38 H4A        -1.8730    0.4590    1.3630 hc        1 OTC      0.122700
     39 H411       -2.3190    2.4300    0.7770 hx        1 OTC      0.116867
     40 H412       -2.0530    4.1340    1.3930 hx        1 OTC      0.116867
     41 H413       -2.3390    2.7750    2.5920 hx        1 OTC      0.116867
     42 H421       -0.1060    3.8610    3.4970 hx        1 OTC      0.116867
     43 H422        0.0480    4.8660    1.9740 hx        1 OTC      0.116867
     44 H423        1.3880    3.7070    2.4280 hx        1 OTC      0.116867
     45 H5          0.5340   -1.1060    2.5560 h1        1 OTC      0.077700
     46 HA         -2.0850   -1.2090    3.5070 ho        1 OTC      0.442000
     47 H5A        -2.0290   -2.5840    1.9620 hc        1 OTC      0.100700
     48 H6          1.7560   -3.9910    1.6440 ho        1 OTC      0.429000
     49 H611       -0.0890   -2.7160    4.0670 hc        1 OTC      0.065033
     50 H612        0.6870   -4.3310    3.8790 hc        1 OTC      0.065033
     51 H613       -1.1220   -4.1880    3.8000 hc        1 OTC      0.065033
     52 H7          0.4730   -6.0470    2.7600 ha        1 OTC      0.146000
     53 H8         -0.2350   -8.1550    1.6900 ha        1 OTC      0.166000
     54 H9         -1.6360   -8.1150   -0.3820 ha        1 OTC      0.169000
     55 H10        -2.6360   -6.7490   -1.9160 ho        1 OTC      0.446000
     56 H12        -1.3470   -1.6990   -2.3680 ho        1 OTC      0.501000
     57 H13        -0.5480    1.1200   -1.6390 ho        1 OTC      0.493000
     58 H213        3.7670   -1.2870   -0.1240 hn        1 OTC      0.486800
     59 H41        -0.0510    2.8330    0.6780 hn        1 OTC      0.482800
@<TRIPOS>BOND
     1    1    2 2   
     2    1    3 1   
     3    1   32 1   
     4    3    5 1   
     5    3    7 2   
     6    4    5 2   
     7    5    6 1   
     8    6   34 1   
     9    6   35 1   
    10    6   58 1   
    11    7    8 1   
    12    7    9 1   
    13    8   36 1   
    14    9   10 1   
    15    9   13 1   
    16    9   37 1   
    17   10   11 1   
    18   10   12 1   
    19   10   59 1   
    20   11   39 1   
    21   11   40 1   
    22   11   41 1   
    23   12   42 1   
    24   12   43 1   
    25   12   44 1   
    26   13   14 1   
    27   13   32 1   
    28   13   38 1   
    29   14   15 1   
    30   14   16 1   
    31   14   45 1   
    32   15   46 1   
    33   16   17 1   
    34   16   29 1   
    35   16   47 1   
    36   17   18 1   
    37   17   19 1   
    38   17   20 1   
    39   18   48 1   
    40   19   49 1   
    41   19   50 1   
    42   19   51 1   
    43   20   21 ar  
    44   20   26 ar  
    45   21   22 ar  
    46   21   52 1   
    47   22   23 ar  
    48   22   53 1   
    49   23   24 ar  
    50   23   54 1   
    51   24   25 1   
    52   24   26 ar  
    53   25   55 1   
    54   26   27 1   
    55   27   28 2   
    56   27   29 1   
    57   29   30 2   
    58   30   31 1   
    59   30   32 1   
    60   31   56 1   
    61   32   33 1   
    62   33   57 1   
@<TRIPOS>SUBSTRUCTURE
     1 OTC         1 TEMP              0 ****  ****    0 ROOT
