@<TRIPOS>MOLECULE
OTC
   59    62     1     0     0
SMALL
bcc


@<TRIPOS>ATOM
      1 C1         -0.0500    0.0130    0.1970 c         1 OTC      0.579300
      2 O1         -0.6100    0.0860   -0.8990 o         1 OTC     -0.494100
      3 C2          1.3460   -0.4580    0.3150 ce        1 OTC     -0.407400
      4 O21         3.1080   -1.4490   -0.9960 o         1 OTC     -0.449100
      5 C21         1.9160   -1.2630   -0.7610 c         1 OTC      0.585300
      6 N21         0.9540   -2.0060   -1.6370 n4        1 OTC     -0.741400
      7 C3          2.0990   -0.1380    1.4200 c2        1 OTC      0.275900
      8 O3          3.4200   -0.3070    1.5770 oh        1 OTC     -0.452100
      9 C4          1.4680    0.3450    2.7250 c3        1 OTC      0.152700
     10 N4          1.7040    1.8060    3.0110 n4        1 OTC     -0.677400
     11 C41         1.5050    2.0870    4.4640 c3        1 OTC      0.081600
     12 C42         3.0620    2.2500    2.5970 c3        1 OTC      0.081600
     13 C4A        -0.0220   -0.0600    2.7320 c3        1 OTC     -0.108700
     14 C5         -0.0850   -1.6030    2.8530 c3        1 OTC      0.153100
     15 O5          0.5150   -1.9360    4.0920 oh        1 OTC     -0.604800
     16 C5A        -1.4820   -2.2100    2.6750 c3        1 OTC     -0.022500
     17 C6         -1.4010   -3.5970    1.9850 c3        1 OTC      0.223100
     18 O6         -0.7480   -3.4220    0.7120 oh        1 OTC     -0.671800
     19 C61        -0.5570   -4.5490    2.8350 c3        1 OTC     -0.138100
     20 C6A        -2.7880   -4.1700    1.7800 ca        1 OTC     -0.068300
     21 C7         -2.9240   -5.5420    1.5820 ca        1 OTC     -0.176000
     22 C8         -4.1910   -6.1240    1.4360 ca        1 OTC     -0.038000
     23 C9         -5.3310   -5.3410    1.4840 ca        1 OTC     -0.203000
     24 C10        -5.2040   -3.9480    1.6590 ca        1 OTC      0.210100
     25 O10        -6.2850   -3.1190    1.6970 oh        1 OTC     -0.450100
     26 C6B        -3.9310   -3.3460    1.7930 ca        1 OTC     -0.202600
     27 C11        -3.8370   -1.8880    1.8900 c         1 OTC      0.600900
     28 O11        -4.8140   -1.1290    1.8540 o         1 OTC     -0.506100
     29 C5B        -2.4620   -1.3330    1.9860 ce        1 OTC     -0.265400
     30 C12        -2.1660   -0.1090    1.4970 c2        1 OTC      0.116900
     31 O12        -3.0190    0.7930    0.9390 oh        1 OTC     -0.504100
     32 C4B        -0.7550    0.4440    1.4870 c3        1 OTC      0.141000
     33 O13        -0.7310    1.8630    1.5350 oh        1 OTC     -0.633800
     34 H211        0.3970   -1.3270   -2.1860 hn        1 OTC      0.493467
     35 H212        0.3040   -2.5500   -1.0460 hn        1 OTC      0.493467
     36 H3          3.8580   -0.7160    0.7980 ho        1 OTC      0.503000
     37 H4          1.9840   -0.2430    3.5620 hx        1 OTC      0.172700
     38 H4A        -0.5310    0.3800    3.6370 hc        1 OTC      0.119700
     39 H411        1.6250    3.1930    4.6350 hx        1 OTC      0.114533
     40 H412        2.2700    1.5300    5.0680 hx        1 OTC      0.114533
     41 H413        0.4720    1.7780    4.7750 hx        1 OTC      0.114533
     42 H421        3.2240    3.3080    2.9450 hx        1 OTC      0.114533
     43 H422        3.8400    1.5800    3.0560 hx        1 OTC      0.114533
     44 H423        3.1450    2.2130    1.4780 hx        1 OTC      0.114533
     45 H5          0.6060   -2.0570    2.0810 h1        1 OTC      0.077700
     46 HA         -0.1720   -2.0420    4.7660 ho        1 OTC      0.439000
     47 H5A        -1.9070   -2.4200    3.7060 hc        1 OTC      0.100700
     48 H6         -0.9380   -4.2270    0.2120 ho        1 OTC      0.427000
     49 H611       -1.1500   -4.9030    3.7120 hc        1 OTC      0.066033
     50 H612       -0.2440   -5.4350    2.2310 hc        1 OTC      0.066033
     51 H613        0.3700   -4.0480    3.2040 hc        1 OTC      0.066033
     52 H7         -2.0410   -6.1980    1.5530 ha        1 OTC      0.145000
     53 H8         -4.2750   -7.2150    1.2910 ha        1 OTC      0.165000
     54 H9         -6.3310   -5.7930    1.3850 ha        1 OTC      0.168000
     55 H10        -7.0940   -3.6520    1.6110 ho        1 OTC      0.446000
     56 H12        -3.9460    0.4840    1.0000 ho        1 OTC      0.501000
     57 H13        -1.4730    2.2190    1.0140 ho        1 OTC      0.494000
     58 H213        1.4640   -2.6320   -2.2750 hn        1 OTC      0.493467
     59 H41         1.0040    2.3590    2.4820 hn        1 OTC      0.485800
@<TRIPOS>BOND
     1    1    2 2   
     2    1    3 1   
     3    1   32 1   
     4    3    5 1   
     5    3    7 2   
     6    4    5 2   
     7    5    6 1   
     8    6   34 1   
     9    6   35 1   
    10    6   58 1   
    11    7    8 1   
    12    7    9 1   
    13    8   36 1   
    14    9   10 1   
    15    9   13 1   
    16    9   37 1   
    17   10   11 1   
    18   10   12 1   
    19   10   59 1   
    20   11   39 1   
    21   11   40 1   
    22   11   41 1   
    23   12   42 1   
    24   12   43 1   
    25   12   44 1   
    26   13   14 1   
    27   13   32 1   
    28   13   38 1   
    29   14   15 1   
    30   14   16 1   
    31   14   45 1   
    32   15   46 1   
    33   16   17 1   
    34   16   29 1   
    35   16   47 1   
    36   17   18 1   
    37   17   19 1   
    38   17   20 1   
    39   18   48 1   
    40   19   49 1   
    41   19   50 1   
    42   19   51 1   
    43   20   21 ar  
    44   20   26 ar  
    45   21   22 ar  
    46   21   52 1   
    47   22   23 ar  
    48   22   53 1   
    49   23   24 ar  
    50   23   54 1   
    51   24   25 1   
    52   24   26 ar  
    53   25   55 1   
    54   26   27 1   
    55   27   28 2   
    56   27   29 1   
    57   29   30 2   
    58   30   31 1   
    59   30   32 1   
    60   31   56 1   
    61   32   33 1   
    62   33   57 1   
@<TRIPOS>SUBSTRUCTURE
     1 OTC         1 TEMP              0 ****  ****    0 ROOT
