@<TRIPOS>MOLECULE
OTC
   57    55     1     0     0
SMALL
bcc


@<TRIPOS>ATOM
      1 C1          0.9910    0.7820   -0.4510 c1        1 OTC      0.304000
      2 O1          0.8240    0.2560   -1.5530 o         1 OTC     -0.245000
      3 C2          2.2870    1.1670   -0.0410 c1        1 OTC     -0.258000
      4 O21         3.3220    0.5270   -2.1350 o         1 OTC     -0.354000
      5 C21         3.4980    0.9960   -1.0140 c2        1 OTC      0.367000
      6 N21         4.8060    1.3200   -0.5810 n         1 OTC     -0.415000
      7 C3          2.3430    1.9140    0.8110 c1        1 OTC      0.111000
      8 O3          3.5370    2.6570    1.0330 o         1 OTC     -0.220333
      9 C4          1.2270    2.3490    1.2550 c3        1 OTC     -0.012000
     10 N4          1.0980    3.8020    1.0110 n3        1 OTC     -0.270000
     11 C41         2.3560    4.3330    0.6070 c3        1 OTC     -0.128000
     12 C42         0.6640    4.4600    2.2320 c3        1 OTC     -0.128000
     13 C4A        -0.2490    1.3910    0.5710 c3        1 OTC     -0.112000
     14 C5         -0.2210   -0.1780    1.4230 c3        1 OTC      0.036000
     15 O5         -0.4070    0.0240    2.6050 oh        1 OTC     -0.351000
     16 C5A        -1.3530   -1.3110    0.8890 c3        1 OTC     -0.097000
     17 C6         -0.6340   -2.2420   -0.4400 c3        1 OTC      0.122000
     18 O6          0.4210   -3.0350    0.0980 oh        1 OTC     -0.336000
     19 C61        -0.0420   -1.2800   -1.4120 c3        1 OTC     -0.204000
     20 C6A        -1.5100   -3.1100   -1.1510 c2        1 OTC     -0.044000
     21 C7         -0.9900   -4.2210   -1.8800 c2        1 OTC     -0.173000
     22 C8         -1.8140   -5.2570   -2.2300 c1        1 OTC     -0.068000
     23 C9         -3.1180   -5.2250   -1.8840 c1        1 OTC     -0.228000
     24 C10        -3.6110   -4.1610   -1.1870 c1        1 OTC      0.132000
     25 O10        -4.9560   -4.1200   -0.8410 o         1 OTC     -0.220333
     26 C6B        -2.7460   -3.0800   -0.8230 c2        1 OTC     -0.155000
     27 C11        -3.1550   -2.0620    0.2360 c2        1 OTC      0.314000
     28 O11        -4.3420   -1.7880    0.3950 o         1 OTC     -0.246000
     29 C5B        -2.0020   -1.0360    0.7740 c2        1 OTC     -0.235000
     30 C12        -1.7670    0.4180   -0.1320 c1        1 OTC      0.092000
     31 O12        -2.8800    1.0900   -0.6850 o         1 OTC     -0.220333
     32 C4B        -0.2640    1.3750    0.3530 c3        1 OTC      0.039000
     33 O13        -0.4550    2.7150   -0.1350 oh        1 OTC     -0.310000
     34 H211        4.9710    1.4610    0.2970 hn        1 OTC      0.225000
     35 H212        5.4870    1.4110   -1.2000 hn        1 OTC      0.225000
     36 H3          3.9570    2.3380    1.7690 ho        1 OTC      0.233000
     37 H4          1.2130    2.3250    2.2400 h1        1 OTC      0.138000
     38 H4A        -1.0810    1.8790    0.8830 hc        1 OTC      0.134000
     39 H411        3.0460    4.0560    1.2430 h1        1 OTC      0.081833
     40 H412        2.3040    5.3370    0.5850 h1        1 OTC      0.081833
     41 H413        2.5800    3.9980   -0.2840 h1        1 OTC      0.081833
     42 H421        1.2370    5.2220    2.4100 h1        1 OTC      0.081833
     43 H422        0.7180    3.8350    2.9750 h1        1 OTC      0.081833
     44 H423       -0.2540    4.7630    2.1290 h1        1 OTC      0.081833
     45 H5          0.6590   -0.5600    1.3170 h1        1 OTC      0.104000
     46 HA          0.2270   -0.4040    3.0890 ho        1 OTC      0.233000
     47 H5A        -1.4650   -1.9480    1.6300 hc        1 OTC      0.110000
     48 H6          0.0740   -3.6980    0.5950 ho        1 OTC      0.210000
     49 H611       -0.7680   -0.8110   -1.9020 hc        1 OTC      0.097667
     50 H612        0.5300   -1.7720   -2.0570 hc        1 OTC      0.097667
     51 H613        0.5040   -0.6210   -0.9260 hc        1 OTC      0.097667
     52 H7         -0.0520   -4.2420   -2.1280 ha        1 OTC      0.150000
     53 H8         -1.4580   -6.0180   -2.7300 ha        1 OTC      0.137000
     54 H9         -3.7230   -5.9810   -2.1380 ha        1 OTC      0.138000
     55 H10        -5.4250   -3.9010   -1.5360 ho        1 OTC      0.233000
     56 H12        -2.8420    1.0410   -1.6030 ho        1 OTC      0.233000
     57 H13        -1.2940    2.8230   -0.3780 ho        1 OTC      0.229000
@<TRIPOS>BOND
     1    1    2 1   
     2    1   32 1   
     3    3    5 1   
     4    3    7 1   
     5    4    5 1   
     6    5    6 1   
     7    6   34 1   
     8    6   35 1   
     9    7    9 1   
    10    8   36 1   
    11    9   10 1   
    12    9   13 1   
    13    9   37 1   
    14   10   11 1   
    15   10   12 1   
    16   11   39 1   
    17   11   40 1   
    18   11   41 1   
    19   12   42 1   
    20   12   43 1   
    21   12   44 1   
    22   13   14 1   
    23   13   32 1   
    24   13   38 1   
    25   14   15 1   
    26   14   16 1   
    27   14   45 1   
    28   15   46 1   
    29   16   17 1   
    30   16   29 1   
    31   16   47 1   
    32   17   18 1   
    33   17   19 1   
    34   17   20 1   
    35   18   48 1   
    36   19   49 1   
    37   19   50 1   
    38   19   51 1   
    39   20   21 1   
    40   20   26 1   
    41   21   22 1   
    42   21   52 1   
    43   22   53 1   
    44   23   24 1   
    45   23   54 1   
    46   24   26 1   
    47   25   55 1   
    48   26   27 1   
    49   27   28 1   
    50   27   29 1   
    51   29   30 1   
    52   30   32 1   
    53   31   56 1   
    54   32   33 1   
    55   33   57 1   
@<TRIPOS>SUBSTRUCTURE
     1 OTC         1 TEMP              0 ****  ****    0 ROOT
