@<TRIPOS>MOLECULE
OTD
   17    16     1     0     0
SMALL
bcc


@<TRIPOS>ATOM
      1 N1         -0.2060    0.8780   -0.0700 nu        1 OTD     -0.175600
      2 N3          0.1780   -1.1640    2.3920 n2        1 OTD     -0.806100
      3 C4          1.1290   -0.3260    2.5590 ce        1 OTD      0.391300
      4 C5          1.5790    0.7980    1.6550 c3        1 OTD     -0.165500
      5 C6          1.0590    0.8390    0.2570 c2        1 OTD     -0.056300
      6 C61         2.1180    0.9400   -0.8820 c         1 OTD      0.867600
      7 O62         3.2980    1.2430   -0.5780 o         1 OTD     -0.815800
      8 C41         1.9840   -0.3430    3.8520 c         1 OTD      0.836300
      9 O42         1.7820    0.5890    4.6800 o         1 OTD     -0.837800
     10 O41         2.8430   -1.2530    3.9930 o         1 OTD     -0.837800
     11 C2         -1.3890    1.3340    0.7150 c1        1 OTD      0.239500
     12 O2         -2.2160    0.5040    1.0660 o         1 OTD     -0.630500
     13 HN1        -0.3620    0.9250   -1.0700 hn        1 OTD      0.251700
     14 HN3        -0.3560   -1.0700    1.5520 hn        1 OTD      0.358400
     15 H5          1.3000    1.7570    2.1780 hc        1 OTD      0.097700
     16 H6          2.7040    0.7580    1.5960 hc        1 OTD      0.097700
     17 O61         1.7040    0.7420   -2.0610 o         1 OTD     -0.815800
@<TRIPOS>BOND
     1    1    5 1   
     2    1   11 2   
     3    1   13 1   
     4    2    3 2   
     5    2   14 1   
     6    3    4 1   
     7    3    8 1   
     8    4    5 1   
     9    4   15 1   
    10    4   16 1   
    11    5    6 2   
    12    6    7 1   
    13    6   17 1   
    14    8    9 1   
    15    8   10 1   
    16   11   12 2   
@<TRIPOS>SUBSTRUCTURE
     1 OTD         1 TEMP              0 ****  ****    0 ROOT
