@<TRIPOS>MOLECULE
OTD
   17    17     1     0     0
SMALL
bcc


@<TRIPOS>ATOM
      1 N1         -0.0290    0.8190   -0.0240 n         1 OTD     -0.446100
      2 N3         -0.2890    0.5590    2.3800 n         1 OTD     -0.496900
      3 C4          1.1560    0.6670    2.5660 c3        1 OTD     -0.016100
      4 C5          1.9530    0.6080    1.3000 c2        1 OTD     -0.210200
      5 C6          1.3740    0.7000    0.0810 ce        1 OTD     -0.090600
      6 C61         2.1580    0.6880   -1.2330 c         1 OTD      0.916800
      7 O62         3.3960    0.9290   -1.1980 o         1 OTD     -0.847300
      8 C41         1.7080   -0.3320    3.6380 c         1 OTD      0.909600
      9 O42         0.9510   -1.2540    4.0640 o         1 OTD     -0.851300
     10 O41         2.8760   -0.1300    4.0690 o         1 OTD     -0.851300
     11 C2         -0.8220    0.4750    1.0810 c         1 OTD      0.758500
     12 O2         -2.0520    0.2210    0.9090 o         1 OTD     -0.768500
     13 HN1        -0.4120    0.6500   -0.9300 hn        1 OTD      0.326500
     14 HN3        -0.7070   -0.1010    3.0120 hn        1 OTD      0.310500
     15 H5          1.3210    1.7000    3.0100 h1        1 OTD      0.037700
     16 H6          3.0400    0.5110    1.4150 ha        1 OTD      0.166000
     17 O61         1.5270    0.4410   -2.3060 o         1 OTD     -0.847300
@<TRIPOS>BOND
     1    1    5 1   
     2    1   11 1   
     3    1   13 1   
     4    2    3 1   
     5    2   11 1   
     6    2   14 1   
     7    3    4 1   
     8    3    8 1   
     9    3   15 1   
    10    4    5 2   
    11    4   16 1   
    12    5    6 1   
    13    6    7 1   
    14    6   17 1   
    15    8    9 1   
    16    8   10 1   
    17   11   12 2   
@<TRIPOS>SUBSTRUCTURE
     1 OTD         1 TEMP              0 ****  ****    0 ROOT
