@<TRIPOS>MOLECULE
OTD
   17    16     1     0     0
SMALL
bcc


@<TRIPOS>ATOM
      1 N1         -1.0990    0.1260   -1.2310 n         1 OTD     -0.306000
      2 N3         -1.2440   -0.7640    1.0440 n         1 OTD     -0.290000
      3 C4          0.1010   -0.4100    1.2940 c2        1 OTD     -0.074000
      4 C5          0.8280    0.4800    0.2560 c1        1 OTD     -0.206000
      5 C6          0.4060    0.2870   -1.1090 c2        1 OTD     -0.047000
      6 O61         0.6110    2.6360   -1.8370 o         1 OTD     -0.586000
      7 C61         0.9450    1.4430   -2.0520 c2        1 OTD      0.329000
      8 O62         1.7300    1.1670   -3.0040 o         1 OTD     -0.586000
      9 C41         0.6870   -0.5890    2.6830 c2        1 OTD      0.367000
     10 O42         0.5730    0.3330    3.5370 o         1 OTD     -0.582000
     11 O41         1.3810   -1.6070    2.9470 o         1 OTD     -0.582000
     12 C2         -1.7020   -0.7540   -0.3730 c2        1 OTD      0.349000
     13 O2         -2.7610   -1.2670   -0.6720 o         1 OTD     -0.493000
     14 HN1        -1.4190    0.0700   -2.0850 hn        1 OTD      0.224000
     15 HN3        -1.6670   -1.3270    1.6560 hn        1 OTD      0.240000
     16 H5          1.7720    0.6630    0.4380 ha        1 OTD      0.166000
     17 H6          0.8580   -0.4890   -1.4930 h4        1 OTD      0.077000
@<TRIPOS>BOND
     1    1    5 1   
     2    1   12 1   
     3    1   14 1   
     4    2    3 1   
     5    2   12 1   
     6    2   15 1   
     7    3    4 1   
     8    3    9 1   
     9    4   16 1   
    10    5    7 1   
    11    5   17 1   
    12    6    7 1   
    13    7    8 1   
    14    9   10 1   
    15    9   11 1   
    16   12   13 1   
@<TRIPOS>SUBSTRUCTURE
     1 OTD         1 TEMP              0 ****  ****    0 ROOT
