@<TRIPOS>MOLECULE
OTD
   17    17     1     0     0
SMALL
bcc


@<TRIPOS>ATOM
      1 N1          3.7370   -3.2200    0.2220 n         1 OTD     -0.496900
      2 N3          1.7370   -2.5940    1.4570 n         1 OTD     -0.446100
      3 C4          1.3980   -1.6280    0.4840 ce        1 OTD     -0.090600
      4 C5          2.2400   -1.3850   -0.5470 c2        1 OTD     -0.210200
      5 C6          3.5570   -2.0830   -0.6790 c3        1 OTD     -0.016100
      6 C61         3.8720   -2.4360   -2.1720 c         1 OTD      0.909600
      7 O62         4.0180   -1.4730   -2.9740 o         1 OTD     -0.851300
      8 C41         0.0640   -0.9030    0.6780 c         1 OTD      0.916800
      9 O42        -0.7920   -1.4220    1.4580 o         1 OTD     -0.847300
     10 O41        -0.1290    0.1800    0.0610 o         1 OTD     -0.847300
     11 C2          2.7360   -3.5330    1.1590 c         1 OTD      0.758500
     12 O2          2.8030   -4.6040    1.8330 o         1 OTD     -0.768500
     13 HN1         4.0880   -4.0320   -0.2540 hn        1 OTD      0.310500
     14 HN3         0.9920   -2.8930    2.0490 hn        1 OTD      0.326500
     15 H5          2.0030   -0.6440   -1.3200 ha        1 OTD      0.166000
     16 H6          4.3570   -1.3360   -0.3750 h1        1 OTD      0.037700
     17 O61         4.0210   -3.6500   -2.4970 o         1 OTD     -0.851300
@<TRIPOS>BOND
     1    1    5 1   
     2    1   11 1   
     3    1   13 1   
     4    2    3 1   
     5    2   11 1   
     6    2   14 1   
     7    3    4 2   
     8    3    8 1   
     9    4    5 1   
    10    4   15 1   
    11    5    6 1   
    12    5   16 1   
    13    6    7 1   
    14    6   17 1   
    15    8    9 1   
    16    8   10 1   
    17   11   12 2   
@<TRIPOS>SUBSTRUCTURE
     1 OTD         1 TEMP              0 ****  ****    0 ROOT
