@<TRIPOS>MOLECULE
OTE
   55    54     1     0     0
SMALL
bcc


@<TRIPOS>ATOM
      1 C1         -0.8060   -1.3750   11.3530 c3        1 OTE     -0.092100
      2 C2         -1.2040   -0.5470   10.1590 c3        1 OTE     -0.080400
      3 C3         -0.3300   -0.8470    8.9590 c3        1 OTE     -0.079400
      4 C4         -0.7330   -0.0140    7.7620 c3        1 OTE     -0.079400
      5 C5          0.1420   -0.3150    6.5640 c3        1 OTE     -0.078400
      6 C6         -0.2610    0.5190    5.3660 c3        1 OTE     -0.078400
      7 C7          0.6160    0.2150    4.1720 c3        1 OTE     -0.083400
      8 C8          0.1990    1.0590    2.9800 c3        1 OTE      0.132400
      9 O9          1.0710    0.7080    1.9070 os        1 OTE     -0.428600
     10 C10         0.7940    1.4520    0.7230 c3        1 OTE      0.126400
     11 C11         1.6830    0.8690   -0.3710 c3        1 OTE      0.127400
     12 O12         0.8150    0.1980   -1.2820 os        1 OTE     -0.428600
     13 C13         1.5330   -0.5430   -2.2660 c3        1 OTE      0.127400
     14 C14         0.4980   -1.0540   -3.2630 c3        1 OTE      0.128400
     15 O15         0.6770   -0.2910   -4.4560 os        1 OTE     -0.429600
     16 C16        -0.3310   -0.5690   -5.4240 c3        1 OTE      0.128400
     17 C17         0.0000    0.3060   -6.6290 c3        1 OTE      0.130400
     18 O18        -0.9360   -0.0550   -7.6420 os        1 OTE     -0.439600
     19 C19        -0.7380    0.6840   -8.8450 c3        1 OTE      0.088400
     20 C20        -1.8300    0.2260   -9.8070 c3        1 OTE      0.131400
     21 O21        -3.1120    0.6210   -9.3650 oh        1 OTE     -0.599800
     22 H11         0.2530   -1.1670   11.6420 hc        1 OTE      0.032700
     23 H12        -1.4620   -1.1390   12.2250 hc        1 OTE      0.032700
     24 H13        -0.8990   -2.4650   11.1270 hc        1 OTE      0.032700
     25 H21A       -2.2760   -0.7510    9.8990 hc        1 OTE      0.038700
     26 H22        -1.1270    0.5430   10.4130 hc        1 OTE      0.038700
     27 H31         0.7430   -0.6430    9.2160 hc        1 OTE      0.039700
     28 H32        -0.4060   -1.9370    8.7020 hc        1 OTE      0.039700
     29 H41        -1.8050   -0.2190    7.5050 hc        1 OTE      0.039700
     30 H42        -0.6570    1.0750    8.0190 hc        1 OTE      0.039700
     31 H51         1.2150   -0.1100    6.8200 hc        1 OTE      0.041700
     32 H52         0.0660   -1.4040    6.3060 hc        1 OTE      0.041700
     33 H61        -1.3340    0.3130    5.1100 hc        1 OTE      0.040200
     34 H62        -0.1850    1.6080    5.6240 hc        1 OTE      0.040200
     35 H71         1.6900    0.4220    4.4160 hc        1 OTE      0.054700
     36 H72         0.5410   -0.8710    3.9010 hc        1 OTE      0.054700
     37 H81        -0.8640    0.8450    2.6870 h1        1 OTE      0.026200
     38 H82         0.3010    2.1540    3.2060 h1        1 OTE      0.026200
     39 H101       -0.2900    1.3570    0.4480 h1        1 OTE      0.042700
     40 H102        1.0440    2.5310    0.8980 h1        1 OTE      0.042700
     41 H111        2.2250    1.6870   -0.9150 h1        1 OTE      0.043700
     42 H112        2.4250    0.1470    0.0620 h1        1 OTE      0.043700
     43 H131        2.2870    0.1140   -2.7750 h1        1 OTE      0.043700
     44 H132        2.0560   -1.4030   -1.7700 h1        1 OTE      0.043700
     45 H141        0.6740   -2.1380   -3.4910 h1        1 OTE      0.044700
     46 H142       -0.5420   -0.9150   -2.8650 h1        1 OTE      0.044700
     47 H161       -0.3080   -1.6550   -5.7050 h1        1 OTE      0.040700
     48 H162       -1.3430   -0.3140   -5.0130 h1        1 OTE      0.040700
     49 H171       -0.1090    1.3930   -6.3740 h1        1 OTE      0.042200
     50 H172        1.0460    0.1120   -6.9850 h1        1 OTE      0.042200
     51 H191       -0.8280    1.7820   -8.6340 h1        1 OTE      0.040200
     52 H192        0.2780    0.4620   -9.2650 h1        1 OTE      0.040200
     53 H201       -1.6950    0.7280  -10.8010 h1        1 OTE      0.053200
     54 H202       -1.7900   -0.8890   -9.9300 h1        1 OTE      0.053200
     55 H21        -3.2280    0.2570   -8.4780 ho        1 OTE      0.413000
@<TRIPOS>BOND
     1    1    2 1   
     2    1   22 1   
     3    1   23 1   
     4    1   24 1   
     5    2    3 1   
     6    2   25 1   
     7    2   26 1   
     8    3    4 1   
     9    3   27 1   
    10    3   28 1   
    11    4    5 1   
    12    4   29 1   
    13    4   30 1   
    14    5    6 1   
    15    5   31 1   
    16    5   32 1   
    17    6    7 1   
    18    6   33 1   
    19    6   34 1   
    20    7    8 1   
    21    7   35 1   
    22    7   36 1   
    23    8    9 1   
    24    8   37 1   
    25    8   38 1   
    26    9   10 1   
    27   10   11 1   
    28   10   39 1   
    29   10   40 1   
    30   11   12 1   
    31   11   41 1   
    32   11   42 1   
    33   12   13 1   
    34   13   14 1   
    35   13   43 1   
    36   13   44 1   
    37   14   15 1   
    38   14   45 1   
    39   14   46 1   
    40   15   16 1   
    41   16   17 1   
    42   16   47 1   
    43   16   48 1   
    44   17   18 1   
    45   17   49 1   
    46   17   50 1   
    47   18   19 1   
    48   19   20 1   
    49   19   51 1   
    50   19   52 1   
    51   20   21 1   
    52   20   53 1   
    53   20   54 1   
    54   21   55 1   
@<TRIPOS>SUBSTRUCTURE
     1 OTE         1 TEMP              0 ****  ****    0 ROOT
