@<TRIPOS>MOLECULE
OTE
   55    54     1     0     0
SMALL
bcc


@<TRIPOS>ATOM
      1 C1         -9.5450   -4.8330    1.0840 c3        1 OTE     -0.093100
      2 C2         -8.2450   -4.6130    0.3120 c3        1 OTE     -0.080400
      3 C3         -7.8050   -3.1560    0.4570 c3        1 OTE     -0.079400
      4 C4         -6.4320   -2.9710   -0.1970 c3        1 OTE     -0.079400
      5 C5         -5.8890   -1.5640    0.1330 c3        1 OTE     -0.078400
      6 C6         -4.3790   -1.4880   -0.2380 c3        1 OTE     -0.078400
      7 C7         -3.7990   -0.1220    0.2250 c3        1 OTE     -0.084400
      8 C8         -2.3120   -0.2740    0.5150 c3        1 OTE      0.133400
      9 O9         -1.6940    1.0050    0.5110 os        1 OTE     -0.428600
     10 C10        -0.5190    1.0830    1.3250 c3        1 OTE      0.128400
     11 C11         0.3850    2.2250    0.8130 c3        1 OTE      0.128400
     12 O12         1.7670    1.9310    1.1360 os        1 OTE     -0.429600
     13 C13         2.6970    2.9350    0.6840 c3        1 OTE      0.128400
     14 C14         4.1130    2.5630    1.1390 c3        1 OTE      0.128400
     15 O15         5.0520    2.9130    0.1180 os        1 OTE     -0.428600
     16 C16         6.3160    2.2950    0.2660 c3        1 OTE      0.128400
     17 C17         7.2710    2.8230   -0.8050 c3        1 OTE      0.130400
     18 O18         8.2270    1.8230   -1.1240 os        1 OTE     -0.431600
     19 C19         9.2370    2.2610   -2.0330 c3        1 OTE      0.129400
     20 C20        10.2090    1.1190   -2.3030 c3        1 OTE      0.127400
     21 O21        10.9660    1.4090   -3.4520 oh        1 OTE     -0.602800
     22 H11       -10.2630   -4.3010    0.6750 hc        1 OTE      0.032700
     23 H12        -9.7860   -5.7860    1.0560 hc        1 OTE      0.032700
     24 H13        -9.4230   -4.5550    2.0150 hc        1 OTE      0.032700
     25 H21A       -7.5490   -5.2020    0.6710 hc        1 OTE      0.038700
     26 H22        -8.3900   -4.8180   -0.6370 hc        1 OTE      0.038700
     27 H31        -8.4560   -2.5740    0.0190 hc        1 OTE      0.039700
     28 H32        -7.7490   -2.9260    1.4040 hc        1 OTE      0.039700
     29 H41        -5.8160   -3.6450    0.1440 hc        1 OTE      0.039700
     30 H42        -6.5180   -3.0680   -1.1650 hc        1 OTE      0.039700
     31 H51        -5.9990   -1.3870    1.0910 hc        1 OTE      0.041700
     32 H52        -6.3860   -0.8930   -0.3820 hc        1 OTE      0.041700
     33 H61        -4.2760   -1.5750   -1.2090 hc        1 OTE      0.039700
     34 H62        -3.8960   -2.2170    0.2090 hc        1 OTE      0.039700
     35 H71        -4.2610    0.1700    1.0350 hc        1 OTE      0.054700
     36 H72        -3.9280    0.5440   -0.4830 hc        1 OTE      0.054700
     37 H81        -1.9040   -0.8340   -0.1690 h1        1 OTE      0.027200
     38 H82        -2.1930   -0.6890    1.3860 h1        1 OTE      0.027200
     39 H101       -0.7780    1.2620    2.2580 h1        1 OTE      0.039700
     40 H102       -0.0320    0.2350    1.2780 h1        1 OTE      0.039700
     41 H111        0.1220    3.0650    1.2400 h1        1 OTE      0.041200
     42 H112        0.2870    2.3090   -0.1570 h1        1 OTE      0.041200
     43 H131        2.4520    3.7990    1.0610 h1        1 OTE      0.044700
     44 H132        2.6720    2.9870   -0.2920 h1        1 OTE      0.044700
     45 H141        4.3310    3.0530    1.9670 h1        1 OTE      0.044700
     46 H142        4.1590    1.6020    1.3080 h1        1 OTE      0.044700
     47 H161        6.2190    1.3250    0.1670 h1        1 OTE      0.040700
     48 H162        6.6760    2.4980    1.1530 h1        1 OTE      0.040700
     49 H171        6.7630    3.0560   -1.6090 h1        1 OTE      0.042700
     50 H172        7.7320    3.6180   -0.4680 h1        1 OTE      0.042700
     51 H191        9.7230    3.0190   -1.6410 h1        1 OTE      0.042700
     52 H192        8.8170    2.5420   -2.8790 h1        1 OTE      0.042700
     53 H201        9.7070    0.2880   -2.4440 h1        1 OTE      0.035700
     54 H202       10.8070    1.0120   -1.5370 h1        1 OTE      0.035700
     55 H21        11.5120    0.7230   -3.6320 ho        1 OTE      0.405000
@<TRIPOS>BOND
     1    1    2 1   
     2    1   22 1   
     3    1   23 1   
     4    1   24 1   
     5    2    3 1   
     6    2   25 1   
     7    2   26 1   
     8    3    4 1   
     9    3   27 1   
    10    3   28 1   
    11    4    5 1   
    12    4   29 1   
    13    4   30 1   
    14    5    6 1   
    15    5   31 1   
    16    5   32 1   
    17    6    7 1   
    18    6   33 1   
    19    6   34 1   
    20    7    8 1   
    21    7   35 1   
    22    7   36 1   
    23    8    9 1   
    24    8   37 1   
    25    8   38 1   
    26    9   10 1   
    27   10   11 1   
    28   10   39 1   
    29   10   40 1   
    30   11   12 1   
    31   11   41 1   
    32   11   42 1   
    33   12   13 1   
    34   13   14 1   
    35   13   43 1   
    36   13   44 1   
    37   14   15 1   
    38   14   45 1   
    39   14   46 1   
    40   15   16 1   
    41   16   17 1   
    42   16   47 1   
    43   16   48 1   
    44   17   18 1   
    45   17   49 1   
    46   17   50 1   
    47   18   19 1   
    48   19   20 1   
    49   19   51 1   
    50   19   52 1   
    51   20   21 1   
    52   20   53 1   
    53   20   54 1   
    54   21   55 1   
@<TRIPOS>SUBSTRUCTURE
     1 OTE         1 TEMP              0 ****  ****    0 ROOT
