@<TRIPOS>MOLECULE
OTG
   41    40     1     0     0
SMALL
bcc


@<TRIPOS>ATOM
      1 C1          0.0480    0.4980   -0.4110 c2        1 OTG      0.285000
      2 O1         -1.0060   -1.4070    0.2070 oh        1 OTG     -0.436000
      3 C2          1.5390    0.2480   -0.3030 c3        1 OTG      0.053000
      4 N2          1.9040   -1.0350   -0.8460 n         1 OTG     -0.388000
      5 C3          2.0330    0.4750    1.0870 c2        1 OTG     -0.316000
      6 O3          4.5250    0.5240    3.0020 oh        1 OTG     -0.436000
      7 C4          1.2150    0.8840    2.0730 c2        1 OTG      0.058000
      8 O4          1.6100    1.1420    3.3540 oh        1 OTG     -0.244000
      9 C5         -0.2560    1.1090    1.9180 c3        1 OTG      0.014000
     10 O5         -0.7110    0.9590    0.5260 os        1 OTG     -0.070000
     11 C6         -0.6970    2.5180    2.3490 c3        1 OTG     -0.023000
     12 O6         -2.0960    2.5860    2.4290 oh        1 OTG     -0.297000
     13 C1'         2.9610   -2.4390   -4.0580 ca        1 OTG      0.006000
     14 C2'         2.3860   -2.4920   -2.7760 ca        1 OTG     -0.151000
     15 C3'         2.4010   -3.6880   -2.0440 ca        1 OTG     -0.102000
     16 C4'         2.9900   -4.8290   -2.5790 ca        1 OTG     -0.136000
     17 C5'         3.5720   -4.7810   -3.8480 ca        1 OTG     -0.079000
     18 C6'         3.5570   -3.5970   -4.5780 ca        1 OTG     -0.133000
     19 C8'         1.7440   -1.2830   -2.2140 c2        1 OTG      0.363000
     20 O8'         1.0370   -0.4850   -2.8630 o         1 OTG     -0.377000
     21 H1         -0.4670    0.3970   -1.4020 h4        1 OTG      0.249000
     22 HO1        -1.9660   -1.3960    0.1280 ho        1 OTG      0.229250
     23 H2         -0.7400   -2.2690   -0.1290 ho        1 OTG      0.229250
     24 HN2         1.9740    1.0710   -0.9770 h1        1 OTG      0.158000
     25 H3          3.1130    0.3210    1.2650 ha        1 OTG      0.201000
     26 HO3         4.9510   -0.1800    3.5010 ho        1 OTG      0.229250
     27 H4          5.1600    1.2470    3.0310 ho        1 OTG      0.229250
     28 HO4         2.5640    0.9500    3.4420 ho        1 OTG      0.275000
     29 H5         -0.1930    2.7480    3.3270 h1        1 OTG      0.133000
     30 H61        -0.8450    0.3080    2.4580 h1        1 OTG      0.177000
     31 H62        -0.4040    3.2750    1.5720 h1        1 OTG      0.133000
     32 HO6        -2.3650    2.2720    3.3030 ho        1 OTG      0.219000
     33 H3'         1.9330   -3.7440   -1.0500 ha        1 OTG      0.126000
     34 H4'         2.9940   -5.7680   -2.0050 ha        1 OTG      0.150000
     35 H5'         4.0410   -5.6840   -4.2720 ha        1 OTG      0.153000
     36 H6'         4.0140   -3.5640   -5.5810 ha        1 OTG      0.154000
     37 H7'1        3.5860   -1.2900   -5.7710 hc        1 OTG      0.101333
     38 H7'2        1.8880   -0.9820   -5.1970 hc        1 OTG      0.101333
     39 H7'3        3.2890   -0.3250   -4.2620 hc        1 OTG      0.101333
     40 H22         2.5190   -1.5970   -0.3030 hn        1 OTG      0.256000
     41 C7'         2.9370   -1.1980   -4.8660 c3        1 OTG     -0.196000
@<TRIPOS>BOND
     1    1    3 1   
     2    1   10 1   
     3    1   21 1   
     4    2   22 1   
     5    2   23 1   
     6    3    4 1   
     7    3    5 1   
     8    3   24 1   
     9    4   19 1   
    10    4   40 1   
    11    5    7 1   
    12    5   25 1   
    13    6   26 1   
    14    6   27 1   
    15    7    8 1   
    16    7    9 1   
    17    8   28 1   
    18    9   10 1   
    19    9   11 1   
    20    9   30 1   
    21   11   12 1   
    22   11   29 1   
    23   11   31 1   
    24   12   32 1   
    25   13   14 1   
    26   13   18 1   
    27   13   41 1   
    28   14   15 1   
    29   14   19 1   
    30   15   16 1   
    31   15   33 1   
    32   16   17 1   
    33   16   34 1   
    34   17   18 1   
    35   17   35 1   
    36   18   36 1   
    37   19   20 1   
    38   37   41 1   
    39   38   41 1   
    40   39   41 1   
@<TRIPOS>SUBSTRUCTURE
     1 OTG         1 TEMP              0 ****  ****    0 ROOT
