@<TRIPOS>MOLECULE
OTG
   41    40     1     0     0
SMALL
bcc


@<TRIPOS>ATOM
      1 C1         -0.2190   -0.1140   -0.0110 c2        1 OTG      0.288000
      2 O1         -1.1860   -2.0230    1.0830 oh        1 OTG     -0.442000
      3 C2          1.2870    0.0030   -0.1480 c3        1 OTG      0.048000
      4 N2          1.8550   -1.0880   -0.8890 n         1 OTG     -0.393000
      5 C3          1.9040    0.2250    1.1970 c2        1 OTG     -0.302000
      6 O3          4.4240    0.0840    3.0480 oh        1 OTG     -0.442000
      7 C4          1.1830    0.8090    2.1740 c2        1 OTG      0.049000
      8 O4          1.6260    1.0880    3.4320 oh        1 OTG     -0.237000
      9 C5         -0.2410    1.2310    1.9920 c3        1 OTG      0.000000
     10 O5         -0.9000    0.4510    0.9300 os        1 OTG     -0.058000
     11 C6         -0.3570    2.7180    1.6190 c3        1 OTG     -0.030000
     12 O6         -1.6680    3.0260    1.2270 oh        1 OTG     -0.298000
     13 C1'         3.0030   -1.7790   -4.2250 c2        1 OTG     -0.050000
     14 C2'         2.3400   -2.2430   -3.0050 c2        1 OTG     -0.111000
     15 C3'         2.4290   -3.5180   -2.5790 c2        1 OTG     -0.088000
     16 C4'         3.1940   -4.5610   -3.3030 c3        1 OTG     -0.118000
     17 C5'         3.9520   -4.0350   -4.4630 c2        1 OTG     -0.153000
     18 C6'         3.8620   -2.7640   -4.8770 c2        1 OTG     -0.124000
     19 C8'         1.5360   -1.2530   -2.2420 c2        1 OTG      0.360000
     20 O8'         0.5870   -0.5880   -2.6970 o         1 OTG     -0.362000
     21 H1         -0.8480   -0.6570   -0.7630 h4        1 OTG      0.259000
     22 HO1        -2.0790   -1.9410    1.4330 ho        1 OTG      0.225750
     23 H2         -0.9740   -2.9570    1.1830 ho        1 OTG      0.225750
     24 HN2         1.3990    0.9650   -0.7680 h1        1 OTG      0.163000
     25 H3          2.9530   -0.0800    1.3550 ha        1 OTG      0.204000
     26 HO3         4.7740   -0.6200    3.6040 ho        1 OTG      0.225750
     27 H4          5.1440    0.7210    2.9980 ho        1 OTG      0.225750
     28 HO4         2.5560    0.7990    3.5170 ho        1 OTG      0.275000
     29 H5         -0.0100    3.3160    2.5040 h1        1 OTG      0.128000
     30 H61        -0.8760    0.9770    2.8910 h1        1 OTG      0.184000
     31 H62         0.2830    2.9480    0.7240 h1        1 OTG      0.128000
     32 HO6        -2.1920    3.1990    2.0210 ho        1 OTG      0.224000
     33 H3'         1.9150   -3.8590   -1.6650 ha        1 OTG      0.125000
     34 H4'         3.9040   -5.0600   -2.5840 hc        1 OTG      0.119000
     35 H5'         2.4780   -5.3570   -3.6570 hc        1 OTG      0.119000
     36 H6'         4.5980   -4.7640   -4.9790 ha        1 OTG      0.145000
     37 H7'1        4.4340   -2.4060   -5.7490 ha        1 OTG      0.145000
     38 H7'2        3.3510   -0.2390   -5.6620 ha        1 OTG      0.131000
     39 H7'3        2.1790    0.2030   -4.2920 ha        1 OTG      0.131000
     40 H22         2.6230   -1.5730   -0.4870 hn        1 OTG      0.258000
     41 C7'         2.8410   -0.5500   -4.7400 c2        1 OTG     -0.176000
@<TRIPOS>BOND
     1    1    3 1   
     2    1   10 1   
     3    1   21 1   
     4    2   22 1   
     5    2   23 1   
     6    3    4 1   
     7    3    5 1   
     8    3   24 1   
     9    4   19 1   
    10    4   40 1   
    11    5    7 1   
    12    5   25 1   
    13    6   26 1   
    14    6   27 1   
    15    7    8 1   
    16    7    9 1   
    17    8   28 1   
    18    9   10 1   
    19    9   11 1   
    20    9   30 1   
    21   11   12 1   
    22   11   29 1   
    23   11   31 1   
    24   12   32 1   
    25   13   14 1   
    26   13   18 1   
    27   13   41 1   
    28   14   15 1   
    29   14   19 1   
    30   15   16 1   
    31   15   33 1   
    32   16   17 1   
    33   16   34 1   
    34   16   35 1   
    35   17   18 1   
    36   17   36 1   
    37   18   37 1   
    38   19   20 1   
    39   38   41 1   
    40   39   41 1   
@<TRIPOS>SUBSTRUCTURE
     1 OTG         1 TEMP              0 ****  ****    0 ROOT
