@<TRIPOS>MOLECULE
OTG
   40    38     1     0     0
SMALL
bcc


@<TRIPOS>ATOM
      1 C1         -1.8210    0.7280    0.5260 c3        1 OTG      0.330900
      2 O1         -2.3020   -0.4850    0.9830 oh        1 OTG     -0.634800
      3 C2         -0.3080    0.6910    0.5420 c3        1 OTG      0.055700
      4 N2          0.1410   -0.5040   -0.1610 n         1 OTG     -0.551900
      5 C3          0.2410    0.6730    1.9210 c3        1 OTG      0.081100
      6 O3          1.6880    0.8210    1.8540 oh        1 OTG     -0.602800
      7 C4         -0.3170    1.7660    2.7630 c3        1 OTG      0.091100
      8 O4          0.1180    1.5770    4.1210 oh        1 OTG     -0.596800
      9 C5         -1.8350    1.8000    2.7360 c3        1 OTG      0.141100
     10 O5         -2.3710    1.8130    1.3730 os        1 OTG     -0.441600
     11 C6         -2.3020    3.0170    3.4480 c3        1 OTG      0.135400
     12 O6         -3.7120    3.0640    3.4210 oh        1 OTG     -0.599800
     13 C1'         1.6950   -1.5510   -3.5160 c1        1 OTG      0.013900
     14 C2'         1.1660   -1.6570   -2.2280 cg        1 OTG     -0.091200
     15 C3'         1.1110   -2.9010   -1.5970 c1        1 OTG     -0.043500
     16 C4'         1.5850   -4.0370   -2.2540 c1        1 OTG     -0.065000
     17 C5'         2.1130   -3.9310   -3.5380 c1        1 OTG     -0.065000
     18 C6'         2.1680   -2.6890   -4.1700 c1        1 OTG     -0.081500
     19 C7'         1.6900   -0.1860   -4.2450 c3        1 OTG     -0.106000
     20 C8'         0.6430   -0.4030   -1.5050 c         1 OTG      0.633300
     21 O8'         0.6910    0.6810   -2.0560 o         1 OTG     -0.618100
     22 H1         -2.1240    0.8620   -0.3950 h2        1 OTG      0.084700
     23 HO1        -2.9910   -0.7400    0.4790 ho        1 OTG      0.431000
     24 H2          0.0330    1.4810    0.0750 h1        1 OTG      0.093700
     25 HN2         0.0710   -1.3170    0.2370 hn        1 OTG      0.327500
     26 H3          0.0290   -0.1870    2.3350 h1        1 OTG      0.099700
     27 HO3         2.0750    0.1240    2.2420 ho        1 OTG      0.428000
     28 H4          0.0250    2.6230    2.4370 h1        1 OTG      0.048700
     29 HO4         0.5670    2.2960    4.3920 ho        1 OTG      0.426000
     30 H5         -2.1770    1.0100    3.2020 h1        1 OTG      0.084700
     31 H61        -1.9410    3.8100    3.0070 h1        1 OTG      0.047700
     32 H62        -1.9940    2.9900    4.3740 h1        1 OTG      0.047700
     33 HO6        -3.9960    3.6940    3.9720 ho        1 OTG      0.403000
     34 H3'         0.7390   -2.9760   -0.6930 ha        1 OTG      0.082500
     35 H4'         1.5460   -4.9150   -1.8090 ha        1 OTG      0.079500
     36 H5'         2.4470   -4.7340   -4.0010 ha        1 OTG      0.079500
     37 H6'         2.5390   -2.6150   -5.0720 ha        1 OTG      0.080500
     38 H7'1        2.1530    0.4820   -3.6930 hc        1 OTG      0.057367
     39 H7'2        0.7650    0.1000   -4.3970 hc        1 OTG      0.057367
     40 H7'3        2.1540   -0.2750   -5.1130 hc        1 OTG      0.057367
@<TRIPOS>BOND
     1    1    2 1   
     2    1    3 1   
     3    1   10 1   
     4    1   22 1   
     5    2   23 1   
     6    3    4 1   
     7    3    5 1   
     8    3   24 1   
     9    4   20 1   
    10    4   25 1   
    11    5    6 1   
    12    5    7 1   
    13    5   26 1   
    14    6   27 1   
    15    7    8 1   
    16    7    9 1   
    17    7   28 1   
    18    8   29 1   
    19    9   10 1   
    20    9   11 1   
    21    9   30 1   
    22   11   12 1   
    23   11   31 1   
    24   11   32 1   
    25   12   33 1   
    26   13   18 3   
    27   13   19 1   
    28   14   15 3   
    29   14   20 1   
    30   15   34 1   
    31   16   17 3   
    32   16   35 1   
    33   17   36 1   
    34   18   37 1   
    35   19   38 1   
    36   19   39 1   
    37   19   40 1   
    38   20   21 2   
@<TRIPOS>SUBSTRUCTURE
     1 OTG         1 TEMP              0 ****  ****    0 ROOT
