@<TRIPOS>MOLECULE
OTG
   40    41     1     0     0
SMALL
bcc


@<TRIPOS>ATOM
      1 C1          0.9130   -0.8050   -1.4390 c3        1 OTG      0.311900
      2 O1          0.2650   -2.0500   -1.4970 oh        1 OTG     -0.618800
      3 C2         -0.0020    0.2290   -0.7220 c3        1 OTG      0.107700
      4 N2         -0.2610   -0.1160    0.6500 n         1 OTG     -0.552900
      5 C3         -1.2930    0.3840   -1.5570 c3        1 OTG      0.138100
      6 O3         -2.0920    1.3820   -0.9480 oh        1 OTG     -0.599800
      7 C4         -0.9010    0.8040   -2.9870 c3        1 OTG      0.082100
      8 O4         -2.1270    0.8900   -3.6990 oh        1 OTG     -0.601800
      9 C5          0.0310   -0.2460   -3.6020 c3        1 OTG      0.070100
     10 O5          1.1840   -0.4410   -2.7800 os        1 OTG     -0.455600
     11 C6          0.5780    0.2080   -4.9600 c3        1 OTG      0.136400
     12 O6          1.4060   -0.7770   -5.5350 oh        1 OTG     -0.591800
     13 C1'         0.4590    0.6650    4.0410 ca        1 OTG     -0.021300
     14 C2'         0.2810   -0.2860    3.0240 ca        1 OTG     -0.142600
     15 C3'        -0.2740   -1.5370    3.3130 ca        1 OTG     -0.101000
     16 C4'        -0.6530   -1.8500    4.6170 ca        1 OTG     -0.142000
     17 C5'        -0.4820   -0.9100    5.6330 ca        1 OTG     -0.107000
     18 C6'         0.0680    0.3370    5.3460 ca        1 OTG     -0.140000
     19 C8'         0.7080    0.0130    1.6260 c         1 OTG      0.680700
     20 O8'         1.8750    0.3380    1.3250 o         1 OTG     -0.613100
     21 H1          1.9270   -0.8550   -0.9450 h2        1 OTG      0.105700
     22 HO1         0.8850   -2.6810   -1.8840 ho        1 OTG      0.419000
     23 H2          0.5680    1.2080   -0.7450 h1        1 OTG      0.087700
     24 HN2        -1.1960   -0.3360    0.8990 hn        1 OTG      0.330500
     25 H3         -1.8570   -0.5900   -1.5960 h1        1 OTG      0.072700
     26 HO3        -2.8400    1.5330   -1.5420 ho        1 OTG      0.425000
     27 H4         -0.3980    1.8110   -2.9650 h1        1 OTG      0.060700
     28 HO4        -1.9200    1.2280   -4.5780 ho        1 OTG      0.412000
     29 H5         -0.5140   -1.2250   -3.7060 h1        1 OTG      0.079700
     30 H61        -0.2680    0.3370   -5.6860 h1        1 OTG      0.050700
     31 H62         1.1400    1.1730   -4.8430 h1        1 OTG      0.050700
     32 HO6         2.1210   -0.9470   -4.9070 ho        1 OTG      0.417000
     33 H3'        -0.4030   -2.2810    2.5110 ha        1 OTG      0.140000
     34 H4'        -1.0840   -2.8360    4.8420 ha        1 OTG      0.136000
     35 H5'        -0.7810   -1.1540    6.6630 ha        1 OTG      0.134000
     36 H6'         0.2020    1.0750    6.1520 ha        1 OTG      0.137000
     37 H7'1        1.9720    1.8900    3.1400 hc        1 OTG      0.058033
     38 H7'2        0.3120    2.6190    3.1780 hc        1 OTG      0.058033
     39 H7'3        1.2970    2.5380    4.6990 hc        1 OTG      0.058033
     40 C7'         1.0420    1.9970    3.7550 c3        1 OTG     -0.072800
@<TRIPOS>BOND
     1    1    2 1   
     2    1    3 1   
     3    1   10 1   
     4    1   21 1   
     5    2   22 1   
     6    3    4 1   
     7    3    5 1   
     8    3   23 1   
     9    4   19 1   
    10    4   24 1   
    11    5    6 1   
    12    5    7 1   
    13    5   25 1   
    14    6   26 1   
    15    7    8 1   
    16    7    9 1   
    17    7   27 1   
    18    8   28 1   
    19    9   10 1   
    20    9   11 1   
    21    9   29 1   
    22   11   12 1   
    23   11   30 1   
    24   11   31 1   
    25   12   32 1   
    26   13   14 ar  
    27   13   18 ar  
    28   13   40 1   
    29   14   15 ar  
    30   14   19 1   
    31   15   16 ar  
    32   15   33 1   
    33   16   17 ar  
    34   16   34 1   
    35   17   18 ar  
    36   17   35 1   
    37   18   36 1   
    38   19   20 2   
    39   37   40 1   
    40   38   40 1   
    41   39   40 1   
@<TRIPOS>SUBSTRUCTURE
     1 OTG         1 TEMP              0 ****  ****    0 ROOT
