@<TRIPOS>MOLECULE
OTH
   22    20     1     0     0
SMALL
bcc


@<TRIPOS>ATOM
      1 N          -1.2890   -0.1330   -0.8960 nh        1 OTH     -0.373100
      2 C           0.7160   -1.2910   -1.5140 c1        1 OTH      0.774000
      3 CA          0.1400   -0.0820   -0.8320 c2        1 OTH      0.125200
      4 O           0.3440   -2.4560   -1.1620 o         1 OTH     -0.807500
      5 OG1        -0.4520    0.3910    1.4170 os        1 OTH     -0.436600
      6 CB          0.5820   -0.0640    0.6230 c3        1 OTH      0.084800
      7 C22        -0.4660   -0.1880    2.7460 c3        1 OTH      0.133700
      8 CG2         1.7890    0.8650    0.7800 c3        1 OTH     -0.100100
      9 C24        -1.7520    0.6510   -2.0270 c3        1 OTH     -0.018400
     10 H2         -1.5670   -1.0240   -0.9950 hn        1 OTH      0.204700
     11 OXT         1.4930   -1.1490   -2.4880 o         1 OTH     -0.807500
     12 HA          0.4640    0.7440   -1.2900 h4        1 OTH     -0.035200
     13 HB          0.8310   -0.9800    0.9020 h1        1 OTH      0.042700
     14 H22        -0.3580   -1.1640    2.6800 h1        1 OTH      0.016033
     15 H22A        0.2750    0.1890    3.2770 h1        1 OTH      0.016033
     16 H22B       -1.3210    0.0170    3.1850 h1        1 OTH      0.016033
     17 HG1         2.4240    0.7060    0.0460 hc        1 OTH      0.041033
     18 HG2         1.4860    1.8000    0.7550 hc        1 OTH      0.041033
     19 HG3         2.2320    0.6860    1.6440 hc        1 OTH      0.041033
     20 H24        -1.3240    0.3220   -2.8540 h1        1 OTH      0.013700
     21 H24A       -2.7320    0.5640   -2.1080 h1        1 OTH      0.013700
     22 H24B       -1.5170    1.5940   -1.8900 h1        1 OTH      0.013700
@<TRIPOS>BOND
     1    1    3 2   
     2    1    9 1   
     3    1   10 1   
     4    2    4 2   
     5    2   11 2   
     6    3    6 1   
     7    3   12 1   
     8    5    6 1   
     9    5    7 1   
    10    6    8 1   
    11    6   13 1   
    12    7   14 1   
    13    7   15 1   
    14    7   16 1   
    15    8   17 1   
    16    8   18 1   
    17    8   19 1   
    18    9   20 1   
    19    9   21 1   
    20    9   22 1   
@<TRIPOS>SUBSTRUCTURE
     1 OTH         1 TEMP              0 ****  ****    0 ROOT
