@<TRIPOS>MOLECULE
OTH
   22    21     1     0     0
SMALL
bcc


@<TRIPOS>ATOM
      1 N           0.6730    1.3270   -0.5660 n3        1 OTH     -0.796200
      2 C           0.6830   -0.9730    0.5670 c         1 OTH      0.885600
      3 CA          0.2220    0.5210    0.5640 c3        1 OTH      0.008500
      4 O           1.1130   -1.4850   -0.5070 o         1 OTH     -0.842800
      5 OG1        -2.0430    0.4560   -0.4920 os        1 OTH     -0.443600
      6 CB         -1.3130    0.5610    0.7380 c3        1 OTH      0.157100
      7 C22        -2.0320   -0.8460   -1.0520 c3        1 OTH      0.101700
      8 CG2        -1.7640    1.8750    1.3540 c3        1 OTH     -0.085100
      9 C24         2.1110    1.3820   -0.6770 c3        1 OTH      0.149100
     10 H2          0.2950    0.9110   -1.4030 hn        1 OTH      0.352800
     11 OXT         0.5950   -1.5920    1.6640 o         1 OTH     -0.842800
     12 HA          0.6610    0.9830    1.4970 h1        1 OTH      0.047700
     13 HB         -1.5930   -0.3010    1.4100 h1        1 OTH      0.055700
     14 H22        -0.9850   -1.2030   -1.2260 h1        1 OTH      0.036033
     15 H22A       -2.5720   -1.5600   -0.3800 h1        1 OTH      0.036033
     16 H22B       -2.5830   -0.7360   -2.0190 h1        1 OTH      0.036033
     17 HG1        -1.4580    2.7300    0.7060 hc        1 OTH      0.028700
     18 HG2        -2.8750    1.8890    1.4620 hc        1 OTH      0.028700
     19 HG3        -1.2970    1.9910    2.3590 hc        1 OTH      0.028700
     20 H24         2.5260    1.9070    0.2240 h1        1 OTH      0.019700
     21 H24A        2.5980    0.3710   -0.7520 h1        1 OTH      0.019700
     22 H24B        2.3750    1.9800   -1.5890 h1        1 OTH      0.019700
@<TRIPOS>BOND
     1    1    3 1   
     2    1    9 1   
     3    1   10 1   
     4    2    3 1   
     5    2    4 1   
     6    2   11 1   
     7    3    6 1   
     8    3   12 1   
     9    5    6 1   
    10    5    7 1   
    11    6    8 1   
    12    6   13 1   
    13    7   14 1   
    14    7   15 1   
    15    7   16 1   
    16    8   17 1   
    17    8   18 1   
    18    8   19 1   
    19    9   20 1   
    20    9   21 1   
    21    9   22 1   
@<TRIPOS>SUBSTRUCTURE
     1 OTH         1 TEMP              0 ****  ****    0 ROOT
