@<TRIPOS>MOLECULE
OTJ
   58    61     1     0     0
SMALL
bcc


@<TRIPOS>ATOM
      1 C1         -0.5860    1.1850    0.1560 ca        1 OTJ     -0.067000
      2 C2         -0.3010   -0.6670    1.6800 ca        1 OTJ     -0.067000
      3 C3         -6.9180    8.3800   -0.7460 ca        1 OTJ     -0.106000
      4 C4          0.7780    1.4410    0.1910 ca        1 OTJ     -0.178000
      5 C5          1.0650   -0.4250    1.7270 ca        1 OTJ     -0.178000
      6 C6         -7.4820    9.2410    0.1850 ca        1 OTJ     -0.104000
      7 C7         -8.6360    7.3720    1.1960 ca        1 OTJ     -0.115000
      8 C8         -5.1640    5.8830   -1.5280 cc        1 OTJ      0.457400
      9 C9         -1.1420    0.1300    0.8910 ca        1 OTJ     -0.182500
     10 C10        -8.0700    6.4840    0.2690 ca        1 OTJ     -0.085300
     11 C11        -7.1980    6.9930   -0.7190 ca        1 OTJ     -0.030200
     12 C12         1.6320    0.6370    0.9790 ca        1 OTJ      0.111600
     13 C13        -8.3460    8.7350    1.1630 ca        1 OTJ      0.027400
     14 C14        -2.5700   -0.1230    0.8410 cc        1 OTJ      0.428800
     15 C15        -3.2210   -1.3940    0.7730 cd        1 OTJ     -0.096200
     16 C16        -4.7420    0.2470    0.7710 cd        1 OTJ      0.284800
     17 C17        -7.3380    2.8930   -0.1060 c         1 OTJ      0.580100
     18 C18         3.7120    1.8500    0.4120 c         1 OTJ      0.749100
     19 C19         5.8690    2.7750    0.0580 c3        1 OTJ      0.137700
     20 C20        -8.4830    5.0560    0.3790 c3        1 OTJ     -0.030100
     21 C21        -6.0530    0.9580    0.7760 c3        1 OTJ      0.115500
     22 C22        -7.3190    4.1390    0.7310 c3        1 OTJ     -0.132400
     23 N23        -4.8960    4.6550   -1.9290 n2        1 OTJ     -0.584800
     24 N24        -3.5340    0.8770    0.8390 nc        1 OTJ     -0.646000
     25 N25        -6.0950    4.0750   -2.3520 na        1 OTJ     -0.096900
     26 N26        -7.1610    5.0270   -2.2230 na        1 OTJ     -0.176700
     27 N27        -4.5930   -1.1430    0.7180 na        1 OTJ     -0.271900
     28 N28        -6.5600    6.2390   -1.7640 na        1 OTJ     -0.232300
     29 N29         3.0140    0.8410    1.0540 n         1 OTJ     -0.449100
     30 N30        -6.0260    2.1240   -0.1600 n4        1 OTJ     -0.671800
     31 O31        -8.2550    2.3980   -0.7370 o         1 OTJ     -0.417100
     32 O32         3.3000    2.7550   -0.3280 o         1 OTJ     -0.569000
     33 O33         5.0620    1.7720    0.6850 os        1 OTJ     -0.438900
     34 CL3        -9.0410    9.7750    2.3010 cl        1 OTJ     -0.045400
     35 CL5        -2.5830   -2.9330    0.7340 cl        1 OTJ      0.032600
     36 H1         -1.2330    1.8250   -0.4650 ha        1 OTJ      0.140000
     37 H4          1.1860    2.2770   -0.4040 ha        1 OTJ      0.164000
     38 H2         -0.7210   -1.4910    2.2770 ha        1 OTJ      0.140000
     39 H5          1.6990   -1.0690    2.3560 ha        1 OTJ      0.164000
     40 H7         -9.3270    6.9850    1.9640 ha        1 OTJ      0.158000
     41 H8         -4.4530    6.6170   -1.1190 h5        1 OTJ      0.096100
     42 H201       -9.2650    4.9500    1.1840 hc        1 OTJ      0.087200
     43 H202       -8.9860    4.7310   -0.5740 hc        1 OTJ      0.087200
     44 H29         3.5440    0.2110    1.6170 hn        1 OTJ      0.345500
     45 H27        -5.3130   -1.8210    0.7080 hn        1 OTJ      0.324700
     46 H211       -6.8980    0.2780    0.4640 hx        1 OTJ      0.110700
     47 H212       -6.2610    1.3540    1.8150 hx        1 OTJ      0.110700
     48 H221       -7.3880    3.8240    1.8100 hc        1 OTJ      0.095700
     49 H222       -6.3430    4.6820    0.6020 hc        1 OTJ      0.095700
     50 H30        -5.2420    2.7470    0.0770 hn        1 OTJ      0.475800
     51 H191        6.9010    2.5220    0.4100 h1        1 OTJ      0.059700
     52 H192        5.7800    2.6950   -1.0520 h1        1 OTJ      0.059700
     53 H193        5.5510    3.7880    0.4010 h1        1 OTJ      0.059700
     54 H25        -5.9800    3.7730   -3.3200 hn        1 OTJ      0.237700
     55 H26        -7.5530    5.2580   -3.1400 hn        1 OTJ      0.228700
     56 H3         -6.2520    8.7960   -1.5200 ha        1 OTJ      0.159000
     57 H302       -5.8720    1.7830   -1.1180 hn        1 OTJ      0.475800
     58 H6         -7.2530   10.3190    0.1450 ha        1 OTJ      0.170000
@<TRIPOS>BOND
     1    1    4 ar  
     2    1    9 ar  
     3    1   36 1   
     4    2    5 ar  
     5    2    9 ar  
     6    2   38 1   
     7    3    6 ar  
     8    3   11 ar  
     9    3   56 1   
    10    4   12 ar  
    11    4   37 1   
    12    5   12 ar  
    13    5   39 1   
    14    6   13 ar  
    15    6   58 1   
    16    7   10 ar  
    17    7   13 ar  
    18    7   40 1   
    19    8   23 2   
    20    8   28 1   
    21    8   41 1   
    22    9   14 1   
    23   10   11 ar  
    24   10   20 1   
    25   11   28 1   
    26   12   29 1   
    27   13   34 1   
    28   14   15 2   
    29   14   24 1   
    30   15   27 1   
    31   15   35 1   
    32   16   21 1   
    33   16   24 2   
    34   16   27 1   
    35   17   22 1   
    36   17   30 1   
    37   17   31 2   
    38   18   29 1   
    39   18   32 2   
    40   18   33 1   
    41   19   33 1   
    42   19   51 1   
    43   19   52 1   
    44   19   53 1   
    45   20   22 1   
    46   20   42 1   
    47   20   43 1   
    48   21   30 1   
    49   21   46 1   
    50   21   47 1   
    51   22   48 1   
    52   22   49 1   
    53   23   25 1   
    54   25   26 1   
    55   25   54 1   
    56   26   28 1   
    57   26   55 1   
    58   27   45 1   
    59   29   44 1   
    60   30   50 1   
    61   30   57 1   
@<TRIPOS>SUBSTRUCTURE
     1 OTJ         1 TEMP              0 ****  ****    0 ROOT
