@<TRIPOS>MOLECULE
OTJ
   58    60     1     0     0
SMALL
bcc


@<TRIPOS>ATOM
      1 C1          0.4850   -0.5070    0.5080 ca        1 OTJ     -0.044000
      2 C2          1.6000    1.3710   -0.5390 ca        1 OTJ     -0.044000
      3 C3        -10.5570    7.0260    1.9790 ca        1 OTJ     -0.092000
      4 C4          1.7110   -1.0670    0.8350 ca        1 OTJ     -0.184000
      5 C5          2.8320    0.8210   -0.2260 ca        1 OTJ     -0.184000
      6 C6        -10.9750    5.9330    2.7270 ca        1 OTJ     -0.119000
      7 C7         -9.5850    4.4920    1.3700 ca        1 OTJ     -0.129000
      8 C8         -7.9960    8.6820    0.5710 cc        1 OTJ      0.424400
      9 C9          0.4120    0.7220   -0.1680 ca        1 OTJ     -0.223900
     10 C10        -9.1470    5.5860    0.6080 ca        1 OTJ     -0.066300
     11 C11        -9.6340    6.8740    0.9170 ca        1 OTJ     -0.027200
     12 C12         2.9140   -0.4130    0.4760 ca        1 OTJ      0.144600
     13 C13       -10.4850    4.6600    2.4210 ca        1 OTJ      0.029400
     14 C14        -0.8810    1.2780   -0.5020 cc        1 OTJ      0.421600
     15 C15        -1.2380    2.7440   -0.3000 cc        1 OTJ      0.226000
     16 C16        -2.9970    1.5870   -1.1270 cd        1 OTJ      0.021500
     17 C17        -5.7880    5.2910   -1.2100 c         1 OTJ      0.693100
     18 C18         4.4220   -2.1090    1.4580 c         1 OTJ      0.748100
     19 C19         6.1290   -3.5470    2.2640 c3        1 OTJ      0.136700
     20 C20        -8.1950    5.2870   -0.5010 c3        1 OTJ     -0.043100
     21 C21        -4.2490    1.3580   -1.5890 c2        1 OTJ      0.018000
     22 C22        -6.7570    5.5060   -0.0650 c3        1 OTJ     -0.147400
     23 N23        -7.3690    9.1190   -0.5030 n2        1 OTJ     -0.551800
     24 N24        -1.9360    0.6330   -0.9850 nd        1 OTJ     -0.450300
     25 N25        -8.1180    8.7400   -1.6150 na        1 OTJ     -0.056900
     26 N26        -9.3350    8.1080   -1.1870 na        1 OTJ     -0.164700
     27 N27        -2.5130    2.8910   -0.6870 na        1 OTJ     -0.187300
     28 N28        -9.3000    8.1030    0.2440 na        1 OTJ     -0.234300
     29 N29         4.1750   -0.9220    0.7750 ns        1 OTJ     -0.447100
     30 N30        -5.8120    6.1340   -2.2750 nt        1 OTJ     -0.633000
     31 O31        -4.9530    4.3430   -1.1800 o         1 OTJ     -0.766100
     32 O32         3.6190   -2.9170    1.9440 o         1 OTJ     -0.554000
     33 O33         5.7730   -2.3420    1.5710 os        1 OTJ     -0.433900
     34 Cl3       -10.9890    3.3170    3.3240 cl        1 OTJ     -0.066400
     35 Cl5        -0.2610    3.9310    0.3110 cl        1 OTJ      0.079700
     36 H1         -0.4390   -1.0390    0.7870 ha        1 OTJ      0.145000
     37 H4          1.7360   -2.0310    1.3740 ha        1 OTJ      0.174000
     38 H2          1.5650    2.3170   -1.1000 ha        1 OTJ      0.145000
     39 H5          3.7480    1.3490   -0.5350 ha        1 OTJ      0.174000
     40 H7         -9.2120    3.4840    1.1280 ha        1 OTJ      0.148000
     41 H8         -7.6670    8.7750    1.6140 h5        1 OTJ      0.082100
     42 H201       -8.4350    5.8950   -1.4110 hc        1 OTJ      0.073700
     43 H202       -8.3150    4.2110   -0.8090 hc        1 OTJ      0.073700
     44 H29         4.9720   -0.4100    0.4620 hn        1 OTJ      0.349500
     45 H27        -3.0880    3.7190   -0.6910 hn        1 OTJ      0.388700
     46 H211       -6.4630    6.8830   -2.3210 hn        1 OTJ      0.334000
     47 H212       -5.0000    2.1670   -1.6660 ha        1 OTJ      0.188500
     48 H221       -6.4930    4.7840    0.7520 hc        1 OTJ      0.076700
     49 H222       -6.6250    6.5450    0.3390 hc        1 OTJ      0.076700
     50 H30        -4.5540    0.3450   -1.9030 ha        1 OTJ      0.188500
     51 H191        5.7120   -4.4310    1.7250 h1        1 OTJ      0.063700
     52 H192        5.7410   -3.5100    3.3100 h1        1 OTJ      0.063700
     53 H193        7.2470   -3.5300    2.2330 h1        1 OTJ      0.063700
     54 H25        -8.3070    9.5700   -2.1770 hn        1 OTJ      0.230700
     55 H26       -10.1430    8.6910   -1.4210 hn        1 OTJ      0.208700
     56 H3        -10.9610    8.0240    2.2220 ha        1 OTJ      0.159000
     57 H302       -5.1850    6.0040   -3.0310 hn        1 OTJ      0.334000
     58 H6        -11.6950    6.0730    3.5500 ha        1 OTJ      0.163000
@<TRIPOS>BOND
     1    1    4 ar  
     2    1    9 ar  
     3    1   36 1   
     4    2    5 ar  
     5    2    9 ar  
     6    2   38 1   
     7    3    6 ar  
     8    3   11 ar  
     9    3   56 1   
    10    4   12 ar  
    11    4   37 1   
    12    5   12 ar  
    13    5   39 1   
    14    6   13 ar  
    15    6   58 1   
    16    7   10 ar  
    17    7   13 ar  
    18    7   40 1   
    19    8   23 2   
    20    8   28 1   
    21    8   41 1   
    22    9   14 1   
    23   10   11 ar  
    24   10   20 1   
    25   11   28 1   
    26   12   29 1   
    27   13   34 1   
    28   14   15 1   
    29   14   24 2   
    30   15   27 2   
    31   15   35 1   
    32   16   21 2   
    33   16   24 1   
    34   16   27 1   
    35   17   22 1   
    36   17   30 1   
    37   17   31 2   
    38   18   29 1   
    39   18   32 2   
    40   18   33 1   
    41   19   33 1   
    42   19   51 1   
    43   19   52 1   
    44   19   53 1   
    45   20   22 1   
    46   20   42 1   
    47   20   43 1   
    48   21   47 1   
    49   21   50 1   
    50   22   48 1   
    51   22   49 1   
    52   23   25 1   
    53   25   26 1   
    54   25   54 1   
    55   26   28 1   
    56   26   55 1   
    57   27   45 1   
    58   29   44 1   
    59   30   46 1   
    60   30   57 1   
@<TRIPOS>SUBSTRUCTURE
     1 OTJ         1 TEMP              0 ****  ****    0 ROOT
