@<TRIPOS>MOLECULE
OTM
   61    65     1     0     0
SMALL
bcc


@<TRIPOS>ATOM
      1 C24        -0.9940   -1.3000    0.6180 c         1 OTM      0.577300
      2 O25        -0.2510   -1.3930    1.5850 o         1 OTM     -0.423100
      3 C26        -2.1960   -0.4960    0.4140 ce        1 OTM     -0.258200
      4 C27        -2.5940    0.4940    1.2290 cf        1 OTM      0.058800
      5 C28        -1.9650    0.9780    2.4550 ca        1 OTM     -0.088800
      6 C29        -2.5830    0.6590    3.6710 ca        1 OTM     -0.096000
      7 C30        -2.0670    1.1410    4.8770 ca        1 OTM      0.033400
      8 C31        -0.9320    1.9610    4.8790 ca        1 OTM     -0.088000
      9 C32        -0.3110    2.2910    3.6810 ca        1 OTM     -0.111000
     10 C33        -0.8190    1.8060    2.4590 ca        1 OTM      0.014800
     11 N34        -0.1680    2.1720    1.2470 na        1 OTM     -0.001500
     12 C35         0.3830    3.4330    0.9230 cc        1 OTM      0.424400
     13 N36         0.9470    3.2830   -0.3060 nd        1 OTM     -0.348000
     14 N37         0.7410    2.0170   -0.6690 nd        1 OTM     -0.075000
     15 N38         0.1010    1.3430    0.2100 nc        1 OTM     -0.250800
     16 Cl         -2.8210    0.7350    6.3330 cl        1 OTM     -0.027400
     17 N23        -0.6210   -2.2130   -0.5430 ny        1 OTM     -0.673800
     18 C8          0.1860   -1.5140   -1.5990 c3        1 OTM      0.048500
     19 C9         -0.7570   -0.7160   -2.5440 c         1 OTM      0.656100
     20 O10        -1.9340   -1.1170   -2.6720 o         1 OTM     -0.618100
     21 C7          0.9760   -2.5160   -2.4590 c3        1 OTM     -0.051100
     22 C4          1.8210   -3.4110   -1.6250 ca        1 OTM     -0.156300
     23 C3          1.3910   -4.7120   -1.3330 ca        1 OTM     -0.129000
     24 C5          3.0650   -2.9730   -1.1550 ca        1 OTM     -0.129000
     25 C2          2.1950   -5.5610   -0.5750 ca        1 OTM     -0.114000
     26 C6          3.8660   -3.8240   -0.3960 ca        1 OTM     -0.114000
     27 C1          3.4320   -5.1180   -0.1030 ca        1 OTM     -0.098000
     28 N11        -0.1980    0.3420   -3.2000 ns        1 OTM     -0.417100
     29 C12        -0.8930    1.2230   -4.0640 ca        1 OTM      0.040600
     30 C13        -0.3930    2.5350   -4.2280 ca        1 OTM     -0.145500
     31 C14        -1.0300    3.4220   -5.0860 ca        1 OTM     -0.077000
     32 C15        -2.1740    3.0260   -5.7950 ca        1 OTM     -0.130500
     33 C16        -2.6690    1.7270   -5.6360 ca        1 OTM     -0.077000
     34 C17        -2.0390    0.8270   -4.7810 ca        1 OTM     -0.145500
     35 C18        -2.8360    3.9820   -6.6650 cc        1 OTM      0.431000
     36 N19        -3.6330    3.6800   -7.7910 na        1 OTM     -0.175400
     37 N20        -4.0570    4.8350   -8.3190 nc        1 OTM     -0.176800
     38 N21        -3.5820    5.7900   -7.6030 nd        1 OTM     -0.038000
     39 N22        -2.8380    5.3540   -6.5930 nd        1 OTM     -0.359000
     40 H26        -2.7940   -0.7210   -0.4930 ha        1 OTM      0.190000
     41 H27        -3.5400    1.0240    0.9780 ha        1 OTM      0.175000
     42 H29        -3.4850    0.0240    3.6720 ha        1 OTM      0.167000
     43 H31        -0.5250    2.3450    5.8310 ha        1 OTM      0.177000
     44 H32         0.5870    2.9330    3.7000 ha        1 OTM      0.163000
     45 H35         0.3320    4.3280    1.5530 h5        1 OTM      0.108100
     46 H23        -1.4800   -2.5740   -0.9820 hn        1 OTM      0.471300
     47 H8          0.9140   -0.8370   -1.0610 hx        1 OTM      0.135700
     48 H71C        0.2680   -3.1160   -3.0920 hc        1 OTM      0.093700
     49 H72C        1.6230   -1.9150   -3.1560 hc        1 OTM      0.093700
     50 H3          0.4360   -5.0820   -1.7350 ha        1 OTM      0.136000
     51 H5          3.4190   -1.9590   -1.3980 ha        1 OTM      0.136000
     52 H2          1.8590   -6.5880   -0.3580 ha        1 OTM      0.154000
     53 H6          4.8470   -3.4770   -0.0350 ha        1 OTM      0.154000
     54 H1          4.0690   -5.7920    0.4900 ha        1 OTM      0.156000
     55 H11         0.7230    0.6340   -2.9400 hn        1 OTM      0.347500
     56 H13         0.5000    2.8730   -3.6770 ha        1 OTM      0.162500
     57 H17        -2.4540   -0.1880   -4.6670 ha        1 OTM      0.162500
     58 H14        -0.6350    4.4470   -5.2010 ha        1 OTM      0.159500
     59 H16        -3.5720    1.3990   -6.1750 ha        1 OTM      0.159500
     60 H19        -3.8550    2.7950   -8.1830 hn        1 OTM      0.336700
     61 H232       -0.0570   -3.0020   -0.1860 hn        1 OTM      0.471300
@<TRIPOS>BOND
     1    1    2 2   
     2    1    3 1   
     3    1   17 1   
     4    3    4 2   
     5    3   40 1   
     6    4    5 1   
     7    4   41 1   
     8    5    6 ar  
     9    5   10 ar  
    10    6    7 ar  
    11    6   42 1   
    12    7    8 ar  
    13    7   16 1   
    14    8    9 ar  
    15    8   43 1   
    16    9   10 ar  
    17    9   44 1   
    18   10   11 1   
    19   11   12 1   
    20   11   15 1   
    21   12   13 2   
    22   12   45 1   
    23   13   14 1   
    24   14   15 2   
    25   17   18 1   
    26   17   46 1   
    27   17   61 1   
    28   18   19 1   
    29   18   21 1   
    30   18   47 1   
    31   19   20 2   
    32   19   28 1   
    33   21   22 1   
    34   21   48 1   
    35   21   49 1   
    36   22   23 ar  
    37   22   24 ar  
    38   23   25 ar  
    39   23   50 1   
    40   24   26 ar  
    41   24   51 1   
    42   25   27 ar  
    43   25   52 1   
    44   26   27 ar  
    45   26   53 1   
    46   27   54 1   
    47   28   29 1   
    48   28   55 1   
    49   29   30 ar  
    50   29   34 ar  
    51   30   31 ar  
    52   30   56 1   
    53   31   32 ar  
    54   31   58 1   
    55   32   33 ar  
    56   32   35 1   
    57   33   34 ar  
    58   33   59 1   
    59   34   57 1   
    60   35   36 1   
    61   35   39 2   
    62   36   37 1   
    63   36   60 1   
    64   37   38 2   
    65   38   39 1   
@<TRIPOS>SUBSTRUCTURE
     1 OTM         1 TEMP              0 ****  ****    0 ROOT
