@<TRIPOS>MOLECULE
OTM
   61    65     1     0     0
SMALL
bcc


@<TRIPOS>ATOM
      1 C24         1.3390    1.5020   -0.0210 c         1 OTM      0.580300
      2 O25         2.4910    1.6000   -0.4210 o         1 OTM     -0.420100
      3 C26         0.5440    2.5640    0.5940 ce        1 OTM     -0.231200
      4 C27        -0.5540    2.4940    1.3530 cf        1 OTM      0.016800
      5 C28        -1.3320    1.3400    1.7940 ca        1 OTM     -0.126800
      6 C29        -2.6080    1.1620    1.2420 ca        1 OTM     -0.092000
      7 C30        -3.4650    0.1750    1.7410 ca        1 OTM      0.027400
      8 C31        -3.0590   -0.6360    2.8080 ca        1 OTM     -0.091000
      9 C32        -1.7880   -0.4870    3.3510 ca        1 OTM     -0.115000
     10 C33        -0.9090    0.4910    2.8440 ca        1 OTM     -0.001200
     11 N34         0.4000    0.6050    3.3850 na        1 OTM     -0.036500
     12 C35         0.7810    0.7070    4.7410 cc        1 OTM      0.432400
     13 N36         2.1390    0.7250    4.7380 nd        1 OTM     -0.345000
     14 N37         2.5270    0.6330    3.4620 nd        1 OTM      0.004000
     15 N38         1.5450    0.5600    2.6500 nc        1 OTM     -0.280800
     16 CL         -4.9970   -0.0260    1.0610 cl        1 OTM     -0.022400
     17 N23         0.6890    0.1500   -0.2310 n4        1 OTM     -0.666800
     18 C8          0.7310   -0.2930   -1.6650 c3        1 OTM      0.038500
     19 C9         -0.4850    0.2830   -2.4420 c         1 OTM      0.653100
     20 O10        -1.5110    0.5930   -1.8030 o         1 OTM     -0.606100
     21 C7          0.6960   -1.8250   -1.7900 c3        1 OTM     -0.047100
     22 C4          1.7720   -2.4660   -0.9900 ca        1 OTM     -0.160300
     23 C3          1.4660   -3.0950    0.2240 ca        1 OTM     -0.125000
     24 C5          3.0910   -2.4760   -1.4600 ca        1 OTM     -0.125000
     25 C2          2.4710   -3.7180    0.9620 ca        1 OTM     -0.113000
     26 C6          4.0940   -3.0980   -0.7180 ca        1 OTM     -0.113000
     27 C1          3.7860   -3.7180    0.4940 ca        1 OTM     -0.093000
     28 N11        -0.3320    0.3800   -3.7970 n         1 OTM     -0.430100
     29 C12        -1.2880    0.8860   -4.7100 ca        1 OTM      0.043600
     30 C13        -0.8380    1.2850   -5.9910 ca        1 OTM     -0.149000
     31 C14        -1.7380    1.7760   -6.9270 ca        1 OTM     -0.073000
     32 C15        -3.1030    1.8790   -6.6130 ca        1 OTM     -0.126500
     33 C16        -3.5500    1.4830   -5.3480 ca        1 OTM     -0.073000
     34 C17        -2.6570    0.9880   -4.4010 ca        1 OTM     -0.149000
     35 C18        -4.0180    2.4150   -7.6060 cc        1 OTM      0.427000
     36 N19        -5.4120    2.1990   -7.6660 na        1 OTM     -0.175400
     37 N20        -5.8880    2.8630   -8.7270 nc        1 OTM     -0.174800
     38 N21        -4.8990    3.4530   -9.2950 nd        1 OTM     -0.035000
     39 N22        -3.7440    3.2290   -8.6780 nd        1 OTM     -0.356000
     40 H26         0.9990    3.5590    0.3870 ha        1 OTM      0.201000
     41 H27        -0.9830    3.4550    1.7190 ha        1 OTM      0.181000
     42 H29        -2.9320    1.8060    0.4060 ha        1 OTM      0.181000
     43 H31        -3.7440   -1.3970    3.2200 ha        1 OTM      0.180000
     44 H32        -1.4770   -1.1400    4.1840 ha        1 OTM      0.169000
     45 H35         0.0920    0.7700    5.5920 h5        1 OTM      0.107100
     46 H23         1.2000   -0.5540    0.3290 hn        1 OTM      0.479800
     47 H8          1.7100    0.0880   -2.0920 hx        1 OTM      0.130700
     48 H71C        0.8280   -2.0750   -2.8790 hc        1 OTM      0.089700
     49 H72C       -0.3130   -2.2090   -1.4780 hc        1 OTM      0.089700
     50 H3          0.4260   -3.1280    0.5830 ha        1 OTM      0.132500
     51 H5          3.3370   -2.0010   -2.4210 ha        1 OTM      0.132500
     52 H2          2.2260   -4.2200    1.9110 ha        1 OTM      0.154000
     53 H6          5.1300   -3.1040   -1.0930 ha        1 OTM      0.154000
     54 H1          4.5800   -4.2120    1.0770 ha        1 OTM      0.158000
     55 H11         0.5500    0.1310   -4.1940 hn        1 OTM      0.335500
     56 H13         0.2270    1.2150   -6.2640 ha        1 OTM      0.157000
     57 H17        -3.0390    0.6880   -3.4120 ha        1 OTM      0.157000
     58 H14        -1.3730    2.0900   -7.9200 ha        1 OTM      0.161000
     59 H16        -4.6140    1.5670   -5.0760 ha        1 OTM      0.161000
     60 H19        -5.9890    1.6470   -7.0740 hn        1 OTM      0.335700
     61 H232       -0.2950    0.1840    0.0780 hn        1 OTM      0.479800
@<TRIPOS>BOND
     1    1    2 2   
     2    1    3 1   
     3    1   17 1   
     4    3    4 2   
     5    3   40 1   
     6    4    5 1   
     7    4   41 1   
     8    5    6 ar  
     9    5   10 ar  
    10    6    7 ar  
    11    6   42 1   
    12    7    8 ar  
    13    7   16 1   
    14    8    9 ar  
    15    8   43 1   
    16    9   10 ar  
    17    9   44 1   
    18   10   11 1   
    19   11   12 1   
    20   11   15 1   
    21   12   13 2   
    22   12   45 1   
    23   13   14 1   
    24   14   15 2   
    25   17   18 1   
    26   17   46 1   
    27   17   61 1   
    28   18   19 1   
    29   18   21 1   
    30   18   47 1   
    31   19   20 2   
    32   19   28 1   
    33   21   22 1   
    34   21   48 1   
    35   21   49 1   
    36   22   23 ar  
    37   22   24 ar  
    38   23   25 ar  
    39   23   50 1   
    40   24   26 ar  
    41   24   51 1   
    42   25   27 ar  
    43   25   52 1   
    44   26   27 ar  
    45   26   53 1   
    46   27   54 1   
    47   28   29 1   
    48   28   55 1   
    49   29   30 ar  
    50   29   34 ar  
    51   30   31 ar  
    52   30   56 1   
    53   31   32 ar  
    54   31   58 1   
    55   32   33 ar  
    56   32   35 1   
    57   33   34 ar  
    58   33   59 1   
    59   34   57 1   
    60   35   36 1   
    61   35   39 2   
    62   36   37 1   
    63   36   60 1   
    64   37   38 2   
    65   38   39 1   
@<TRIPOS>SUBSTRUCTURE
     1 OTM         1 TEMP              0 ****  ****    0 ROOT
