@<TRIPOS>MOLECULE
OTN
   36    37     1     0     0
SMALL
bcc


@<TRIPOS>ATOM
      1 O2'         0.2350    0.3790    0.1810 o         1 OTN     -0.204000
      2 N1'         1.3990    0.0900    0.1030 no        1 OTN      0.311200
      3 O3'         2.0610   -0.1500    1.0810 o         1 OTN     -0.204000
      4 C2'         2.0410    0.0290   -1.2320 ca        1 OTN     -0.183200
      5 C3'         1.2260    0.1850   -2.3690 ca        1 OTN     -0.052000
      6 C4'         1.7940    0.1360   -3.6350 ca        1 OTN     -0.150000
      7 C5'         3.1690   -0.0770   -3.7720 ca        1 OTN     -0.069000
      8 C6'         3.9700   -0.2370   -2.6490 ca        1 OTN     -0.156000
      9 C1'         3.4350   -0.1780   -1.3510 ca        1 OTN      0.037900
     10 S01         4.3670   -0.3730    0.0420 ss        1 OTN     -0.017000
     11 C1          6.0630   -0.1580   -0.4640 c3        1 OTN      0.120200
     12 O5          6.4510   -1.3420   -1.1450 os        1 OTN     -0.402600
     13 C5          7.8330   -1.3790   -1.5120 c3        1 OTN      0.095100
     14 C6          8.0260   -2.7280   -2.2130 c3        1 OTN      0.142400
     15 O6          7.1980   -2.8210   -3.3520 oh        1 OTN     -0.599800
     16 C4          8.7580   -1.2380   -0.2990 c3        1 OTN      0.128100
     17 O4          8.6300   -2.3980    0.5030 oh        1 OTN     -0.590800
     18 C3          8.3860    0.0350    0.4780 c3        1 OTN      0.115100
     19 O3          9.1600    0.0250    1.6650 oh        1 OTN     -0.605800
     20 C2          6.8830    0.0450    0.8160 c3        1 OTN      0.093100
     21 O2          6.6410    1.3140    1.3990 oh        1 OTN     -0.602800
     22 H1          0.1410    0.3460   -2.2480 ha        1 OTN      0.173000
     23 H2          1.1610    0.2600   -4.5260 ha        1 OTN      0.151000
     24 H3          3.6190   -0.1280   -4.7760 ha        1 OTN      0.148000
     25 H4          5.0470   -0.4390   -2.7800 ha        1 OTN      0.160000
     26 H5          6.1860    0.7280   -1.1410 h2        1 OTN      0.072700
     27 H6          8.0390   -0.5310   -2.2240 h1        1 OTN      0.053700
     28 H7          9.0760   -2.8010   -2.6010 h1        1 OTN      0.069700
     29 H8          7.8170   -3.5620   -1.4920 h1        1 OTN      0.069700
     30 H9          6.2850   -2.8250   -3.0370 ho        1 OTN      0.411000
     31 H10         9.8260   -1.1500   -0.6500 h1        1 OTN      0.058700
     32 H11         9.0950   -2.2160    1.3320 ho        1 OTN      0.426000
     33 H12         8.6370    0.9480   -0.1300 h1        1 OTN      0.059700
     34 H13         8.8510    0.7650    2.2060 ho        1 OTN      0.431000
     35 H14         6.6590   -0.7790    1.5500 h1        1 OTN      0.084700
     36 H15         5.7100    1.3360    1.6600 ho        1 OTN      0.426000
@<TRIPOS>BOND
     1    1    2 1   
     2    2    3 1   
     3    2    4 1   
     4    4    5 ar  
     5    4    9 ar  
     6    5    6 ar  
     7    5   22 1   
     8    6    7 ar  
     9    6   23 1   
    10    7    8 ar  
    11    7   24 1   
    12    8    9 ar  
    13    8   25 1   
    14    9   10 1   
    15   10   11 1   
    16   11   12 1   
    17   11   20 1   
    18   11   26 1   
    19   12   13 1   
    20   13   14 1   
    21   13   16 1   
    22   13   27 1   
    23   14   15 1   
    24   14   28 1   
    25   14   29 1   
    26   15   30 1   
    27   16   17 1   
    28   16   18 1   
    29   16   31 1   
    30   17   32 1   
    31   18   19 1   
    32   18   20 1   
    33   18   33 1   
    34   19   34 1   
    35   20   21 1   
    36   20   35 1   
    37   21   36 1   
@<TRIPOS>SUBSTRUCTURE
     1 OTN         1 TEMP              0 ****  ****    0 ROOT
