@<TRIPOS>MOLECULE
OTN
   36    37     1     0     0
SMALL
bcc


@<TRIPOS>ATOM
      1 O2'         0.2370    0.3590    0.2050 o         1 OTN     -0.204000
      2 N1'         1.4010    0.0710    0.1210 no        1 OTN      0.311200
      3 O3'         2.0650   -0.1800    1.0950 o         1 OTN     -0.204000
      4 C2'         2.0400    0.0280   -1.2160 ca        1 OTN     -0.183200
      5 C3'         1.2230    0.1980   -2.3500 ca        1 OTN     -0.052000
      6 C4'         1.7880    0.1650   -3.6170 ca        1 OTN     -0.150000
      7 C5'         3.1620   -0.0450   -3.7600 ca        1 OTN     -0.069000
      8 C6'         3.9660   -0.2180   -2.6410 ca        1 OTN     -0.156000
      9 C1'         3.4340   -0.1760   -1.3410 ca        1 OTN      0.037900
     10 S01         4.3690   -0.3880    0.0480 ss        1 OTN     -0.017000
     11 C1          6.0640   -0.1650   -0.4600 c3        1 OTN      0.120200
     12 O5          6.4510   -1.3390   -1.1560 os        1 OTN     -0.402600
     13 C5          7.8320   -1.3710   -1.5270 c3        1 OTN      0.095100
     14 C6          8.0260   -2.7110   -2.2460 c3        1 OTN      0.142400
     15 O6          7.1950   -2.7890   -3.3840 oh        1 OTN     -0.599800
     16 C4          8.7610   -1.2440   -0.3140 c3        1 OTN      0.128100
     17 O4          8.6350   -2.4140    0.4730 oh        1 OTN     -0.590800
     18 C3          8.3890    0.0190    0.4800 c3        1 OTN      0.115100
     19 O3          9.1650   -0.0060    1.6650 oh        1 OTN     -0.605800
     20 C2          6.8870    0.0230    0.8210 c3        1 OTN      0.093100
     21 O2          6.6450    1.2840    1.4210 oh        1 OTN     -0.602800
     22 H1          0.1370    0.3560   -2.2240 ha        1 OTN      0.173000
     23 H2          1.1520    0.2990   -4.5050 ha        1 OTN      0.151000
     24 H3          3.6110   -0.0820   -4.7660 ha        1 OTN      0.148000
     25 H4          5.0430   -0.4180   -2.7770 ha        1 OTN      0.160000
     26 H5          6.1850    0.7300   -1.1260 h2        1 OTN      0.072700
     27 H6          8.0370   -0.5130   -2.2280 h1        1 OTN      0.053700
     28 H7          7.8190   -3.5530   -1.5340 h1        1 OTN      0.069700
     29 H8          9.0750   -2.7780   -2.6360 h1        1 OTN      0.069700
     30 H9          6.2830   -2.7980   -3.0660 ho        1 OTN      0.411000
     31 H10         9.8270   -1.1500   -0.6670 h1        1 OTN      0.058700
     32 H11         9.1010   -2.2430    1.3040 ho        1 OTN      0.426000
     33 H12         8.6380    0.9390   -0.1170 h1        1 OTN      0.059700
     34 H13         8.8570    0.7270    2.2160 ho        1 OTN      0.431000
     35 H14         6.6650   -0.8110    1.5460 h1        1 OTN      0.084700
     36 H15         5.7140    1.3020    1.6840 ho        1 OTN      0.426000
@<TRIPOS>BOND
     1    1    2 1   
     2    2    3 1   
     3    2    4 1   
     4    4    5 ar  
     5    4    9 ar  
     6    5    6 ar  
     7    5   22 1   
     8    6    7 ar  
     9    6   23 1   
    10    7    8 ar  
    11    7   24 1   
    12    8    9 ar  
    13    8   25 1   
    14    9   10 1   
    15   10   11 1   
    16   11   12 1   
    17   11   20 1   
    18   11   26 1   
    19   12   13 1   
    20   13   14 1   
    21   13   16 1   
    22   13   27 1   
    23   14   15 1   
    24   14   28 1   
    25   14   29 1   
    26   15   30 1   
    27   16   17 1   
    28   16   18 1   
    29   16   31 1   
    30   17   32 1   
    31   18   19 1   
    32   18   20 1   
    33   18   33 1   
    34   19   34 1   
    35   20   21 1   
    36   20   35 1   
    37   21   36 1   
@<TRIPOS>SUBSTRUCTURE
     1 OTN         1 TEMP              0 ****  ****    0 ROOT
