@<TRIPOS>MOLECULE
OTR
   22    19     1     0     0
SMALL
bcc


@<TRIPOS>ATOM
      1 C2          0.7680   -0.2440   -1.3460 c1        1 OTR     -0.020500
      2 C3          2.1700   -0.2080   -1.3610 c1        1 OTR     -0.157500
      3 C4          2.8830   -0.2420   -0.1680 c1        1 OTR      0.112600
      4 O4          4.2720   -0.2550   -0.1910 oh        1 OTR     -0.479600
      5 C5          2.2040   -0.3130    1.0480 c1        1 OTR     -0.063500
      6 C6          0.7970   -0.3500    1.0660 c1        1 OTR     -0.063500
      7 C1          0.0850   -0.3150   -0.1370 c1        1 OTR     -0.134100
      8 C7         -1.4480   -0.4070   -0.1310 c3        1 OTR      0.150200
      9 O7         -1.8520   -1.3730    0.7730 oh        1 OTR     -0.606800
     10 C8         -2.0310    0.9280    0.2600 c3        1 OTR      0.166800
     11 N8         -3.4530    0.8400    0.2660 n3        1 OTR     -0.914800
     12 HN81       -3.8010    1.4540   -0.3190 hn        1 OTR      0.354300
     13 HN82       -3.7640    1.0080    1.1040 hn        1 OTR      0.354300
     14 H81        -1.7210    1.1690    1.1350 h1        1 OTR      0.038200
     15 H82        -1.7410    1.6280   -0.4020 h1        1 OTR      0.038200
     16 H7         -1.7570   -0.6460   -1.0100 h1        1 OTR      0.053700
     17 HO7        -2.1020   -2.1030    0.3320 ho        1 OTR      0.407000
     18 H6          0.3030   -0.4010    1.9430 ha        1 OTR      0.093000
     19 H5          2.7130   -0.3380    1.8990 ha        1 OTR      0.093000
     20 HO4         4.5640    0.5440   -0.3480 ho        1 OTR      0.420000
     21 H3          2.6470   -0.1580   -2.2120 ha        1 OTR      0.077500
     22 H2          0.2650   -0.2190   -2.1970 ha        1 OTR      0.080500
@<TRIPOS>BOND
     1    1    7 3   
     2    1   22 1   
     3    2    3 3   
     4    2   21 1   
     5    3    4 1   
     6    4   20 1   
     7    5    6 3   
     8    5   19 1   
     9    6   18 1   
    10    7    8 1   
    11    8    9 1   
    12    8   10 1   
    13    8   16 1   
    14    9   17 1   
    15   10   11 1   
    16   10   14 1   
    17   10   15 1   
    18   11   12 1   
    19   11   13 1   
@<TRIPOS>SUBSTRUCTURE
     1 OTR         1 TEMP              0 ****  ****    0 ROOT
