@<TRIPOS>MOLECULE
OTR
   23    23     1     0     0
SMALL
bcc


@<TRIPOS>ATOM
      1 C2         -0.0650    0.2460    0.0110 ca        1 OTR     -0.067000
      2 C3          1.3190    0.2110   -0.0620 ca        1 OTR     -0.181000
      3 C4          2.0590   -0.0790    1.1040 ca        1 OTR      0.175100
      4 O4          3.4180   -0.1010    0.9650 oh        1 OTR     -0.472100
      5 C5          1.4070   -0.3270    2.3230 ca        1 OTR     -0.181000
      6 C6          0.0180   -0.2860    2.3750 ca        1 OTR     -0.067000
      7 C1         -0.7250   -0.0050    1.2240 ca        1 OTR     -0.232300
      8 C7         -2.2140    0.0460    1.2920 c3        1 OTR      0.203400
      9 O7         -2.7900    1.1410    0.5910 oh        1 OTR     -0.643800
     10 C8         -2.7870   -1.2320    0.6280 c3        1 OTR      0.087800
     11 N8         -4.2680   -1.1650    0.4710 n4        1 OTR     -0.832600
     12 HN81       -4.5080   -0.2960   -0.0280 hn        1 OTR      0.465133
     13 HN82       -4.7210   -1.1430    1.3890 hn        1 OTR      0.465133
     14 H81        -2.3360   -1.3490   -0.3990 hx        1 OTR      0.117700
     15 H82        -2.5260   -2.1280    1.2590 hx        1 OTR      0.117700
     16 H7         -2.5660    0.1060    2.3630 h1        1 OTR      0.070700
     17 HO7        -2.1340    1.8500    0.5360 ho        1 OTR      0.462000
     18 H6         -0.4910   -0.4690    3.3350 ha        1 OTR      0.139000
     19 H5          1.9910   -0.5450    3.2300 ha        1 OTR      0.165500
     20 HO4         3.8180   -0.2890    1.8290 ho        1 OTR      0.439000
     21 H3          1.8510    0.4090   -1.0040 ha        1 OTR      0.165500
     22 H2         -0.6520    0.4810   -0.8910 ha        1 OTR      0.139000
     23 H83        -4.6100   -1.9710   -0.0580 hn        1 OTR      0.465133
@<TRIPOS>BOND
     1    1    2 ar  
     2    1    7 ar  
     3    1   22 1   
     4    2    3 ar  
     5    2   21 1   
     6    3    4 1   
     7    3    5 ar  
     8    4   20 1   
     9    5    6 ar  
    10    5   19 1   
    11    6    7 ar  
    12    6   18 1   
    13    7    8 1   
    14    8    9 1   
    15    8   10 1   
    16    8   16 1   
    17    9   17 1   
    18   10   11 1   
    19   10   14 1   
    20   10   15 1   
    21   11   12 1   
    22   11   13 1   
    23   11   23 1   
@<TRIPOS>SUBSTRUCTURE
     1 OTR         1 TEMP              0 ****  ****    0 ROOT
