@<TRIPOS>MOLECULE
OTR
   22    22     1     0     0
SMALL
bcc


@<TRIPOS>ATOM
      1 C2          3.1830   -1.1930    0.6630 ca        1 OTR     -0.077500
      2 C3          3.0730   -1.2460    2.0480 ca        1 OTR     -0.189000
      3 C4          1.8120   -1.0660    2.6410 ca        1 OTR      0.126100
      4 O4          1.7640   -1.1320    4.0140 oh        1 OTR     -0.497100
      5 C5          0.6750   -0.8330    1.8540 ca        1 OTR     -0.189000
      6 C6          0.8050   -0.7810    0.4690 ca        1 OTR     -0.077500
      7 C1          2.0550   -0.9620   -0.1340 ca        1 OTR     -0.129300
      8 C7          2.1550   -0.9040   -1.6290 c3        1 OTR      0.193400
      9 O7          3.5170   -0.7000   -1.9920 oh        1 OTR     -0.602800
     10 C8          1.6470   -2.2340   -2.2330 c3        1 OTR      0.129800
     11 N8          1.6840   -2.2360   -3.6760 n3        1 OTR     -0.919800
     12 HN81        1.2780   -3.0780   -4.0330 hn        1 OTR      0.351300
     13 HN82        2.6270   -2.1630   -4.0030 hn        1 OTR      0.351300
     14 H81         0.5770   -2.3700   -1.9070 h1        1 OTR      0.039700
     15 H82         2.2550   -3.0700   -1.7790 h1        1 OTR      0.039700
     16 H7          1.5250   -0.0500   -2.0110 h1        1 OTR      0.052700
     17 HO7         3.5080   -0.2700   -2.8540 ho        1 OTR      0.408000
     18 H6         -0.0830   -0.5950   -0.1540 ha        1 OTR      0.144000
     19 H5         -0.3070   -0.6920    2.3260 ha        1 OTR      0.142000
     20 HO4         0.8470   -0.9850    4.2870 ho        1 OTR      0.418000
     21 H3          3.9520   -1.4230    2.6830 ha        1 OTR      0.142000
     22 H2          4.1650   -1.3250    0.1820 ha        1 OTR      0.144000
@<TRIPOS>BOND
     1    1    2 ar  
     2    1    7 ar  
     3    1   22 1   
     4    2    3 ar  
     5    2   21 1   
     6    3    4 1   
     7    3    5 ar  
     8    4   20 1   
     9    5    6 ar  
    10    5   19 1   
    11    6    7 ar  
    12    6   18 1   
    13    7    8 1   
    14    8    9 1   
    15    8   10 1   
    16    8   16 1   
    17    9   17 1   
    18   10   11 1   
    19   10   14 1   
    20   10   15 1   
    21   11   12 1   
    22   11   13 1   
@<TRIPOS>SUBSTRUCTURE
     1 OTR         1 TEMP              0 ****  ****    0 ROOT
