@<TRIPOS>MOLECULE
OTR
   23    23     1     0     0
SMALL
bcc


@<TRIPOS>ATOM
      1 C2         -0.0590    0.2360    0.0090 ca        1 OTR     -0.067000
      2 C3          1.3250    0.2080   -0.0520 ca        1 OTR     -0.181000
      3 C4          2.0580   -0.0600    1.1230 ca        1 OTR      0.175100
      4 O4          3.4180   -0.0770    0.9950 oh        1 OTR     -0.472100
      5 C5          1.3980   -0.2930    2.3410 ca        1 OTR     -0.181000
      6 C6          0.0080   -0.2580    2.3820 ca        1 OTR     -0.067000
      7 C1         -0.7270    0.0000    1.2210 ca        1 OTR     -0.232300
      8 C7         -2.2170    0.0440    1.2760 c3        1 OTR      0.203400
      9 O7         -2.7930    1.1250    0.5550 oh        1 OTR     -0.643800
     10 C8         -2.7780   -1.2470    0.6280 c3        1 OTR      0.087800
     11 N8         -4.2580   -1.1900    0.4590 nz        1 OTR     -0.832600
     12 HN81       -4.7180   -1.1570    1.3730 hn        1 OTR      0.465133
     13 HN82       -4.5910   -2.0060   -0.0610 hn        1 OTR      0.465133
     14 H81        -2.3190   -1.3770   -0.3940 hx        1 OTR      0.117700
     15 H82        -2.5180   -2.1310    1.2740 hx        1 OTR      0.117700
     16 H7         -2.5770    0.1190    2.3440 h1        1 OTR      0.070700
     17 HO7        -2.1400    1.8370    0.4930 ho        1 OTR      0.462000
     18 H6         -0.5070   -0.4300    3.3400 ha        1 OTR      0.139000
     19 H5          1.9760   -0.4940    3.2560 ha        1 OTR      0.165500
     20 HO4         3.8130   -0.2490    1.8650 ho        1 OTR      0.439000
     21 H3          1.8640    0.3940   -0.9940 ha        1 OTR      0.165500
     22 H2         -0.6400    0.4540   -0.9010 ha        1 OTR      0.139000
     23 H83        -4.4980   -0.3300   -0.0550 hn        1 OTR      0.465133
@<TRIPOS>BOND
     1    1    2 ar  
     2    1    7 ar  
     3    1   22 1   
     4    2    3 ar  
     5    2   21 1   
     6    3    4 1   
     7    3    5 ar  
     8    4   20 1   
     9    5    6 ar  
    10    5   19 1   
    11    6    7 ar  
    12    6   18 1   
    13    7    8 1   
    14    8    9 1   
    15    8   10 1   
    16    8   16 1   
    17    9   17 1   
    18   10   11 1   
    19   10   14 1   
    20   10   15 1   
    21   11   12 1   
    22   11   13 1   
    23   11   23 1   
@<TRIPOS>SUBSTRUCTURE
     1 OTR         1 TEMP              0 ****  ****    0 ROOT
