@<TRIPOS>MOLECULE
OTS
   23    23     1     0     0
SMALL
bcc


@<TRIPOS>ATOM
      1 C2          0.0020    0.1100   -0.1140 ca        1 OTS     -0.067000
      2 C3          1.3890    0.0870   -0.1000 ca        1 OTS     -0.181000
      3 C4          2.0610   -0.0650    1.1300 ca        1 OTS      0.174100
      4 O4          3.4260   -0.0810    1.0740 oh        1 OTS     -0.471100
      5 C5          1.3400   -0.1910    2.3300 ca        1 OTS     -0.181000
      6 C6         -0.0490   -0.1680    2.2940 ca        1 OTS     -0.067000
      7 C1         -0.7260   -0.0210    1.0770 ca        1 OTS     -0.231300
      8 C7         -2.2160    0.0150    1.0420 c3        1 OTS      0.202400
      9 O7         -2.8050    0.7520    2.1050 oh        1 OTS     -0.643800
     10 C8         -2.7530   -1.4320    1.1840 c3        1 OTS      0.089800
     11 N8         -4.2350   -1.4660    1.3440 n4        1 OTS     -0.832600
     12 H2         -0.5250    0.2410   -1.0730 ha        1 OTS      0.139500
     13 H3          1.9740    0.1900   -1.0260 ha        1 OTS      0.165500
     14 HO4         3.7750   -0.1670    1.9760 ho        1 OTS      0.438000
     15 H5          1.8710   -0.3010    3.2870 ha        1 OTS      0.165500
     16 H6         -0.6200   -0.2580    3.2320 ha        1 OTS      0.139500
     17 H7         -2.5820    0.4610    0.0710 h1        1 OTS      0.069700
     18 HO7        -2.1870    1.4460    2.3750 ho        1 OTS      0.462000
     19 H81        -2.2970   -1.9060    2.1000 hx        1 OTS      0.118200
     20 H82        -2.4700   -2.0250    0.2710 hx        1 OTS      0.118200
     21 HN81       -4.5540   -2.4180    1.5340 hn        1 OTS      0.465133
     22 HN82       -4.4970   -0.8500    2.1280 hn        1 OTS      0.465133
     23 H83        -4.6910   -1.1160    0.4960 hn        1 OTS      0.465133
@<TRIPOS>BOND
     1    1    2 ar  
     2    1    7 ar  
     3    1   12 1   
     4    2    3 ar  
     5    2   13 1   
     6    3    4 1   
     7    3    5 ar  
     8    4   14 1   
     9    5    6 ar  
    10    5   15 1   
    11    6    7 ar  
    12    6   16 1   
    13    7    8 1   
    14    8    9 1   
    15    8   10 1   
    16    8   17 1   
    17    9   18 1   
    18   10   11 1   
    19   10   19 1   
    20   10   20 1   
    21   11   21 1   
    22   11   22 1   
    23   11   23 1   
@<TRIPOS>SUBSTRUCTURE
     1 OTS         1 TEMP              0 ****  ****    0 ROOT
