@<TRIPOS>MOLECULE
OTS
   23    23     1     0     0
SMALL
bcc


@<TRIPOS>ATOM
      1 C2          0.0770    0.0370   -0.0390 ca        1 OTS     -0.067000
      2 C3          1.4640    0.0070    0.0630 ca        1 OTS     -0.181000
      3 C4          2.0600   -0.0980    1.3300 ca        1 OTS      0.175100
      4 O4          3.4120   -0.1360    1.5190 oh        1 OTS     -0.472100
      5 C5          1.2660   -0.1710    2.4940 ca        1 OTS     -0.181000
      6 C6         -0.1140   -0.1410    2.3710 ca        1 OTS     -0.067000
      7 C1         -0.7190   -0.0410    1.1080 ca        1 OTS     -0.232300
      8 C7         -2.2050    0.0010    0.9900 c3        1 OTS      0.203400
      9 O7         -2.8400    0.8360    1.9490 oh        1 OTS     -0.643800
     10 C8         -2.7640   -1.4240    1.2290 c3        1 OTS      0.087800
     11 N8         -4.2520   -1.4320    1.3300 n4        1 OTS     -0.832600
     12 H2         -0.3890    0.1300   -1.0330 ha        1 OTS      0.139000
     13 H3          2.0890    0.0710   -0.8410 ha        1 OTS      0.165500
     14 HO4         3.8520   -0.0580    0.6570 ho        1 OTS      0.439000
     15 H5          1.7560   -0.2460    3.4780 ha        1 OTS      0.165500
     16 H6         -0.7420   -0.1880    3.2750 ha        1 OTS      0.139000
     17 H7         -2.5150    0.3630   -0.0340 h1        1 OTS      0.070700
     18 HO7        -2.2080    1.5100    2.2370 ho        1 OTS      0.462000
     19 H81        -2.3500   -1.8260    2.1980 hx        1 OTS      0.117700
     20 H82        -2.4520   -2.0940    0.3800 hx        1 OTS      0.117700
     21 HN81       -4.5370   -0.7480    2.0470 hn        1 OTS      0.465133
     22 HN82       -4.6690   -1.1520    0.4380 hn        1 OTS      0.465133
     23 H83        -4.5890   -2.3620    1.5880 hn        1 OTS      0.465133
@<TRIPOS>BOND
     1    1    2 ar  
     2    1    7 ar  
     3    1   12 1   
     4    2    3 ar  
     5    2   13 1   
     6    3    4 1   
     7    3    5 ar  
     8    4   14 1   
     9    5    6 ar  
    10    5   15 1   
    11    6    7 ar  
    12    6   16 1   
    13    7    8 1   
    14    8    9 1   
    15    8   10 1   
    16    8   17 1   
    17    9   18 1   
    18   10   11 1   
    19   10   19 1   
    20   10   20 1   
    21   11   21 1   
    22   11   22 1   
    23   11   23 1   
@<TRIPOS>SUBSTRUCTURE
     1 OTS         1 TEMP              0 ****  ****    0 ROOT
