@<TRIPOS>MOLECULE
OTS
   23    23     1     0     0
SMALL
bcc


@<TRIPOS>ATOM
      1 C2          0.0050    0.1320   -0.1030 ca        1 OTS     -0.067000
      2 C3          1.3920    0.1030   -0.0890 ca        1 OTS     -0.181000
      3 C4          2.0630   -0.0750    1.1380 ca        1 OTS      0.174100
      4 O4          3.4280   -0.0960    1.0820 oh        1 OTS     -0.471100
      5 C5          1.3410   -0.2210    2.3350 ca        1 OTS     -0.181000
      6 C6         -0.0480   -0.1920    2.2990 ca        1 OTS     -0.067000
      7 C1         -0.7240   -0.0190    1.0850 ca        1 OTS     -0.231300
      8 C7         -2.2140    0.0250    1.0500 c3        1 OTS      0.202400
      9 O7         -2.8000    0.7420    2.1280 oh        1 OTS     -0.643800
     10 C8         -2.7570   -1.4220    1.1620 c3        1 OTS      0.089800
     11 N8         -4.2390   -1.4530    1.3210 nz        1 OTS     -0.832600
     12 H2         -0.5210    0.2840   -1.0590 ha        1 OTS      0.139500
     13 H3          1.9780    0.2220   -1.0130 ha        1 OTS      0.165500
     14 HO4         3.7760   -0.2010    1.9820 ho        1 OTS      0.438000
     15 H5          1.8710   -0.3520    3.2900 ha        1 OTS      0.165500
     16 H6         -0.6200   -0.2970    3.2350 ha        1 OTS      0.139500
     17 H7         -2.5770    0.4930    0.0880 h1        1 OTS      0.069700
     18 HO7        -2.1790    1.4280    2.4120 ho        1 OTS      0.462000
     19 H81        -2.3030   -1.9180    2.0680 hx        1 OTS      0.118200
     20 H82        -2.4760   -1.9980    0.2360 hx        1 OTS      0.118200
     21 HN81       -4.5620   -2.4090    1.4910 hn        1 OTS      0.464800
     22 HN82       -4.6930   -1.0840    0.4800 hn        1 OTS      0.464800
     23 H83        -4.4990   -0.8530    2.1180 hn        1 OTS      0.464800
@<TRIPOS>BOND
     1    1    2 ar  
     2    1    7 ar  
     3    1   12 1   
     4    2    3 ar  
     5    2   13 1   
     6    3    4 1   
     7    3    5 ar  
     8    4   14 1   
     9    5    6 ar  
    10    5   15 1   
    11    6    7 ar  
    12    6   16 1   
    13    7    8 1   
    14    8    9 1   
    15    8   10 1   
    16    8   17 1   
    17    9   18 1   
    18   10   11 1   
    19   10   19 1   
    20   10   20 1   
    21   11   21 1   
    22   11   22 1   
    23   11   23 1   
@<TRIPOS>SUBSTRUCTURE
     1 OTS         1 TEMP              0 ****  ****    0 ROOT
