@<TRIPOS>MOLECULE
OTS
   22    19     1     0     0
SMALL
bcc


@<TRIPOS>ATOM
      1 C2          0.7700   -0.3840   -1.1130 c1        1 OTS     -0.077000
      2 C3          2.1570   -0.4040   -1.0840 c1        1 OTS     -0.215000
      3 C4          2.8350   -0.3830    0.1510 c1        1 OTS      0.084000
      4 O4          4.2410   -0.5040    0.1870 o         1 OTS     -0.250000
      5 C5          2.1070   -0.3420    1.3480 c2        1 OTS     -0.158000
      6 C6          0.7240   -0.3220    1.3160 c1        1 OTS     -0.084000
      7 C1          0.0470   -0.3430    0.0810 c1        1 OTS     -0.160000
      8 C7         -1.4590   -0.3570    0.0490 c3        1 OTS      0.066000
      9 O7         -1.8970   -1.2660   -0.9360 oh        1 OTS     -0.335000
     10 C8         -1.9650    1.0010   -0.2780 c3        1 OTS     -0.070000
     11 N8         -3.3370    1.1000    0.1220 n3        1 OTS     -0.347000
     12 H2          0.2960   -0.3980   -1.9720 ha        1 OTS      0.146000
     13 H3          2.6650   -0.4330   -1.9230 ha        1 OTS      0.135000
     14 HO4         4.6210    0.3220    0.0770 ho        1 OTS      0.219000
     15 H5          2.5830   -0.3270    2.2210 ha        1 OTS      0.152000
     16 H6          0.2390   -0.2940    2.1130 ha        1 OTS      0.139000
     17 H7         -1.8170   -0.6430    0.9630 h1        1 OTS      0.094000
     18 HO7        -2.2370   -1.9670   -0.5520 ho        1 OTS      0.206000
     19 H81        -1.4230    1.6890    0.2080 h1        1 OTS      0.078000
     20 H82        -1.8950    1.1510   -1.2370 h1        1 OTS      0.078000
     21 HN81       -3.4040    1.6450    0.8530 hn        1 OTS      0.149500
     22 HN82       -3.8530    1.4590   -0.5940 hn        1 OTS      0.149500
@<TRIPOS>BOND
     1    1    7 1   
     2    1   12 1   
     3    2    3 1   
     4    2   13 1   
     5    3    5 1   
     6    4   14 1   
     7    5    6 1   
     8    5   15 1   
     9    6   16 1   
    10    7    8 1   
    11    8    9 1   
    12    8   10 1   
    13    8   17 1   
    14    9   18 1   
    15   10   11 1   
    16   10   19 1   
    17   10   20 1   
    18   11   21 1   
    19   11   22 1   
@<TRIPOS>SUBSTRUCTURE
     1 OTS         1 TEMP              0 ****  ****    0 ROOT
