@<TRIPOS>MOLECULE
OTS
   22    22     1     0     0
SMALL
bcc


@<TRIPOS>ATOM
      1 C2          1.1720   -0.3420   -0.4150 ca        1 OTS     -0.085500
      2 C3          1.2790   -0.2140   -1.7940 ca        1 OTS     -0.183500
      3 C4          0.1140   -0.0040   -2.5510 ca        1 OTS      0.127100
      4 O4          0.2800    0.1200   -3.9110 oh        1 OTS     -0.496100
      5 C5         -1.1400    0.0660   -1.9310 ca        1 OTS     -0.183500
      6 C6         -1.2240   -0.0650   -0.5460 ca        1 OTS     -0.085500
      7 C1         -0.0740   -0.2580    0.2240 ca        1 OTS     -0.153300
      8 C7         -0.1420   -0.4170    1.7130 c3        1 OTS      0.179400
      9 O7         -1.4690   -0.4340    2.2140 oh        1 OTS     -0.593800
     10 C8          0.6680    0.6990    2.4110 c3        1 OTS      0.131800
     11 N8          0.8070    0.4840    3.8300 n3        1 OTS     -0.916800
     12 H2          2.0810   -0.5190    0.1820 ha        1 OTS      0.138500
     13 H3          2.2520   -0.2760   -2.3010 ha        1 OTS      0.143500
     14 HO4        -0.5950    0.2400   -4.3090 ho        1 OTS      0.420000
     15 H5         -2.0490    0.2170   -2.5290 ha        1 OTS      0.143500
     16 H6         -2.2130   -0.0330   -0.0630 ha        1 OTS      0.138500
     17 H7          0.2610   -1.4340    1.9980 h1        1 OTS      0.099700
     18 HO7        -1.8600    0.4290    2.0310 ho        1 OTS      0.396000
     19 H81         0.1720    1.6850    2.1650 h1        1 OTS      0.033200
     20 H82         1.7040    0.7250    1.9700 h1        1 OTS      0.033200
     21 HN81        1.0360    1.3390    4.2940 hn        1 OTS      0.356300
     22 HN82       -0.0360    0.1070    4.2200 hn        1 OTS      0.356300
@<TRIPOS>BOND
     1    1    2 ar  
     2    1    7 ar  
     3    1   12 1   
     4    2    3 ar  
     5    2   13 1   
     6    3    4 1   
     7    3    5 ar  
     8    4   14 1   
     9    5    6 ar  
    10    5   15 1   
    11    6    7 ar  
    12    6   16 1   
    13    7    8 1   
    14    8    9 1   
    15    8   10 1   
    16    8   17 1   
    17    9   18 1   
    18   10   11 1   
    19   10   19 1   
    20   10   20 1   
    21   11   21 1   
    22   11   22 1   
@<TRIPOS>SUBSTRUCTURE
     1 OTS         1 TEMP              0 ****  ****    0 ROOT
