@<TRIPOS>MOLECULE
OTT
   19    18     1     0     0
SMALL
bcc


@<TRIPOS>ATOM
      1 C1          3.3370    0.0320    0.0110 c         1 OTT      0.887800
      2 C2          1.9500   -0.5660    0.1060 ce        1 OTT     -0.148200
      3 C3          0.8250    0.1530   -0.0260 cf        1 OTT     -0.211000
      4 C4         -0.4970   -0.4150    0.0640 cf        1 OTT     -0.053000
      5 C5         -1.6320    0.3010   -0.0680 ce        1 OTT     -0.218000
      6 C6         -2.9470   -0.2860    0.0260 ce        1 OTT     -0.091000
      7 C7         -4.0850    0.4130   -0.1030 c2        1 OTT     -0.223200
      8 C8         -5.4300   -0.1830   -0.0080 c3        1 OTT     -0.047900
      9 O11         3.4600    1.2710   -0.2030 o         1 OTT     -0.831800
     10 O12         4.3110   -0.7630    0.1550 o         1 OTT     -0.831800
     11 H2          1.9280   -1.6510    0.2940 ha        1 OTT      0.097000
     12 H3          0.9000    1.2390   -0.2140 ha        1 OTT      0.144000
     13 H4         -0.5500   -1.5030    0.2520 ha        1 OTT      0.101000
     14 H5         -1.5870    1.3870   -0.2560 ha        1 OTT      0.122000
     15 H6         -2.9820   -1.3750    0.2140 ha        1 OTT      0.107000
     16 H7         -4.0620    1.4980   -0.2910 ha        1 OTT      0.115000
     17 H8         -5.9950   -0.0150   -0.9600 hc        1 OTT      0.027033
     18 H8A        -5.3860   -1.2830    0.1830 hc        1 OTT      0.027033
     19 H8B        -6.0070    0.2940    0.8240 hc        1 OTT      0.027033
@<TRIPOS>BOND
     1    1    2 1   
     2    1    9 1   
     3    1   10 1   
     4    2    3 2   
     5    2   11 1   
     6    3    4 1   
     7    3   12 1   
     8    4    5 2   
     9    4   13 1   
    10    5    6 1   
    11    5   14 1   
    12    6    7 2   
    13    6   15 1   
    14    7    8 1   
    15    7   16 1   
    16    8   17 1   
    17    8   18 1   
    18    8   19 1   
@<TRIPOS>SUBSTRUCTURE
     1 OTT         1 TEMP              0 ****  ****    0 ROOT
