@<TRIPOS>MOLECULE
OTT
   19    14     1     0     0
SMALL
bcc


@<TRIPOS>ATOM
      1 C1         -2.2010    0.7660   -2.6950 c1        1 OTT      0.340000
      2 C2         -0.6880    0.7660   -2.6950 c1        1 OTT     -0.153333
      3 C3         -0.0140    0.7660   -1.5280 c1        1 OTT     -0.153333
      4 C4         -0.7710    0.7660   -0.2180 c1        1 OTT     -0.153333
      5 C5         -0.4270   -0.0960    0.7590 c1        1 OTT     -0.153333
      6 C6          0.7160   -1.0650    0.5450 c1        1 OTT     -0.153333
      7 C7          1.6240   -1.2610    1.5210 c1        1 OTT     -0.153333
      8 C8          1.5020   -0.5130    2.8300 c2        1 OTT     -0.166000
      9 O11        -2.8310    1.8540   -2.7640 o         1 OTT     -0.567000
     10 O12        -2.8310   -0.3220   -2.6270 o         1 OTT     -0.567000
     11 H2         -0.2000    0.7660   -3.5400 ha        1 OTT      0.113500
     12 H3          0.9620    0.7660   -1.5280 ha        1 OTT      0.113500
     13 H4         -1.5080    1.3910   -0.0800 ha        1 OTT      0.113500
     14 H5         -0.9150   -0.0960    1.6040 ha        1 OTT      0.113500
     15 H6          0.7950   -1.5470   -0.3000 ha        1 OTT      0.113500
     16 H7          2.3610   -1.8860    1.3830 ha        1 OTT      0.113500
     17 H8          0.6660   -0.7610    3.2690 ha        1 OTT      0.066333
     18 H8A         2.2540   -0.7430    3.4080 ha        1 OTT      0.066333
     19 H8B         1.5060    0.4480    2.6570 ha        1 OTT      0.066333
@<TRIPOS>BOND
     1    1    9 1   
     2    1   10 1   
     3    2    3 1   
     4    2   11 1   
     5    3   12 1   
     6    4    5 1   
     7    4   13 1   
     8    5   14 1   
     9    6    7 1   
    10    6   15 1   
    11    7   16 1   
    12    8   17 1   
    13    8   18 1   
    14    8   19 1   
@<TRIPOS>SUBSTRUCTURE
     1 OTT         1 TEMP              0 ****  ****    0 ROOT
