@<TRIPOS>MOLECULE
OTT
   19    18     1     0     0
SMALL
bcc


@<TRIPOS>ATOM
      1 C1          0.4670   -1.0890    0.3430 c         1 OTT      0.887800
      2 C2          1.2670    0.1680    0.6080 ce        1 OTT     -0.149200
      3 C3          2.4960    0.1600    1.1480 cf        1 OTT     -0.211000
      4 C4          3.2560    1.3590    1.3990 cf        1 OTT     -0.055000
      5 C5          4.4890    1.4370    1.9350 ce        1 OTT     -0.213000
      6 C6          5.2890    0.3150    2.3640 ce        1 OTT     -0.084000
      7 C7          6.5160    0.4470    2.8940 c2        1 OTT     -0.227200
      8 C8          7.3420   -0.6920    3.3360 c3        1 OTT     -0.047900
      9 O11         0.9670   -2.2110    0.6410 o         1 OTT     -0.831800
     10 O12        -0.6790   -0.9380   -0.1710 o         1 OTT     -0.831800
     11 H2          0.7620    1.1040    0.3210 ha        1 OTT      0.097000
     12 H3          2.9500   -0.8110    1.4150 ha        1 OTT      0.144000
     13 H4          2.7530    2.3030    1.1130 ha        1 OTT      0.100000
     14 H5          4.9520    2.4300    2.0700 ha        1 OTT      0.099000
     15 H6          4.8410   -0.6870    2.2370 ha        1 OTT      0.134000
     16 H7          6.9740    1.4400    3.0260 ha        1 OTT      0.105000
     17 H8          7.5810   -0.5970    4.4250 hc        1 OTT      0.028367
     18 H8A         6.8230   -1.6690    3.1750 hc        1 OTT      0.028367
     19 H8B         8.3080   -0.7120    2.7710 hc        1 OTT      0.028367
@<TRIPOS>BOND
     1    1    2 1   
     2    1    9 1   
     3    1   10 1   
     4    2    3 2   
     5    2   11 1   
     6    3    4 1   
     7    3   12 1   
     8    4    5 2   
     9    4   13 1   
    10    5    6 1   
    11    5   14 1   
    12    6    7 2   
    13    6   15 1   
    14    7    8 1   
    15    7   16 1   
    16    8   17 1   
    17    8   18 1   
    18    8   19 1   
@<TRIPOS>SUBSTRUCTURE
     1 OTT         1 TEMP              0 ****  ****    0 ROOT
