@<TRIPOS>MOLECULE
OTU
   45    45     1     0     0
SMALL
bcc


@<TRIPOS>ATOM
      1 C1          0.6050    1.1960   -0.4030 c3        1 OTU      0.329900
      2 O1          0.1510   -0.1020    0.1220 os        1 OTU     -0.419600
      3 C2          2.0350    1.1930   -0.4700 c3        1 OTU      0.130100
      4 O2          2.4700   -0.0490   -1.2130 oh        1 OTU     -0.605800
      5 C3          2.6830    1.2060    0.7980 c3        1 OTU      0.109100
      6 O3          4.1290    1.3870    0.5810 oh        1 OTU     -0.612800
      7 C4          2.1980    2.2920    1.7040 c3        1 OTU      0.093100
      8 O4          2.8180    2.1490    2.9350 oh        1 OTU     -0.609800
      9 C5          0.6220    2.2930    1.9290 c3        1 OTU      0.065100
     10 O5          0.0550    2.2560    0.4390 os        1 OTU     -0.430600
     11 C6          0.2260    3.3900    2.5500 c3        1 OTU      0.128400
     12 O6          0.1680    3.1500    3.9830 oh        1 OTU     -0.606800
     13 OAA        -2.5510   -0.1430    1.0460 o         1 OTU     -0.518100
     14 OAB        -4.4420    0.8120   -0.5660 oh        1 OTU     -0.584800
     15 OAC        -0.7070   -5.0390   -2.8960 oh        1 OTU     -0.617800
     16 OAE        -1.7490   -2.4350   -2.6970 oh        1 OTU     -0.620800
     17 OAG         0.0880   -2.5270    0.3910 oh        1 OTU     -0.587800
     18 CAJ        -3.3360    0.3280   -1.2210 c3        1 OTU      0.026400
     19 CAK        -0.9030   -4.3910   -1.6470 c3        1 OTU      0.096400
     20 CAO        -2.2620   -0.1200   -0.1730 c         1 OTU      0.532100
     21 CAP        -0.7770   -2.8790   -1.8290 c3        1 OTU      0.107100
     22 CAS        -0.9530   -2.1730   -0.4500 c3        1 OTU      0.148100
     23 CAW        -0.9480   -0.6970   -0.6450 c3        1 OTU      0.023100
     24 H1          0.2580    1.3030   -1.2990 h2        1 OTU      0.094700
     25 H2          2.3280    1.9850   -0.9810 h1        1 OTU      0.068700
     26 HO2         3.0690    0.1700   -1.8270 ho        1 OTU      0.434000
     27 H3          2.5330    0.3230    1.2450 h1        1 OTU      0.083700
     28 HO3         4.5600    0.8170    1.0500 ho        1 OTU      0.432000
     29 H4          2.4610    3.1620    1.3180 h1        1 OTU      0.054700
     30 HO4         3.4860    2.7240    2.9980 ho        1 OTU      0.433000
     31 H5          0.3460    1.4930    2.4240 h1        1 OTU      0.095700
     32 H6          0.8740    4.1350    2.3600 h1        1 OTU      0.062700
     33 H6A        -0.6800    3.6480    2.2190 h1        1 OTU      0.062700
     34 HO6        -0.1640    3.8810    4.3970 ho        1 OTU      0.414000
     35 HOAC       -0.8040   -5.8890   -2.7960 ho        1 OTU      0.413000
     36 HOAE       -1.4660   -2.5370   -3.5390 ho        1 OTU      0.431000
     37 HOAG       -0.2190   -3.0260    1.0410 ho        1 OTU      0.436000
     38 HAK        -1.8220   -4.6110   -1.2910 h1        1 OTU      0.049200
     39 HAKA       -0.2370   -4.6950   -1.0230 h1        1 OTU      0.049200
     40 HAP         0.1110   -2.6670   -2.1970 h1        1 OTU      0.054700
     41 HAS        -1.8030   -2.4470   -0.0510 h1        1 OTU      0.090700
     42 HAW        -0.8270   -0.4980   -1.5820 h1        1 OTU      0.091700
     43 H20        -5.0790    1.0180   -1.1640 ho        1 OTU      0.415000
     44 HAJ        -3.5910   -0.4310   -1.7670 h1        1 OTU      0.080200
     45 H22        -2.9550    1.0430   -1.8030 h1        1 OTU      0.080200
@<TRIPOS>BOND
     1    1    2 1   
     2    1    3 1   
     3    1   10 1   
     4    1   24 1   
     5    2   23 1   
     6    3    4 1   
     7    3    5 1   
     8    3   25 1   
     9    4   26 1   
    10    5    6 1   
    11    5    7 1   
    12    5   27 1   
    13    6   28 1   
    14    7    8 1   
    15    7    9 1   
    16    7   29 1   
    17    8   30 1   
    18    9   10 1   
    19    9   11 1   
    20    9   31 1   
    21   11   12 1   
    22   11   32 1   
    23   11   33 1   
    24   12   34 1   
    25   13   20 2   
    26   14   18 1   
    27   14   43 1   
    28   15   19 1   
    29   15   35 1   
    30   16   21 1   
    31   16   36 1   
    32   17   22 1   
    33   17   37 1   
    34   18   20 1   
    35   18   44 1   
    36   18   45 1   
    37   19   21 1   
    38   19   38 1   
    39   19   39 1   
    40   20   23 1   
    41   21   22 1   
    42   21   40 1   
    43   22   23 1   
    44   22   41 1   
    45   23   42 1   
@<TRIPOS>SUBSTRUCTURE
     1 OTU         1 TEMP              0 ****  ****    0 ROOT
