@<TRIPOS>MOLECULE
OTU
   45    45     1     0     0
SMALL
bcc


@<TRIPOS>ATOM
      1 C1          0.2350    0.9120    0.7450 c3        1 OTU      0.295900
      2 O1         -0.3090    0.1650   -0.3360 os        1 OTU     -0.457600
      3 C2          0.7990    2.2130    0.1440 c3        1 OTU      0.094100
      4 O2         -0.1740    2.8810   -0.6310 oh        1 OTU     -0.590800
      5 C3          2.0560    1.9350   -0.6930 c3        1 OTU      0.073100
      6 O3          2.7320    3.1400   -1.0090 oh        1 OTU     -0.606800
      7 C4          3.0460    1.0720    0.1070 c3        1 OTU      0.127100
      8 O4          4.1590    0.7100   -0.6890 oh        1 OTU     -0.594800
      9 C5          2.3340   -0.2230    0.5270 c3        1 OTU      0.136100
     10 O5          1.2090    0.1000    1.3550 os        1 OTU     -0.426600
     11 C6          3.2440   -1.1110    1.3750 c3        1 OTU      0.136400
     12 O6          2.7330   -2.4320    1.2780 oh        1 OTU     -0.610800
     13 OAB        -0.2210   -4.5560   -0.6920 oh        1 OTU     -0.586800
     14 OAC        -4.9120    1.9970    0.8310 oh        1 OTU     -0.616800
     15 OAE        -2.7630    0.4810    1.7880 oh        1 OTU     -0.618800
     16 OAG        -2.7950   -0.5770   -1.6760 oh        1 OTU     -0.591800
     17 CAK        -4.5500    0.7990    0.1610 c3        1 OTU      0.097400
     18 CAO        -0.5770   -2.1550   -0.7190 c         1 OTU      0.532100
     19 CAP        -3.0510    0.6100    0.4030 c3        1 OTU      0.114100
     20 CAS        -2.5710   -0.6830   -0.2840 c3        1 OTU      0.135100
     21 CAW        -1.0980   -0.9600    0.0640 c3        1 OTU      0.023100
     22 H1         -0.5350    1.1100    1.5460 h2        1 OTU      0.117700
     23 H2          1.0420    2.9280    0.9810 h1        1 OTU      0.103700
     24 HO2        -0.4980    2.2560   -1.2950 ho        1 OTU      0.419000
     25 H3          1.7700    1.4040   -1.6450 h1        1 OTU      0.067700
     26 HO3         2.0690    3.7430   -1.3720 ho        1 OTU      0.424000
     27 H4          3.3970    1.6420    1.0120 h1        1 OTU      0.058700
     28 HO4         4.4960    1.5280   -1.0780 ho        1 OTU      0.427000
     29 H5          1.9780   -0.7840   -0.3820 h1        1 OTU      0.085700
     30 H6          4.2860   -1.0660    0.9580 h1        1 OTU      0.050700
     31 H6A         3.2370   -0.7730    2.4450 h1        1 OTU      0.050700
     32 HO6         3.3210   -2.9930    1.7960 ho        1 OTU      0.407000
     33 HOAC       -5.8390    2.1620    0.6260 ho        1 OTU      0.412000
     34 HOAE       -3.2620    1.1740    2.2410 ho        1 OTU      0.430000
     35 HOAG       -1.9900   -0.2260   -2.0810 ho        1 OTU      0.426000
     36 HAK        -5.1270   -0.0640    0.5890 h1        1 OTU      0.047200
     37 HAKA       -4.7460    0.8780   -0.9400 h1        1 OTU      0.047200
     38 HAP        -2.4840    1.4930   -0.0080 h1        1 OTU      0.060700
     39 HAS        -3.2010   -1.5520    0.0570 h1        1 OTU      0.085700
     40 HAW        -1.0080   -1.1410    1.1720 h1        1 OTU      0.105700
     41 H20         0.3240   -4.3500   -1.4650 ho        1 OTU      0.418000
     42 HAJ        -1.1290   -3.5840    0.8280 h1        1 OTU      0.086700
     43 H22         0.6710   -3.2270    0.6550 h1        1 OTU      0.086700
     44 OAA        -0.3640   -2.1040   -1.9320 o         1 OTU     -0.510100
     45 CAJ        -0.2970   -3.3900    0.0980 c3        1 OTU      0.027400
@<TRIPOS>BOND
     1    1    2 1   
     2    1    3 1   
     3    1   10 1   
     4    1   22 1   
     5    2   21 1   
     6    3    4 1   
     7    3    5 1   
     8    3   23 1   
     9    4   24 1   
    10    5    6 1   
    11    5    7 1   
    12    5   25 1   
    13    6   26 1   
    14    7    8 1   
    15    7    9 1   
    16    7   27 1   
    17    8   28 1   
    18    9   10 1   
    19    9   11 1   
    20    9   29 1   
    21   11   12 1   
    22   11   30 1   
    23   11   31 1   
    24   12   32 1   
    25   13   41 1   
    26   13   45 1   
    27   14   17 1   
    28   14   33 1   
    29   15   19 1   
    30   15   34 1   
    31   16   20 1   
    32   16   35 1   
    33   17   19 1   
    34   17   36 1   
    35   17   37 1   
    36   18   21 1   
    37   18   44 2   
    38   18   45 1   
    39   19   20 1   
    40   19   38 1   
    41   20   21 1   
    42   20   39 1   
    43   21   40 1   
    44   42   45 1   
    45   43   45 1   
@<TRIPOS>SUBSTRUCTURE
     1 OTU         1 TEMP              0 ****  ****    0 ROOT
