@<TRIPOS>MOLECULE
OTW
   24    25     1     0     0
SMALL
bcc


@<TRIPOS>ATOM
      1 C1          0.0090    0.0600    0.0160 c3        1 OTW     -0.061800
      2 C2          1.4910    0.0150    0.0170 ca        1 OTW     -0.015300
      3 C3          2.1870   -0.0130    1.1990 ca        1 OTW     -0.268300
      4 C4          3.6360   -0.0590    1.1760 ca        1 OTW      0.623200
      5 N5          4.3370   -0.0490    0.0270 nb        1 OTW     -0.724000
      6 C6          3.6360   -0.0320   -1.1560 ca        1 OTW      0.406600
      7 C7          2.2120    0.0010   -1.2220 ca        1 OTW     -0.135300
      8 C8          1.5600    0.0190   -2.4750 ca        1 OTW     -0.179000
      9 C9          2.2850    0.0180   -3.6640 ca        1 OTW      0.120600
     10 C10         3.7160   -0.0190   -3.5950 ca        1 OTW     -0.154000
     11 C11         4.3650   -0.0410   -2.3920 ca        1 OTW     -0.149300
     12 N12         1.6510    0.1320   -4.9090 nv        1 OTW     -0.812200
     13 N13         4.3090   -0.1920    2.4060 nv        1 OTW     -0.919500
     14 H11C       -0.3970    0.0750    1.0570 hc        1 OTW      0.049700
     15 H12C       -0.4040   -0.8370   -0.5100 hc        1 OTW      0.049700
     16 H13C       -0.3490    0.9770   -0.5160 hc        1 OTW      0.049700
     17 H3          1.6620   -0.0130    2.1640 ha        1 OTW      0.141000
     18 H131        3.8730    0.3130    3.1440 hn        1 OTW      0.396800
     19 H132        5.2970   -0.0610    2.3680 hn        1 OTW      0.396800
     20 H11         5.4660   -0.0680   -2.3570 ha        1 OTW      0.149000
     21 H8          0.4590    0.0430   -2.4940 ha        1 OTW      0.132000
     22 H10         4.2990   -0.0210   -4.5290 ha        1 OTW      0.134000
     23 H121        0.7010   -0.1700   -4.9090 hn        1 OTW      0.385300
     24 H122        2.1760   -0.2490   -5.6650 hn        1 OTW      0.385300
@<TRIPOS>BOND
     1    1    2 1   
     2    1   14 1   
     3    1   15 1   
     4    1   16 1   
     5    2    3 ar  
     6    2    7 ar  
     7    3    4 ar  
     8    3   17 1   
     9    4    5 ar  
    10    4   13 1   
    11    5    6 ar  
    12    6    7 ar  
    13    6   11 ar  
    14    7    8 ar  
    15    8    9 ar  
    16    8   21 1   
    17    9   10 ar  
    18    9   12 1   
    19   10   11 ar  
    20   10   22 1   
    21   11   20 1   
    22   12   23 1   
    23   12   24 1   
    24   13   18 1   
    25   13   19 1   
@<TRIPOS>SUBSTRUCTURE
     1 OTW         1 TEMP              0 ****  ****    0 ROOT
