@<TRIPOS>MOLECULE
OTW
   24    25     1     0     0
SMALL
bcc


@<TRIPOS>ATOM
      1 C1          0.0100   -0.1480    0.0100 c3        1 OTW     -0.061800
      2 C2          1.4900   -0.0860    0.0140 ca        1 OTW     -0.015300
      3 C3          2.1840   -0.0720    1.1980 ca        1 OTW     -0.268300
      4 C4          3.6330   -0.0180    1.1780 ca        1 OTW      0.623200
      5 N5          4.3340    0.0450    0.0320 nb        1 OTW     -0.725000
      6 C6          3.6370    0.0180   -1.1540 ca        1 OTW      0.406600
      7 C7          2.2130   -0.0420   -1.2230 ca        1 OTW     -0.135300
      8 C8          1.5640   -0.0530   -2.4780 ca        1 OTW     -0.180000
      9 C9          2.2910   -0.0200   -3.6650 ca        1 OTW      0.121600
     10 C10         3.7210    0.0440   -3.5920 ca        1 OTW     -0.154000
     11 C11         4.3670    0.0590   -2.3870 ca        1 OTW     -0.149300
     12 N12         1.6620   -0.1280   -4.9120 nh        1 OTW     -0.813200
     13 N13         4.3110   -0.1080    2.4090 nh        1 OTW     -0.920500
     14 H11C       -0.3980   -0.1760    1.0500 hc        1 OTW      0.049700
     15 H12C       -0.4140    0.7470   -0.5120 hc        1 OTW      0.049700
     16 H13C       -0.3360   -1.0670   -0.5280 hc        1 OTW      0.049700
     17 H3          1.6580   -0.1160    2.1620 ha        1 OTW      0.141000
     18 H131        5.2880    0.0900    2.3760 hn        1 OTW      0.397300
     19 H132        3.8390    0.3610    3.1500 hn        1 OTW      0.397300
     20 H11         5.4680    0.1040   -2.3490 ha        1 OTW      0.149000
     21 H8          0.4640   -0.1010   -2.4990 ha        1 OTW      0.132000
     22 H10         4.3060    0.0700   -4.5250 ha        1 OTW      0.134000
     23 H121        2.1810    0.2740   -5.6620 hn        1 OTW      0.385300
     24 H122        0.7060    0.1530   -4.9100 hn        1 OTW      0.385300
@<TRIPOS>BOND
     1    1    2 1   
     2    1   14 1   
     3    1   15 1   
     4    1   16 1   
     5    2    3 ar  
     6    2    7 ar  
     7    3    4 ar  
     8    3   17 1   
     9    4    5 ar  
    10    4   13 1   
    11    5    6 ar  
    12    6    7 ar  
    13    6   11 ar  
    14    7    8 ar  
    15    8    9 ar  
    16    8   21 1   
    17    9   10 ar  
    18    9   12 1   
    19   10   11 ar  
    20   10   22 1   
    21   11   20 1   
    22   12   23 1   
    23   12   24 1   
    24   13   18 1   
    25   13   19 1   
@<TRIPOS>SUBSTRUCTURE
     1 OTW         1 TEMP              0 ****  ****    0 ROOT
