@<TRIPOS>MOLECULE
OTY
   24    24     1     0     0
SMALL
bcc


@<TRIPOS>ATOM
      1 OD1         0.8680   -2.1470   -0.2810 oh        1 OTY     -0.541100
      2 N          -1.8230   -1.5430    0.6690 n3        1 OTY     -0.919800
      3 CA         -1.8020   -0.1180    0.3630 c3        1 OTY      0.013500
      4 C          -3.2150    0.4830    0.0380 c         1 OTY      0.894600
      5 O          -4.2060   -0.3000    0.0500 o         1 OTY     -0.835300
      6 CB         -0.8610    0.2000   -0.8080 c3        1 OTY     -0.027100
      7 CG          0.5730    0.2810   -0.4160 ca        1 OTY     -0.153300
      8 CD1         1.3570   -0.8710   -0.1890 ca        1 OTY      0.183100
      9 CD2         1.1860    1.5320   -0.2950 ca        1 OTY     -0.071000
     10 CE1         2.7250   -0.7680    0.1160 ca        1 OTY     -0.264000
     11 CE2         2.5380    1.6610    0.0140 ca        1 OTY     -0.205000
     12 CZ          3.3000    0.5030    0.2090 ca        1 OTY      0.125100
     13 OH          4.6400    0.6780    0.5010 oh        1 OTY     -0.515100
     14 H1         -0.1060   -2.1100   -0.1590 ho        1 OTY      0.476000
     15 H2         -2.0580   -1.6620    1.6360 hn        1 OTY      0.345300
     16 H3         -2.5660   -1.9660    0.1350 hn        1 OTY      0.345300
     17 H5         -1.4250    0.4410    1.2680 h1        1 OTY      0.044700
     18 H6         -0.9810   -0.5620   -1.6230 hc        1 OTY      0.061200
     19 H7         -1.1920    1.1930   -1.2240 hc        1 OTY      0.061200
     20 H8          0.5790    2.4390   -0.4500 ha        1 OTY      0.143000
     21 H9          3.3160   -1.6780    0.2770 ha        1 OTY      0.133000
     22 H10         3.0090    2.6480    0.1060 ha        1 OTY      0.134000
     23 H11         5.0250   -0.2000    0.6270 ho        1 OTY      0.407000
     24 O1         -3.2730    1.7190   -0.2000 o         1 OTY     -0.835300
@<TRIPOS>BOND
     1    1    8 1   
     2    1   14 1   
     3    2    3 1   
     4    2   15 1   
     5    2   16 1   
     6    3    4 1   
     7    3    6 1   
     8    3   17 1   
     9    4    5 1   
    10    4   24 1   
    11    6    7 1   
    12    6   18 1   
    13    6   19 1   
    14    7    8 ar  
    15    7    9 ar  
    16    8   10 ar  
    17    9   11 ar  
    18    9   20 1   
    19   10   12 ar  
    20   10   21 1   
    21   11   12 ar  
    22   11   22 1   
    23   12   13 1   
    24   13   23 1   
@<TRIPOS>SUBSTRUCTURE
     1 OTY         1 TEMP              0 ****  ****    0 ROOT
