@<TRIPOS>MOLECULE
OUT
    6     5     1     0     0
SMALL
bcc


@<TRIPOS>ATOM
      1 N          -0.6070   -0.2480    1.2390 n         1 OUT     -0.678000
      2 C           0.0470   -0.0380   -0.0340 c         1 OUT      0.965600
      3 O1          1.3140    0.0410   -0.0390 o         1 OUT     -0.859300
      4 O2         -0.6870    0.0450   -1.0670 o         1 OUT     -0.859300
      5 HN1        -0.0750    0.1000    2.0030 hn        1 OUT      0.215500
      6 HN2        -1.5380    0.1030    1.2520 hn        1 OUT      0.215500
@<TRIPOS>BOND
     1    1    2 1   
     2    1    5 1   
     3    1    6 1   
     4    2    3 1   
     5    2    4 1   
@<TRIPOS>SUBSTRUCTURE
     1 OUT         1 TEMP              0 ****  ****    0 ROOT
