@<TRIPOS>MOLECULE
OUT
    6     5     1     0     0
SMALL
bcc


@<TRIPOS>ATOM
      1 N          -0.7670    0.0000   -0.0000 n         1 OUT     -0.777000
      2 C           0.6520    0.0000   -0.0000 c         1 OUT      1.009600
      3 O1          1.2810    0.0000    1.0900 o         1 OUT     -0.870300
      4 O2          1.2810   -0.0000   -1.0900 o         1 OUT     -0.870300
      5 HN1        -1.2230   -0.0000   -0.7900 hn        1 OUT      0.253500
      6 HN2        -1.2230    0.0000    0.7900 hn        1 OUT      0.253500
@<TRIPOS>BOND
     1    1    2 1   
     2    1    5 1   
     3    1    6 1   
     4    2    3 1   
     5    2    4 1   
@<TRIPOS>SUBSTRUCTURE
     1 OUT         1 TEMP              0 ****  ****    0 ROOT
