@<TRIPOS>MOLECULE
OVA
   47    47     1     0     0
SMALL
bcc


@<TRIPOS>ATOM
      1 C5         -2.0020    0.4970   -3.4350 c3        1 OVA     -0.209000
      2 C4         -0.4060    0.6470   -3.3060 c2        1 OVA      0.217000
      3 C3          0.0960    0.8610   -1.8540 c3        1 OVA     -0.039000
      4 C2         -0.4880   -0.2810   -0.9240 c3        1 OVA      0.110000
      5 C1         -2.0350   -0.4500   -1.0400 c3        1 OVA      0.067000
      6 C6         -2.5060   -0.6250   -2.4470 c3        1 OVA     -0.186000
      7 O11        -2.6610    0.7000   -0.4910 oh        1 OVA     -0.304000
      8 C11        -2.4600   -1.6800   -0.2240 c3        1 OVA     -0.242000
      9 C21        -0.2050    0.0020    0.2820 cx        1 OVA      0.017000
     10 C22         0.5010   -0.0190    0.4580 cx        1 OVA     -0.019000
     11 C23         0.7100   -0.3010    1.3860 c3        1 OVA     -0.128000
     12 C24         2.2300   -0.1600    1.6380 c2        1 OVA     -0.170000
     13 C25         2.7560   -0.4700    2.8750 c1        1 OVA     -0.112000
     14 C2A        -1.1930   -0.3970    1.4140 c3        1 OVA     -0.199000
     15 O2A         0.1610    0.6340    0.3880 os        1 OVA     -0.271000
     16 C2B         1.8370   -0.9540    3.9990 c2        1 OVA     -0.183000
     17 C2C         4.2620   -0.3290    3.1240 c3        1 OVA     -0.179000
     18 O31        -0.2000    2.1620   -1.3640 os        1 OVA     -0.248000
     19 C31         0.4880    3.2070   -2.0480 c3        1 OVA     -0.085000
     20 O41         0.2450    1.0740   -4.2460 o         1 OVA     -0.275000
     21 O1          0.1350   -1.5140   -1.2650 oh        1 OVA     -0.323000
     22 H51        -2.4960    1.3390   -3.3140 hc        1 OVA      0.124000
     23 H52        -2.2370    0.2760   -4.3650 hc        1 OVA      0.124000
     24 H3          1.0790    0.8670   -1.8230 h1        1 OVA      0.136000
     25 H61        -3.4910   -0.6260   -2.4500 hc        1 OVA      0.094000
     26 H62        -2.1910   -1.4970   -2.7770 hc        1 OVA      0.094000
     27 H12        -3.5380    0.6750   -0.6660 ho        1 OVA      0.198000
     28 H111       -2.9880   -2.2860   -0.7930 hc        1 OVA      0.090000
     29 H112       -1.6610   -2.1490    0.1010 hc        1 OVA      0.090000
     30 H113       -3.0050   -1.3930    0.5430 hc        1 OVA      0.090000
     31 H22         1.1190   -0.2610   -0.2780 h1        1 OVA      0.150000
     32 H231        0.4420   -1.2430    1.5120 hc        1 OVA      0.102500
     33 H232        0.2170    0.2690    2.0220 hc        1 OVA      0.102500
     34 H24         2.8210    0.1510    0.9180 ha        1 OVA      0.128000
     35 HA1        -1.0870   -1.3550    1.6200 hc        1 OVA      0.098333
     36 HA2        -2.1140   -0.2250    1.1210 hc        1 OVA      0.098333
     37 HA3        -1.0000    0.1350    2.2210 hc        1 OVA      0.098333
     38 HB1         1.0580   -0.3600    4.0640 ha        1 OVA      0.080667
     39 HB2         2.3280   -0.9450    4.8510 ha        1 OVA      0.080667
     40 HB3         1.5350   -1.8690    3.8040 ha        1 OVA      0.080667
     41 HC1         4.7540   -0.6090    2.3210 hc        1 OVA      0.080667
     42 HC2         4.5230   -0.8970    3.8830 hc        1 OVA      0.080667
     43 HC3         4.4740    0.6090    3.3280 hc        1 OVA      0.080667
     44 H11         1.3120    2.8510   -2.4470 h1        1 OVA      0.085333
     45 H12A       -0.0880    3.5700   -2.7570 h1        1 OVA      0.085333
     46 H13         0.7150    3.9220   -1.4110 h1        1 OVA      0.085333
     47 HO1         0.2550   -1.5530   -2.1490 ho        1 OVA      0.207000
@<TRIPOS>BOND
     1    1    2 1   
     2    1    6 1   
     3    1   22 1   
     4    1   23 1   
     5    2    3 1   
     6    2   20 1   
     7    3    4 1   
     8    3   18 1   
     9    3   24 1   
    10    4    5 1   
    11    4    9 1   
    12    4   21 1   
    13    5    6 1   
    14    5    7 1   
    15    5    8 1   
    16    6   25 1   
    17    6   26 1   
    18    7   27 1   
    19    8   28 1   
    20    8   29 1   
    21    8   30 1   
    22    9   10 1   
    23    9   14 1   
    24    9   15 1   
    25   10   11 1   
    26   10   15 1   
    27   10   31 1   
    28   11   12 1   
    29   11   32 1   
    30   11   33 1   
    31   12   13 1   
    32   12   34 1   
    33   13   17 1   
    34   14   35 1   
    35   14   36 1   
    36   14   37 1   
    37   16   38 1   
    38   16   39 1   
    39   16   40 1   
    40   17   41 1   
    41   17   42 1   
    42   17   43 1   
    43   18   19 1   
    44   19   44 1   
    45   19   45 1   
    46   19   46 1   
    47   21   47 1   
@<TRIPOS>SUBSTRUCTURE
     1 OVA         1 TEMP              0 ****  ****    0 ROOT
