@<TRIPOS>MOLECULE
OVA
   47    48     1     0     0
SMALL
bcc


@<TRIPOS>ATOM
      1 C5         -0.3490   -0.0620    0.2540 c3        1 OVA     -0.177400
      2 C4          1.1230   -0.1700   -0.0240 c         1 OVA      0.559100
      3 C3          2.0140   -0.1460    1.2060 c3        1 OVA      0.019100
      4 C2          1.6710    1.0320    2.1560 c3        1 OVA      0.204800
      5 C1          0.1480    0.9930    2.4870 c3        1 OVA      0.162800
      6 C6         -0.6540    1.0880    1.1830 c3        1 OVA     -0.099400
      7 O11        -0.0950   -0.2650    3.1200 oh        1 OVA     -0.606800
      8 C11        -0.2560    2.1340    3.4110 c3        1 OVA     -0.124100
      9 C21         2.5530    0.9840    3.4090 cx        1 OVA      0.063800
     10 C22         2.7670    2.2610    4.1680 cx        1 OVA      0.077100
     11 C23         3.1180    2.2690    5.6270 c3        1 OVA     -0.043200
     12 C24         3.2540    3.6430    6.1660 c2        1 OVA     -0.177200
     13 C25         3.2370    3.9260    7.4790 c2        1 OVA     -0.118400
     14 C2A         2.7390   -0.3530    4.0510 c3        1 OVA     -0.085100
     15 O2A         3.7660    1.7580    3.2670 os        1 OVA     -0.398600
     16 C2B         3.3960    5.3130    7.9780 c3        1 OVA     -0.059900
     17 C2C         3.0590    2.8810    8.5160 c3        1 OVA     -0.059900
     18 O31         3.3810    0.0290    0.8490 os        1 OVA     -0.403600
     19 C31         4.0140   -1.1620    0.4070 c3        1 OVA      0.113700
     20 O41         1.5680   -0.3270   -1.1620 o         1 OVA     -0.518100
     21 O1          1.8830    2.2680    1.4840 oh        1 OVA     -0.602800
     22 H51        -0.9090    0.0640   -0.7100 hc        1 OVA      0.073200
     23 H52        -0.6780   -1.0280    0.7260 hc        1 OVA      0.073200
     24 H3          1.8550   -1.1160    1.7590 h1        1 OVA      0.083700
     25 H61        -0.4020    2.0630    0.6880 hc        1 OVA      0.064700
     26 H62        -1.7490    1.0910    1.4220 hc        1 OVA      0.064700
     27 H12        -1.0250   -0.2680    3.3740 ho        1 OVA      0.408000
     28 H111        0.0780    3.1050    2.9710 hc        1 OVA      0.053033
     29 H112       -1.3650    2.1520    3.5370 hc        1 OVA      0.053033
     30 H113        0.2170    2.0020    4.4140 hc        1 OVA      0.053033
     31 H22         2.2680    3.1820    3.7970 h1        1 OVA      0.099700
     32 H231        4.0850    1.7160    5.7880 hc        1 OVA      0.064200
     33 H232        2.3160    1.7120    6.1880 hc        1 OVA      0.064200
     34 H24         3.3940    4.4440    5.4220 ha        1 OVA      0.129000
     35 HA1         3.2480   -0.2490    5.0400 hc        1 OVA      0.056700
     36 HA2         3.3800   -0.9950    3.3950 hc        1 OVA      0.056700
     37 HA3         1.7490   -0.8490    4.2010 hc        1 OVA      0.056700
     38 HB1         2.5200    5.5940    8.6150 hc        1 OVA      0.041700
     39 HB2         4.3210    5.3910    8.6040 hc        1 OVA      0.041700
     40 HB3         3.4750    6.0480    7.1400 hc        1 OVA      0.041700
     41 HC1         3.2550    3.2870    9.5380 hc        1 OVA      0.041700
     42 HC2         3.7560    2.0250    8.3350 hc        1 OVA      0.041700
     43 HC3         2.0120    2.4860    8.4900 hc        1 OVA      0.041700
     44 H11         5.0610   -0.8400    0.1780 h1        1 OVA      0.041700
     45 H12A        4.0090   -1.9310    1.2200 h1        1 OVA      0.041700
     46 H13         3.5130   -1.5580   -0.5100 h1        1 OVA      0.041700
     47 HO1         2.8290    2.3040    1.2680 ho        1 OVA      0.445000
@<TRIPOS>BOND
     1    1    2 1   
     2    1    6 1   
     3    1   22 1   
     4    1   23 1   
     5    2    3 1   
     6    2   20 2   
     7    3    4 1   
     8    3   18 1   
     9    3   24 1   
    10    4    5 1   
    11    4    9 1   
    12    4   21 1   
    13    5    6 1   
    14    5    7 1   
    15    5    8 1   
    16    6   25 1   
    17    6   26 1   
    18    7   27 1   
    19    8   28 1   
    20    8   29 1   
    21    8   30 1   
    22    9   10 1   
    23    9   14 1   
    24    9   15 1   
    25   10   11 1   
    26   10   15 1   
    27   10   31 1   
    28   11   12 1   
    29   11   32 1   
    30   11   33 1   
    31   12   13 2   
    32   12   34 1   
    33   13   16 1   
    34   13   17 1   
    35   14   35 1   
    36   14   36 1   
    37   14   37 1   
    38   16   38 1   
    39   16   39 1   
    40   16   40 1   
    41   17   41 1   
    42   17   42 1   
    43   17   43 1   
    44   18   19 1   
    45   19   44 1   
    46   19   45 1   
    47   19   46 1   
    48   21   47 1   
@<TRIPOS>SUBSTRUCTURE
     1 OVA         1 TEMP              0 ****  ****    0 ROOT
