@<TRIPOS>MOLECULE
OVA
   47    48     1     0     0
SMALL
bcc


@<TRIPOS>ATOM
      1 C5         -0.3520   -0.0700    0.2580 c3        1 OVA     -0.177400
      2 C4          1.1190   -0.1730   -0.0230 c         1 OVA      0.559100
      3 C3          2.0130   -0.1480    1.2040 c3        1 OVA      0.019100
      4 C2          1.6690    1.0300    2.1560 c3        1 OVA      0.204800
      5 C1          0.1470    0.9850    2.4910 c3        1 OVA      0.162800
      6 C6         -0.6590    1.0790    1.1890 c3        1 OVA     -0.099400
      7 O11        -0.0890   -0.2740    3.1230 oh        1 OVA     -0.606800
      8 C11        -0.2570    2.1240    3.4160 c3        1 OVA     -0.124100
      9 C21         2.5550    0.9830    3.4050 cx        1 OVA      0.063800
     10 C22         2.7670    2.2600    4.1650 cx        1 OVA      0.077100
     11 C23         3.1220    2.2690    5.6230 c3        1 OVA     -0.043200
     12 C24         3.2550    3.6420    6.1630 c2        1 OVA     -0.177200
     13 C25         3.2410    3.9250    7.4750 c2        1 OVA     -0.118400
     14 C2A         2.7470   -0.3540    4.0460 c3        1 OVA     -0.085100
     15 O2A         3.7650    1.7610    3.2610 os        1 OVA     -0.398600
     16 C2B         3.3970    5.3130    7.9750 c3        1 OVA     -0.059900
     17 C2C         3.0670    2.8800    8.5120 c3        1 OVA     -0.059900
     18 O31         3.3790    0.0320    0.8430 os        1 OVA     -0.403600
     19 C31         4.0150   -1.1570    0.3990 c3        1 OVA      0.113700
     20 O41         1.5620   -0.3280   -1.1630 o         1 OVA     -0.518100
     21 O1          1.8760    2.2660    1.4840 oh        1 OVA     -0.602800
     22 H51        -0.9160    0.0540   -0.7040 hc        1 OVA      0.073200
     23 H52        -0.6770   -1.0370    0.7310 hc        1 OVA      0.073200
     24 H3          1.8590   -1.1180    1.7570 h1        1 OVA      0.083700
     25 H61        -0.4100    2.0550    0.6940 hc        1 OVA      0.064700
     26 H62        -1.7530    1.0770    1.4310 hc        1 OVA      0.064700
     27 H12        -1.0190   -0.2800    3.3800 ho        1 OVA      0.408000
     28 H111       -1.3660    2.1390    3.5450 hc        1 OVA      0.053033
     29 H112        0.0720    3.0960    2.9770 hc        1 OVA      0.053033
     30 H113        0.2190    1.9930    4.4180 hc        1 OVA      0.053033
     31 H22         2.2640    3.1800    3.7960 h1        1 OVA      0.099700
     32 H231        4.0920    1.7180    5.7810 hc        1 OVA      0.064200
     33 H232        2.3240    1.7090    6.1860 hc        1 OVA      0.064200
     34 H24         3.3920    4.4440    5.4190 ha        1 OVA      0.129000
     35 HA1         1.7590   -0.8530    4.1990 hc        1 OVA      0.056700
     36 HA2         3.2580   -0.2480    5.0340 hc        1 OVA      0.056700
     37 HA3         3.3880   -0.9930    3.3880 hc        1 OVA      0.056700
     38 HB1         2.5220    5.5910    8.6130 hc        1 OVA      0.041700
     39 HB2         4.3230    5.3920    8.5980 hc        1 OVA      0.041700
     40 HB3         3.4730    6.0480    7.1370 hc        1 OVA      0.041700
     41 HC1         2.0210    2.4820    8.4880 hc        1 OVA      0.041700
     42 HC2         3.7660    2.0250    8.3300 hc        1 OVA      0.041700
     43 HC3         3.2650    3.2860    9.5340 hc        1 OVA      0.041700
     44 H11         5.0600   -0.8310    0.1670 h1        1 OVA      0.041700
     45 H12A        4.0140   -1.9260    1.2110 h1        1 OVA      0.041700
     46 H13         3.5130   -1.5540   -0.5170 h1        1 OVA      0.041700
     47 HO1         2.8210    2.3060    1.2650 ho        1 OVA      0.445000
@<TRIPOS>BOND
     1    1    2 1   
     2    1    6 1   
     3    1   22 1   
     4    1   23 1   
     5    2    3 1   
     6    2   20 2   
     7    3    4 1   
     8    3   18 1   
     9    3   24 1   
    10    4    5 1   
    11    4    9 1   
    12    4   21 1   
    13    5    6 1   
    14    5    7 1   
    15    5    8 1   
    16    6   25 1   
    17    6   26 1   
    18    7   27 1   
    19    8   28 1   
    20    8   29 1   
    21    8   30 1   
    22    9   10 1   
    23    9   14 1   
    24    9   15 1   
    25   10   11 1   
    26   10   15 1   
    27   10   31 1   
    28   11   12 1   
    29   11   32 1   
    30   11   33 1   
    31   12   13 2   
    32   12   34 1   
    33   13   16 1   
    34   13   17 1   
    35   14   35 1   
    36   14   36 1   
    37   14   37 1   
    38   16   38 1   
    39   16   39 1   
    40   16   40 1   
    41   17   41 1   
    42   17   42 1   
    43   17   43 1   
    44   18   19 1   
    45   19   44 1   
    46   19   45 1   
    47   19   46 1   
    48   21   47 1   
@<TRIPOS>SUBSTRUCTURE
     1 OVA         1 TEMP              0 ****  ****    0 ROOT
