@<TRIPOS>MOLECULE
OVA
   47    48     1     0     0
SMALL
bcc


@<TRIPOS>ATOM
      1 C5         -1.6320    0.2830    3.6820 c3        1 OVA     -0.177400
      2 C4         -0.1790   -0.0950    3.6500 c         1 OVA      0.559100
      3 C3          0.5590    0.2920    2.3810 c3        1 OVA      0.019100
      4 C2         -0.2000   -0.1520    1.1020 c3        1 OVA      0.204800
      5 C1         -1.6610    0.3870    1.1650 c3        1 OVA      0.162800
      6 C6         -2.3460   -0.1560    2.4260 c3        1 OVA     -0.099400
      7 O11        -1.5630    1.8100    1.2360 oh        1 OVA     -0.606800
      8 C11        -2.4650   -0.0250   -0.0610 c3        1 OVA     -0.124100
      9 C21         0.5500    0.3070   -0.1520 cx        1 OVA      0.063800
     10 C22         0.3060   -0.4380   -1.4320 cx        1 OVA      0.077100
     11 C23         0.5180    0.1960   -2.7750 c3        1 OVA     -0.043200
     12 C24         0.1890   -0.7230   -3.8900 c2        1 OVA     -0.177200
     13 C25        -0.0210   -0.3100   -5.1510 c2        1 OVA     -0.118400
     14 C2A         1.0790    1.7060   -0.1470 c3        1 OVA     -0.085100
     15 O2A         1.4800   -0.6860   -0.6430 os        1 OVA     -0.398600
     16 C2B        -0.3290   -1.2660   -6.2420 c3        1 OVA     -0.059900
     17 C2C         0.0380    1.1190   -5.5390 c3        1 OVA     -0.059900
     18 O31         1.8340   -0.3390    2.3140 os        1 OVA     -0.403600
     19 C31         2.8320    0.3010    3.0950 c3        1 OVA      0.113700
     20 O41         0.3840   -0.6250    4.6100 o         1 OVA     -0.518100
     21 O1         -0.3170   -1.5700    1.0810 oh        1 OVA     -0.602800
     22 H51        -2.1240   -0.1720    4.5820 hc        1 OVA      0.073200
     23 H52        -1.6910    1.4010    3.7800 hc        1 OVA      0.073200
     24 H3          0.6570    1.4150    2.3740 h1        1 OVA      0.083700
     25 H61        -2.3600   -1.2760    2.3600 hc        1 OVA      0.064700
     26 H62        -3.4060    0.2060    2.4560 hc        1 OVA      0.064700
     27 H12        -2.4660    2.1480    1.2200 ho        1 OVA      0.408000
     28 H111       -3.5340    0.2710    0.0630 hc        1 OVA      0.053033
     29 H112       -2.0570    0.4740   -0.9730 hc        1 OVA      0.053033
     30 H113       -2.4050   -1.1330   -0.1900 hc        1 OVA      0.053033
     31 H22        -0.4160   -1.2830   -1.4160 h1        1 OVA      0.099700
     32 H231       -0.1210    1.1200   -2.8360 hc        1 OVA      0.064200
     33 H232        1.5910    0.5230   -2.8760 hc        1 OVA      0.064200
     34 H24         0.1420   -1.7950   -3.6370 ha        1 OVA      0.129000
     35 HA1         1.4500    1.9920   -1.1610 hc        1 OVA      0.056700
     36 HA2         0.2770    2.4200    0.1620 hc        1 OVA      0.056700
     37 HA3         1.9350    1.7780    0.5710 hc        1 OVA      0.056700
     38 HB1        -1.2980   -0.9920   -6.7290 hc        1 OVA      0.041700
     39 HB2         0.4740   -1.2290   -7.0200 hc        1 OVA      0.041700
     40 HB3        -0.4060   -2.3140   -5.8650 hc        1 OVA      0.041700
     41 HC1         0.9740    1.5940   -5.1490 hc        1 OVA      0.041700
     42 HC2         0.0180    1.2390   -6.6500 hc        1 OVA      0.041700
     43 HC3        -0.8350    1.6730   -5.1100 hc        1 OVA      0.041700
     44 H11         3.7470   -0.3190    2.9210 h1        1 OVA      0.041700
     45 H12A        2.9930    1.3490    2.7390 h1        1 OVA      0.041700
     46 H13         2.5500    0.2940    4.1770 h1        1 OVA      0.041700
     47 HO1         0.5880   -1.9200    1.0470 ho        1 OVA      0.445000
@<TRIPOS>BOND
     1    1    2 1   
     2    1    6 1   
     3    1   22 1   
     4    1   23 1   
     5    2    3 1   
     6    2   20 2   
     7    3    4 1   
     8    3   18 1   
     9    3   24 1   
    10    4    5 1   
    11    4    9 1   
    12    4   21 1   
    13    5    6 1   
    14    5    7 1   
    15    5    8 1   
    16    6   25 1   
    17    6   26 1   
    18    7   27 1   
    19    8   28 1   
    20    8   29 1   
    21    8   30 1   
    22    9   10 1   
    23    9   14 1   
    24    9   15 1   
    25   10   11 1   
    26   10   15 1   
    27   10   31 1   
    28   11   12 1   
    29   11   32 1   
    30   11   33 1   
    31   12   13 2   
    32   12   34 1   
    33   13   16 1   
    34   13   17 1   
    35   14   35 1   
    36   14   36 1   
    37   14   37 1   
    38   16   38 1   
    39   16   39 1   
    40   16   40 1   
    41   17   41 1   
    42   17   42 1   
    43   17   43 1   
    44   18   19 1   
    45   19   44 1   
    46   19   45 1   
    47   19   46 1   
    48   21   47 1   
@<TRIPOS>SUBSTRUCTURE
     1 OVA         1 TEMP              0 ****  ****    0 ROOT
