@<TRIPOS>MOLECULE
OVE
   36    34     1     0     0
SMALL
bcc


@<TRIPOS>ATOM
      1 O1P        -2.2900   -2.1810    2.0180 o         1 OVE     -0.747500
      2 P          -2.2390   -0.7300    2.5660 p5        1 OVE      1.275800
      3 S2P        -4.1490   -0.1460    3.1860 sh        1 OVE     -0.713200
      4 O3P        -1.3260   -0.6710    3.6950 o         1 OVE     -0.747500
      5 O2'        -1.7220    0.2550    1.4240 os        1 OVE     -0.535200
      6 C2'        -0.2670    0.3750    1.2190 c3        1 OVE      0.133100
      7 C3'         0.2990    1.5920    2.0090 c3        1 OVE      0.120100
      8 O3'        -0.6970    2.3540    2.4690 oh        1 OVE     -0.606800
      9 C1'        -0.0170    0.6320   -0.0180 c3        1 OVE      0.228800
     10 O4'         1.2950    1.5960   -0.0330 os        1 OVE     -0.425600
     11 C4'         1.1690    2.3870    0.9830 c3        1 OVE      0.088100
     12 C5'         2.5020    2.6930    1.5560 c3        1 OVE      0.115400
     13 O5'         3.2090    3.6120    0.6710 oh        1 OVE     -0.606800
     14 N9          0.2480   -0.5610   -0.7040 n3        1 OVE     -0.108400
     15 C8          1.3380   -1.3080   -0.5280 c1        1 OVE      0.193400
     16 N7          1.4380   -2.1730   -1.5960 ne        1 OVE     -0.408400
     17 C5          0.3920   -1.9400   -2.4240 cg        1 OVE     -0.176000
     18 C6         -0.0010   -2.5430   -3.6150 c1        1 OVE      0.424400
     19 N6          0.3250   -3.8050   -4.2780 n3        1 OVE     -0.436400
     20 C4         -0.3500   -0.9510   -1.8900 c1        1 OVE      0.015700
     21 N3         -1.4970   -0.5380   -2.5240 n1        1 OVE     -0.507800
     22 C2         -1.8860   -1.1320   -3.6990 cg        1 OVE      0.381800
     23 N1         -1.1320   -2.1340   -4.2400 ne        1 OVE     -0.542400
     24 H2P        -4.5500   -0.9080    3.9410 hs        1 OVE      0.320800
     25 H2'         0.1730   -0.4250    1.4870 h1        1 OVE      0.094700
     26 H3'         0.8270    1.2960    2.7140 h1        1 OVE      0.045700
     27 H1'        -0.8010    1.1110   -0.4430 h2        1 OVE      0.133700
     28 HA         -0.4570    2.7210    3.2270 ho        1 OVE      0.456000
     29 H4'         0.7030    3.2360    0.7100 h1        1 OVE      0.101700
     30 H5'1        2.3950    3.0980    2.4240 h1        1 OVE      0.044700
     31 H5'2        3.0260    1.8510    1.6440 h1        1 OVE      0.044700
     32 H5'         3.9750    3.8050    1.0100 ho        1 OVE      0.415000
     33 H2         -2.7770   -0.8080   -4.1910 DU        1 OVE      0.195500
     34 H8          1.9620   -1.2220    0.1790 DU        1 OVE      0.195500
     35 H61N        1.0920   -4.3170   -3.9950 hn        1 OVE      0.268200
     36 H62N       -0.2110   -4.1200   -4.9530 hn        1 OVE      0.268200
@<TRIPOS>BOND
     1    1    2 1   
     2    2    3 1   
     3    2    4 1   
     4    2    5 1   
     5    3   24 1   
     6    5    6 1   
     7    6    7 1   
     8    6    9 1   
     9    6   25 1   
    10    7    8 1   
    11    7   11 1   
    12    7   26 1   
    13    8   28 1   
    14    9   10 1   
    15    9   14 1   
    16    9   27 1   
    17   10   11 1   
    18   11   12 1   
    19   11   29 1   
    20   12   13 1   
    21   12   30 1   
    22   12   31 1   
    23   13   32 1   
    24   14   15 2   
    25   14   20 1   
    26   15   16 2   
    27   16   17 1   
    28   17   20 3   
    29   18   19 2   
    30   18   23 2   
    31   19   35 1   
    32   19   36 1   
    33   21   22 3   
    34   22   23 1   
@<TRIPOS>SUBSTRUCTURE
     1 OVE         1 TEMP              0 ****  ****    0 ROOT
