@<TRIPOS>MOLECULE
OVE
   36    38     1     0     0
SMALL
bcc


@<TRIPOS>ATOM
      1 O1P         1.4420    4.2900    0.5810 o         1 OVE     -0.758500
      2 P           1.5790    2.9520    1.1540 p5        1 OVE      1.287800
      3 S2P         3.6060    2.9150    2.0560 sh        1 OVE     -0.701200
      4 O3P         0.6580    2.2290    2.0410 o         1 OVE     -0.758500
      5 O2'         1.8100    1.9070   -0.1130 os        1 OVE     -0.545200
      6 C2'         1.6190    0.5540    0.1270 c3        1 OVE      0.136100
      7 C3'         2.8450   -0.2750   -0.3360 c3        1 OVE      0.119100
      8 O3'         3.6770    0.3790   -1.2710 oh        1 OVE     -0.600800
      9 C1'         0.4370    0.0240   -0.7590 c3        1 OVE      0.230800
     10 O4'         0.9320   -1.0970   -1.5090 os        1 OVE     -0.399600
     11 C4'         2.2270   -1.4950   -1.0430 c3        1 OVE      0.123100
     12 C5'         2.0770   -2.6980   -0.1110 c3        1 OVE      0.105400
     13 O5'         3.2840   -3.4400   -0.1840 oh        1 OVE     -0.598800
     14 N9         -0.7580   -0.3670   -0.0370 na        1 OVE     -0.278000
     15 C8         -1.0900   -0.1890    1.3310 cc        1 OVE      0.438700
     16 N7         -2.2640   -0.7410    1.6760 nd        1 OVE     -0.581100
     17 C5         -2.7610   -1.3210    0.5000 ca        1 OVE     -0.215200
     18 C6         -3.9620   -2.0380    0.2040 ca        1 OVE      0.711200
     19 N6         -4.8400   -2.3720    1.2280 nh        1 OVE     -0.935500
     20 C4         -1.8260   -1.0870   -0.6000 ca        1 OVE      0.449800
     21 N3         -2.0640   -1.5010   -1.8810 nb        1 OVE     -0.695000
     22 C2         -3.2430   -2.1470   -2.0140 ca        1 OVE      0.652900
     23 N1         -4.1990   -2.4370   -1.0860 nb        1 OVE     -0.796000
     24 H2P         4.0660    4.0490    1.5470 hs        1 OVE      0.317800
     25 H2'         1.4420    0.3620    1.2240 h1        1 OVE      0.087700
     26 H3'         3.4730   -0.5790    0.5440 h1        1 OVE      0.069700
     27 H1'         0.1370    0.7930   -1.5340 h2        1 OVE      0.110700
     28 HA          3.6140    1.3320   -1.1100 ho        1 OVE      0.436000
     29 H4'         2.8050   -1.7760   -1.9640 h1        1 OVE      0.106700
     30 H5'1        1.8870   -2.3660    0.9440 h1        1 OVE      0.035200
     31 H5'2        1.2180   -3.3340   -0.4560 h1        1 OVE      0.035200
     32 H5'         3.2080   -4.1430    0.4710 ho        1 OVE      0.395000
     33 H2         -3.4790   -2.4950   -3.0410 h5        1 OVE      0.039100
     34 H8         -0.4630    0.4190    2.0150 h5        1 OVE      0.140800
     35 H61N       -4.7520   -1.8270    2.0550 hn        1 OVE      0.417800
     36 H62N       -5.7650   -2.6240    0.9690 hn        1 OVE      0.417800
@<TRIPOS>BOND
     1    1    2 1   
     2    2    3 1   
     3    2    4 1   
     4    2    5 1   
     5    3   24 1   
     6    5    6 1   
     7    6    7 1   
     8    6    9 1   
     9    6   25 1   
    10    7    8 1   
    11    7   11 1   
    12    7   26 1   
    13    8   28 1   
    14    9   10 1   
    15    9   14 1   
    16    9   27 1   
    17   10   11 1   
    18   11   12 1   
    19   11   29 1   
    20   12   13 1   
    21   12   30 1   
    22   12   31 1   
    23   13   32 1   
    24   14   15 1   
    25   14   20 1   
    26   15   16 2   
    27   15   34 1   
    28   16   17 1   
    29   17   18 ar  
    30   17   20 ar  
    31   18   19 1   
    32   18   23 ar  
    33   19   35 1   
    34   19   36 1   
    35   20   21 ar  
    36   21   22 ar  
    37   22   23 ar  
    38   22   33 1   
@<TRIPOS>SUBSTRUCTURE
     1 OVE         1 TEMP              0 ****  ****    0 ROOT
