@<TRIPOS>MOLECULE
OVE
   36    38     1     0     0
SMALL
bcc


@<TRIPOS>ATOM
      1 O1P         1.0110    0.6830    2.5910 o         1 OVE     -0.760000
      2 P           2.1790    0.3670    1.7700 p5        1 OVE      1.290800
      3 S2P         3.9590    0.7790    3.0210 sh        1 OVE     -0.695200
      4 O3P         2.4740   -0.8450    0.9930 o         1 OVE     -0.760000
      5 O2'         2.2650    1.5630    0.6270 os        1 OVE     -0.551200
      6 C2'         3.2560    1.4560   -0.3400 c3        1 OVE      0.144100
      7 C3'         3.9970    2.8130   -0.4800 c3        1 OVE      0.121100
      8 O3'         3.5110    3.8170    0.3790 oh        1 OVE     -0.586800
      9 C1'         2.5780    1.2280   -1.7440 c3        1 OVE      0.228800
     10 O4'         2.7260    2.4420   -2.4810 os        1 OVE     -0.388600
     11 C4'         3.8030    3.2270   -1.9530 c3        1 OVE      0.096100
     12 C5'         5.0510    3.0050   -2.8060 c3        1 OVE      0.106400
     13 O5'         5.8860    4.1410   -2.6350 oh        1 OVE     -0.600800
     14 N9          3.1150    0.0940   -2.4800 na        1 OVE     -0.285000
     15 C8          3.3940   -1.1850   -1.9290 cc        1 OVE      0.435700
     16 N7          3.7640   -2.0950   -2.8430 nd        1 OVE     -0.581100
     17 C5          3.7170   -1.4230   -4.0720 ca        1 OVE     -0.216200
     18 C6          3.9840   -1.8450   -5.4130 ca        1 OVE      0.713200
     19 N6          4.4880   -3.1160   -5.6510 nh        1 OVE     -0.937500
     20 C4          3.2920   -0.0370   -3.8660 ca        1 OVE      0.447800
     21 N3          3.1280    0.8450   -4.9000 nb        1 OVE     -0.700000
     22 C2          3.3920    0.3010   -6.1070 ca        1 OVE      0.649900
     23 N1          3.7940   -0.9580   -6.4410 nb        1 OVE     -0.798000
     24 H2P         3.4270    1.6350    3.8800 hs        1 OVE      0.314800
     25 H2'         3.9770    0.6330   -0.0780 h1        1 OVE      0.087700
     26 H3'         5.0860    2.7120   -0.2250 h1        1 OVE      0.094700
     27 H1'         1.4610    1.0830   -1.6370 h2        1 OVE      0.104700
     28 HA          2.5610    3.6770    0.4980 ho        1 OVE      0.426000
     29 H4'         3.4610    4.2950   -2.0350 h1        1 OVE      0.098700
     30 H5'1        4.7530    2.9090   -3.8850 h1        1 OVE      0.039700
     31 H5'2        5.5920    2.0750   -2.4870 h1        1 OVE      0.039700
     32 H5'         6.6880    3.9610   -3.1380 ho        1 OVE      0.394000
     33 H2          3.2580    0.9840   -6.9720 h5        1 OVE      0.038100
     34 H8          3.2820   -1.3870   -0.8420 h5        1 OVE      0.149800
     35 H61N        4.3530   -3.7730   -4.9180 hn        1 OVE      0.419800
     36 H62N        4.4200   -3.4700   -6.5760 hn        1 OVE      0.419800
@<TRIPOS>BOND
     1    1    2 1   
     2    2    3 1   
     3    2    4 1   
     4    2    5 1   
     5    3   24 1   
     6    5    6 1   
     7    6    7 1   
     8    6    9 1   
     9    6   25 1   
    10    7    8 1   
    11    7   11 1   
    12    7   26 1   
    13    8   28 1   
    14    9   10 1   
    15    9   14 1   
    16    9   27 1   
    17   10   11 1   
    18   11   12 1   
    19   11   29 1   
    20   12   13 1   
    21   12   30 1   
    22   12   31 1   
    23   13   32 1   
    24   14   15 1   
    25   14   20 1   
    26   15   16 2   
    27   15   34 1   
    28   16   17 1   
    29   17   18 ar  
    30   17   20 ar  
    31   18   19 1   
    32   18   23 ar  
    33   19   35 1   
    34   19   36 1   
    35   20   21 ar  
    36   21   22 ar  
    37   22   23 ar  
    38   22   33 1   
@<TRIPOS>SUBSTRUCTURE
     1 OVE         1 TEMP              0 ****  ****    0 ROOT
