@<TRIPOS>MOLECULE
OVE
   36    38     1     0     0
SMALL
bcc


@<TRIPOS>ATOM
      1 O1P         0.3230    0.2270    1.5630 o         1 OVE     -0.747500
      2 P           1.7710    0.2990    1.3730 p5        1 OVE      1.275800
      3 S2P         2.5240    1.5590    3.0670 sh        1 OVE     -0.713200
      4 O3P         2.7190   -0.7930    1.1390 o         1 OVE     -0.747500
      5 O2'         2.0670    1.4320    0.2030 os        1 OVE     -0.535200
      6 C2'         3.2900    1.3920   -0.4470 c3        1 OVE      0.133100
      7 C3'         4.1620    2.6420   -0.1490 c3        1 OVE      0.120100
      8 O3'         3.5220    3.6470    0.6010 oh        1 OVE     -0.606800
      9 C1'         3.0180    1.4550   -1.9910 c3        1 OVE      0.228800
     10 O4'         3.6270    2.6520   -2.4970 os        1 OVE     -0.425600
     11 C4'         4.4910    3.2480   -1.5230 c3        1 OVE      0.088100
     12 C5'         5.9450    3.0050   -1.9250 c3        1 OVE      0.115400
     13 O5'         6.2290    3.5460   -3.1990 oh        1 OVE     -0.606800
     14 N9          3.5050    0.3070   -2.7270 na        1 OVE     -0.265000
     15 C8          4.6610   -0.4750   -2.4810 cc        1 OVE      0.428700
     16 N7          4.9170   -1.3860   -3.4330 nd        1 OVE     -0.563100
     17 C5          3.9040   -1.2090   -4.3860 ca        1 OVE     -0.219200
     18 C6          3.6060   -1.8670   -5.6220 ca        1 OVE      0.725200
     19 N6          4.4620   -2.8410   -6.1120 nv        1 OVE     -0.939500
     20 C4          3.0070   -0.1330   -3.9650 ca        1 OVE      0.461800
     21 N3          1.9170    0.2620   -4.6900 nb        1 OVE     -0.708000
     22 C2          1.7570   -0.4540   -5.8250 ca        1 OVE      0.666900
     23 N1          2.5000   -1.4770   -6.3340 nb        1 OVE     -0.796000
     24 H2P         1.3590    2.0300    3.4880 hs        1 OVE      0.320800
     25 H2'         3.8540    0.4580   -0.1560 h1        1 OVE      0.094700
     26 H3'         5.0970    2.3190    0.3870 h1        1 OVE      0.045700
     27 H1'         1.9120    1.5640   -2.2030 h2        1 OVE      0.133700
     28 HA          3.1220    3.2210    1.3840 ho        1 OVE      0.456000
     29 H4'         4.2520    4.3470   -1.5540 h1        1 OVE      0.101700
     30 H5'1        6.1670    1.9030   -1.9250 h1        1 OVE      0.044700
     31 H5'2        6.6380    3.5330   -1.2180 h1        1 OVE      0.044700
     32 H5'         5.5300    3.2450   -3.7950 ho        1 OVE      0.415000
     33 H2          0.8790   -0.1710   -6.4430 h5        1 OVE      0.043100
     34 H8          5.2490   -0.3500   -1.5620 h5        1 OVE      0.081800
     35 H61N        5.0770   -3.2490   -5.4470 hn        1 OVE      0.423300
     36 H62N        4.1220   -3.4370   -6.8290 hn        1 OVE      0.423300
@<TRIPOS>BOND
     1    1    2 1   
     2    2    3 1   
     3    2    4 1   
     4    2    5 1   
     5    3   24 1   
     6    5    6 1   
     7    6    7 1   
     8    6    9 1   
     9    6   25 1   
    10    7    8 1   
    11    7   11 1   
    12    7   26 1   
    13    8   28 1   
    14    9   10 1   
    15    9   14 1   
    16    9   27 1   
    17   10   11 1   
    18   11   12 1   
    19   11   29 1   
    20   12   13 1   
    21   12   30 1   
    22   12   31 1   
    23   13   32 1   
    24   14   15 1   
    25   14   20 1   
    26   15   16 2   
    27   15   34 1   
    28   16   17 1   
    29   17   18 ar  
    30   17   20 ar  
    31   18   19 1   
    32   18   23 ar  
    33   19   35 1   
    34   19   36 1   
    35   20   21 ar  
    36   21   22 ar  
    37   22   23 ar  
    38   22   33 1   
@<TRIPOS>SUBSTRUCTURE
     1 OVE         1 TEMP              0 ****  ****    0 ROOT
