@<TRIPOS>MOLECULE
OVE
   37    39     1     0     0
SMALL
bcc


@<TRIPOS>ATOM
      1 O1P         0.9080   -0.7340    0.2130 o         1 OVE     -0.780500
      2 P           2.0850   -0.6120   -0.6330 p5        1 OVE      1.323800
      3 S2P         3.8740   -0.8700    0.6440 sh        1 OVE     -0.728200
      4 O3P         2.3770   -1.4100   -1.8450 o         1 OVE     -0.780500
      5 O2'         2.2190    0.9790   -1.0580 os        1 OVE     -0.543200
      6 C2'         3.4760    1.5070   -1.2990 c3        1 OVE      0.108100
      7 C3'         3.8070    2.6970   -0.3710 c3        1 OVE      0.111100
      8 O3'         2.6820    3.4670   -0.0060 oh        1 OVE     -0.594800
      9 C1'         3.5570    2.1660   -2.7270 c3        1 OVE      0.209800
     10 O4'         4.4880    3.2480   -2.6270 os        1 OVE     -0.397600
     11 C4'         4.7170    3.5880   -1.2430 c3        1 OVE      0.126100
     12 C5'         6.1950    3.3760   -0.9150 c3        1 OVE      0.120400
     13 O5'         6.8840    4.5360   -1.3480 oh        1 OVE     -0.589800
     14 N9          3.9930    1.2250   -3.7620 na        1 OVE     -0.243000
     15 C8          5.0990    0.3480   -3.5010 cc        1 OVE      0.478700
     16 N7          4.8910   -0.9380   -3.8000 nd        1 OVE     -0.572100
     17 C5          3.5600   -0.9850   -4.2510 ca        1 OVE     -0.100200
     18 C6          2.6260   -2.0180   -4.4240 ca        1 OVE      0.584200
     19 N6          2.9470   -3.3180   -3.8180 n4        1 OVE     -0.825300
     20 C4          2.9900    0.3750   -4.3140 ca        1 OVE      0.470800
     21 N3          1.7510    0.6310   -4.7880 nb        1 OVE     -0.634000
     22 C2          1.0510   -0.4870   -5.1310 ca        1 OVE      0.671900
     23 N1          1.3870   -1.7920   -4.9400 nb        1 OVE     -0.701000
     24 H2P         3.3310   -0.8990    1.8590 hs        1 OVE      0.347800
     25 H2'         4.2710    0.7140   -1.1690 h1        1 OVE      0.082700
     26 H3'         4.3210    2.3400    0.5620 h1        1 OVE      0.084700
     27 H1'         2.5620    2.5960   -3.0420 h2        1 OVE      0.125700
     28 HA          1.9220    2.8690    0.0510 ho        1 OVE      0.437000
     29 H4'         4.4430    4.6750   -1.1540 h1        1 OVE      0.117700
     30 H5'1        6.5880    2.4700   -1.4480 h1        1 OVE      0.032200
     31 H5'2        6.3260    3.2450    0.1930 h1        1 OVE      0.032200
     32 H5'         7.8140    4.3990   -1.1340 ho        1 OVE      0.402000
     33 H2          0.0450   -0.3120   -5.5720 h5        1 OVE      0.078100
     34 H8          6.0430    0.7670   -3.1160 h5        1 OVE      0.096800
     35 H61N        3.9090   -3.5770   -4.0460 hn        1 OVE      0.482800
     36 H62N        2.8610   -3.1460   -2.7850 hn        1 OVE      0.482800
     37 H63         2.2950   -4.0480   -4.1100 hn        1 OVE      0.482800
@<TRIPOS>BOND
     1    1    2 1   
     2    2    3 1   
     3    2    4 1   
     4    2    5 1   
     5    3   24 1   
     6    5    6 1   
     7    6    7 1   
     8    6    9 1   
     9    6   25 1   
    10    7    8 1   
    11    7   11 1   
    12    7   26 1   
    13    8   28 1   
    14    9   10 1   
    15    9   14 1   
    16    9   27 1   
    17   10   11 1   
    18   11   12 1   
    19   11   29 1   
    20   12   13 1   
    21   12   30 1   
    22   12   31 1   
    23   13   32 1   
    24   14   15 1   
    25   14   20 1   
    26   15   16 2   
    27   15   34 1   
    28   16   17 1   
    29   17   18 ar  
    30   17   20 ar  
    31   18   19 1   
    32   18   23 ar  
    33   19   35 1   
    34   19   36 1   
    35   19   37 1   
    36   20   21 ar  
    37   21   22 ar  
    38   22   23 ar  
    39   22   33 1   
@<TRIPOS>SUBSTRUCTURE
     1 OVE         1 TEMP              0 ****  ****    0 ROOT
