@<TRIPOS>MOLECULE
OWL
   42    45     1     0     0
SMALL
bcc


@<TRIPOS>ATOM
      1 C1         -0.1620   -0.1940   -0.3180 ca        1 OWL      0.094100
      2 C2          1.6330    0.1260    1.8550 ca        1 OWL      0.111100
      3 C3          1.2120    0.0490   -0.5410 ca        1 OWL     -0.138000
      4 C4         -0.6150   -0.2900    1.0120 ca        1 OWL     -0.138000
      5 C5          0.2640   -0.1340    2.0750 ca        1 OWL     -0.143000
      6 C6          2.0870    0.2140    0.5210 ca        1 OWL     -0.143000
      7 C7          4.5670    0.0680    4.1640 ca        1 OWL     -0.143000
      8 C8          5.3910   -1.9210    2.3910 ca        1 OWL     -0.138000
      9 C9          3.7150   -0.3010    3.0960 ca        1 OWL      0.111100
     10 C10         5.8010   -0.5410    4.3370 ca        1 OWL     -0.138000
     11 C11         6.2370   -1.5540    3.4590 ca        1 OWL      0.094100
     12 C12         4.1540   -1.3150    2.2200 ca        1 OWL     -0.143000
     13 N1          2.4980    0.3930    2.9370 nh        1 OWL     -0.610000
     14 C13         8.4070   -1.6910    4.5280 cc        1 OWL      0.549400
     15 N2          8.4650   -2.0430    5.9000 na        1 OWL     -0.295400
     16 N3          9.4150   -0.8150    4.2160 nd        1 OWL     -0.669000
     17 C14        -2.3240   -0.8170   -1.2140 cc        1 OWL      0.549400
     18 N4         -3.4510   -0.0050   -0.9330 na        1 OWL     -0.295400
     19 N5         -2.6940   -2.1360   -1.2980 nd        1 OWL     -0.669000
     20 N6         -1.0410   -0.2380   -1.4320 nh        1 OWL     -0.673800
     21 N7          7.4410   -2.2800    3.6620 nh        1 OWL     -0.673800
     22 C15         9.5450   -1.3600    6.4440 cc        1 OWL     -0.257100
     23 C16        10.1180   -0.6150    5.3940 cd        1 OWL      0.295200
     24 C17        -4.5450   -0.8540   -0.8420 cc        1 OWL     -0.257100
     25 C18        -4.0620   -2.1580   -1.0730 cd        1 OWL      0.295200
     26 H3          1.6030    0.1220   -1.5690 ha        1 OWL      0.139250
     27 H4         -1.6740   -0.5050    1.2250 ha        1 OWL      0.139250
     28 H5         -0.1290   -0.2160    3.1010 ha        1 OWL      0.140250
     29 H6          3.1500    0.4230    0.3150 ha        1 OWL      0.140250
     30 H7          4.2610    0.8570    4.8680 ha        1 OWL      0.140250
     31 H8          5.7000   -2.7040    1.6810 ha        1 OWL      0.139250
     32 H10         6.4430   -0.2100    5.1670 ha        1 OWL      0.139250
     33 H12         3.5140   -1.6440    1.3860 ha        1 OWL      0.140250
     34 HN1         2.0180    0.5380    3.8030 hn        1 OWL      0.408800
     35 HN6        -0.6050   -0.6450   -2.2410 hn        1 OWL      0.416300
     36 HN7         7.8690   -2.5460    2.7920 hn        1 OWL      0.416300
     37 H15         9.8190   -1.4450    7.4930 h4        1 OWL      0.179000
     38 H16        10.9850    0.0450    5.4310 h4        1 OWL      0.044100
     39 H17        -5.5490   -0.4910   -0.6290 h4        1 OWL      0.179000
     40 H18        -4.6230   -3.0920   -1.0850 h4        1 OWL      0.044100
     41 HN2         7.8540   -2.6580    6.3680 hn        1 OWL      0.309700
     42 HN4        -3.4490    0.9760   -0.8280 hn        1 OWL      0.309700
@<TRIPOS>BOND
     1    1    3 ar  
     2    1    4 ar  
     3    1   20 1   
     4    2    5 ar  
     5    2    6 ar  
     6    2   13 1   
     7    3    6 ar  
     8    3   26 1   
     9    4    5 ar  
    10    4   27 1   
    11    5   28 1   
    12    6   29 1   
    13    7    9 ar  
    14    7   10 ar  
    15    7   30 1   
    16    8   11 ar  
    17    8   12 ar  
    18    8   31 1   
    19    9   12 ar  
    20    9   13 1   
    21   10   11 ar  
    22   10   32 1   
    23   11   21 1   
    24   12   33 1   
    25   13   34 1   
    26   14   15 1   
    27   14   16 2   
    28   14   21 1   
    29   15   22 1   
    30   15   41 1   
    31   16   23 1   
    32   17   18 1   
    33   17   19 2   
    34   17   20 1   
    35   18   24 1   
    36   18   42 1   
    37   19   25 1   
    38   20   35 1   
    39   21   36 1   
    40   22   23 2   
    41   22   37 1   
    42   23   38 1   
    43   24   25 2   
    44   24   39 1   
    45   25   40 1   
@<TRIPOS>SUBSTRUCTURE
     1 OWL         1 TEMP              0 ****  ****    0 ROOT
