@<TRIPOS>MOLECULE
OWL
   42    45     1     0     0
SMALL
bcc


@<TRIPOS>ATOM
      1 C1          3.6780   -0.6000    0.3280 ca        1 OWL      0.094100
      2 C2          1.2150    0.6700   -0.2910 ca        1 OWL      0.111100
      3 C3          2.4530   -1.2880    0.4600 ca        1 OWL     -0.138000
      4 C4          3.6470    0.7320   -0.1300 ca        1 OWL     -0.138000
      5 C5          2.4450    1.3550   -0.4270 ca        1 OWL     -0.143250
      6 C6          1.2490   -0.6630    0.1670 ca        1 OWL     -0.143250
      7 C7         -2.3170    1.2890    0.0480 ca        1 OWL     -0.143250
      8 C8         -2.7090   -1.0930   -1.3480 ca        1 OWL     -0.138000
      9 C9         -1.2240    0.6910   -0.6160 ca        1 OWL      0.111100
     10 C10        -3.5810    0.7160    0.0070 ca        1 OWL     -0.138000
     11 C11        -3.8060   -0.4830   -0.6980 ca        1 OWL      0.094100
     12 C12        -1.4500   -0.5150   -1.3150 ca        1 OWL     -0.143250
     13 N1          0.0290    1.3360   -0.6630 nh        1 OWL     -0.610000
     14 C13        -6.0990   -0.6300    0.0690 cc        1 OWL      0.549400
     15 N2         -7.0070    0.4070   -0.2600 na        1 OWL     -0.295400
     16 N3         -6.3910   -1.1490    1.3040 nd        1 OWL     -0.669000
     17 C14         6.1000   -0.6600    0.3140 cc        1 OWL      0.549400
     18 N4          6.8040    0.2540    1.1370 na        1 OWL     -0.295400
     19 N5          6.8050   -0.9070   -0.8370 nd        1 OWL     -0.669000
     20 N6          4.8740   -1.2410    0.7470 nh        1 OWL     -0.673800
     21 N7         -5.0980   -1.0470   -0.8560 nh        1 OWL     -0.673800
     22 C15        -7.8850    0.5260    0.8090 cc        1 OWL     -0.257100
     23 C16        -7.4930   -0.4400    1.7580 cd        1 OWL      0.295200
     24 C17         7.9770    0.5760    0.4680 cc        1 OWL     -0.257100
     25 C18         7.9620   -0.1500   -0.7400 cd        1 OWL      0.295200
     26 H3          2.4360   -2.3330    0.8090 ha        1 OWL      0.139250
     27 H4          4.5840    1.2940   -0.2700 ha        1 OWL      0.139250
     28 H5          2.4610    2.3970   -0.7850 ha        1 OWL      0.140250
     29 H6          0.3120   -1.2270    0.3030 ha        1 OWL      0.140250
     30 H7         -2.1810    2.2270    0.6080 ha        1 OWL      0.140250
     31 H8         -2.8470   -2.0350   -1.9010 ha        1 OWL      0.139250
     32 H10        -4.4050    1.2060    0.5480 ha        1 OWL      0.139250
     33 H12        -0.6190   -1.0030   -1.8490 ha        1 OWL      0.140250
     34 HN1         0.0010    2.2840   -0.3440 hn        1 OWL      0.408800
     35 HN6         4.8630   -2.2260    0.5430 hn        1 OWL      0.416300
     36 HN7        -5.0690   -2.0500   -0.9120 hn        1 OWL      0.416300
     37 H15        -8.6910    1.2560    0.8230 h4        1 OWL      0.179000
     38 H16        -7.9430   -0.6530    2.7280 h4        1 OWL      0.044100
     39 H17         8.7090    1.2690    0.8760 h4        1 OWL      0.179000
     40 H18         8.7130   -0.1610   -1.5290 h4        1 OWL      0.044100
     41 HN2        -7.0100    0.9350   -1.0930 hn        1 OWL      0.309700
     42 HN4         6.5100    0.5900    2.0160 hn        1 OWL      0.309700
@<TRIPOS>BOND
     1    1    3 ar  
     2    1    4 ar  
     3    1   20 1   
     4    2    5 ar  
     5    2    6 ar  
     6    2   13 1   
     7    3    6 ar  
     8    3   26 1   
     9    4    5 ar  
    10    4   27 1   
    11    5   28 1   
    12    6   29 1   
    13    7    9 ar  
    14    7   10 ar  
    15    7   30 1   
    16    8   11 ar  
    17    8   12 ar  
    18    8   31 1   
    19    9   12 ar  
    20    9   13 1   
    21   10   11 ar  
    22   10   32 1   
    23   11   21 1   
    24   12   33 1   
    25   13   34 1   
    26   14   15 1   
    27   14   16 2   
    28   14   21 1   
    29   15   22 1   
    30   15   41 1   
    31   16   23 1   
    32   17   18 1   
    33   17   19 2   
    34   17   20 1   
    35   18   24 1   
    36   18   42 1   
    37   19   25 1   
    38   20   35 1   
    39   21   36 1   
    40   22   23 2   
    41   22   37 1   
    42   23   38 1   
    43   24   25 2   
    44   24   39 1   
    45   25   40 1   
@<TRIPOS>SUBSTRUCTURE
     1 OWL         1 TEMP              0 ****  ****    0 ROOT
