@<TRIPOS>MOLECULE
OWL
   45    48     1     0     0
SMALL
bcc


@<TRIPOS>ATOM
      1 C1         -0.2660    0.6390    0.5570 ca        1 OWL      0.046600
      2 C2          1.0840    0.4270    2.9890 ca        1 OWL     -0.012400
      3 C3          1.0300    1.1690    0.6830 ca        1 OWL     -0.057500
      4 C4         -0.8740   -0.0290    1.6350 ca        1 OWL     -0.057500
      5 C5         -0.1990   -0.1330    2.8510 ca        1 OWL     -0.080500
      6 C6          1.7030    1.0670    1.9010 ca        1 OWL     -0.080500
      7 C7          4.1860    0.3790    4.7490 ca        1 OWL     -0.080500
      8 C8          4.2950   -2.3790    4.2180 ca        1 OWL     -0.057500
      9 C9          3.0300   -0.3190    4.3560 ca        1 OWL     -0.012400
     10 C10         5.3930   -0.3040    4.8910 ca        1 OWL     -0.057500
     11 C11         5.4420   -1.6880    4.6440 ca        1 OWL      0.046600
     12 C12         3.0880   -1.6950    4.0790 ca        1 OWL     -0.080500
     13 N1          1.7430    0.3960    4.3050 n4        1 OWL     -0.513800
     14 C13         7.7190   -2.0440    3.8440 cc        1 OWL      0.319400
     15 N2          9.0140   -2.6190    3.7840 na        1 OWL     -0.252900
     16 N3          7.5390   -1.1000    2.8540 nd        1 OWL     -0.591000
     17 C14        -1.1730   -0.4950   -1.4030 cc        1 OWL      0.319400
     18 N4         -1.8150   -0.6310   -2.6600 na        1 OWL     -0.252900
     19 N5         -0.7410   -1.7140   -0.9210 nd        1 OWL     -0.591000
     20 N6         -0.9950    0.7850   -0.7160 n4        1 OWL     -0.575100
     21 N7          6.7090   -2.4180    4.8340 n4        1 OWL     -0.575100
     22 C15         9.6500   -2.0050    2.7260 cc        1 OWL     -0.122600
     23 C16         8.7260   -1.0730    2.1650 cd        1 OWL      0.321200
     24 C17        -1.7780   -1.9770   -2.9580 cc        1 OWL     -0.122600
     25 C18        -1.1130   -2.6270   -1.8750 cd        1 OWL      0.321200
     26 H3          1.5400    1.6710   -0.1610 ha        1 OWL      0.201000
     27 H4         -1.8770   -0.4890    1.5390 ha        1 OWL      0.201000
     28 H5         -0.7040   -0.6550    3.6850 ha        1 OWL      0.189500
     29 H6          2.7180    1.4970    1.9820 ha        1 OWL      0.189500
     30 H7          4.1740    1.4660    4.9590 ha        1 OWL      0.189500
     31 H8          4.3170   -3.4620    3.9880 ha        1 OWL      0.201000
     32 H10         6.2980    0.2630    5.1860 ha        1 OWL      0.201000
     33 H12         2.1950   -2.2580    3.7500 ha        1 OWL      0.189500
     34 HN1         1.1060   -0.0540    4.9860 hn        1 OWL      0.482800
     35 HN6        -1.9280    1.1850   -0.5160 hn        1 OWL      0.477800
     36 HN7         7.0740   -2.2020    5.7770 hn        1 OWL      0.477800
     37 H15        10.6810   -2.2460    2.4350 h4        1 OWL      0.242000
     38 H16         8.8890   -0.4060    1.3110 h4        1 OWL      0.095100
     39 H17        -2.2080   -2.3910   -3.8800 h4        1 OWL      0.242000
     40 H18        -0.9050   -3.6980   -1.7690 h4        1 OWL      0.095100
     41 HN2         9.3940   -3.3130    4.3830 hn        1 OWL      0.343700
     42 HN4        -2.2170    0.0880   -3.2130 hn        1 OWL      0.343700
     43 H121        1.8940    1.3750    4.6050 hn        1 OWL      0.482800
     44 H62        -0.4750    1.4270   -1.3360 hn        1 OWL      0.477800
     45 H72         6.5320   -3.4340    4.7630 hn        1 OWL      0.477800
@<TRIPOS>BOND
     1    1    3 ar  
     2    1    4 ar  
     3    1   20 1   
     4    2    5 ar  
     5    2    6 ar  
     6    2   13 1   
     7    3    6 ar  
     8    3   26 1   
     9    4    5 ar  
    10    4   27 1   
    11    5   28 1   
    12    6   29 1   
    13    7    9 ar  
    14    7   10 ar  
    15    7   30 1   
    16    8   11 ar  
    17    8   12 ar  
    18    8   31 1   
    19    9   12 ar  
    20    9   13 1   
    21   10   11 ar  
    22   10   32 1   
    23   11   21 1   
    24   12   33 1   
    25   13   34 1   
    26   13   43 1   
    27   14   15 1   
    28   14   16 2   
    29   14   21 1   
    30   15   22 1   
    31   15   41 1   
    32   16   23 1   
    33   17   18 1   
    34   17   19 2   
    35   17   20 1   
    36   18   24 1   
    37   18   42 1   
    38   19   25 1   
    39   20   35 1   
    40   20   44 1   
    41   21   36 1   
    42   21   45 1   
    43   22   23 2   
    44   22   37 1   
    45   23   38 1   
    46   24   25 2   
    47   24   39 1   
    48   25   40 1   
@<TRIPOS>SUBSTRUCTURE
     1 OWL         1 TEMP              0 ****  ****    0 ROOT
