@<TRIPOS>MOLECULE
OWL
   42    31     1     0     0
SMALL
bcc


@<TRIPOS>ATOM
      1 C1         -1.0220    2.0110   -3.3430 c1        1 OWL      0.003000
      2 C2          0.4040    2.2450   -0.9760 c1        1 OWL      0.031000
      3 C3         -1.6270    2.5550   -2.2210 c2        1 OWL     -0.133000
      4 C4          0.2970    1.5840   -3.2820 c1        1 OWL     -0.132000
      5 C5          1.0090    1.7010   -2.0980 c1        1 OWL     -0.152000
      6 C6         -0.9130    2.6720   -1.0360 c1        1 OWL     -0.149000
      7 C7          1.8650    0.1200    0.9410 c1        1 OWL     -0.132000
      8 C8          0.0870    0.1680    3.0690 c1        1 OWL     -0.142000
      9 C9          1.0880    1.2450    1.1690 c1        1 OWL      0.031000
     10 C10         1.7540   -0.9810    1.7770 c1        1 OWL     -0.132000
     11 C11         0.8650   -0.9570    2.8410 c1        1 OWL      0.020000
     12 C12         0.1990    1.2690    2.2330 c1        1 OWL     -0.152000
     13 N1          1.1230    2.3290    0.2490 n3        1 OWL     -0.241000
     14 C13         1.5700   -2.4340    4.6820 c1        1 OWL      0.005500
     15 N2          1.7520   -3.6550    5.2420 n2        1 OWL     -0.162750
     16 N3          2.3540   -1.5480    5.3430 n2        1 OWL     -0.162750
     17 C14        -2.4870    0.7150   -4.8440 c1        1 OWL      0.005500
     18 N4         -2.7080    0.1890   -6.0740 n2        1 OWL     -0.162750
     19 N5         -3.0990   -0.0800   -3.9320 n2        1 OWL     -0.162750
     20 N6         -1.7510    1.9000   -4.5610 n1        1 OWL     -0.194000
     21 N7          0.6670   -2.1260    3.6280 n2        1 OWL     -0.196000
     22 C15         2.6370   -3.5260    6.2360 c1        1 OWL     -0.168750
     23 C16         3.0130   -2.2110    6.2980 c1        1 OWL     -0.168750
     24 C17        -3.4470   -0.9150   -5.9250 c1        1 OWL     -0.168750
     25 C18        -3.6910   -1.0820   -4.5890 c1        1 OWL     -0.168750
     26 H3         -2.5540    2.8550   -2.2630 ha        1 OWL      0.136000
     27 H4          0.7220    1.2010   -4.0710 ha        1 OWL      0.142000
     28 H5          1.9380    1.4000   -2.0550 ha        1 OWL      0.138500
     29 H6         -1.3400    3.0560   -0.2450 ha        1 OWL      0.136000
     30 H7          2.4920    0.1030    0.1920 ha        1 OWL      0.145000
     31 H8         -0.5380    0.1860    3.8170 ha        1 OWL      0.136000
     32 H10         2.3020   -1.7730    1.6170 ha        1 OWL      0.145000
     33 H12        -0.3490    2.0620    2.3930 ha        1 OWL      0.138500
     34 HN1         1.5880    3.0860    0.4540 hn        1 OWL      0.204000
     35 HN6        -1.7330    2.5810   -5.1670 hn        1 OWL      0.210000
     36 HN7        -0.0480   -2.6700    3.4670 hn        1 OWL      0.212000
     37 H15         2.9600   -4.2440    6.8160 DU        1 OWL      0.206667
     38 H16         3.6490   -1.8250    6.9300 DU        1 OWL      0.206667
     39 H17        -3.7580   -1.5000   -6.6440 DU        1 OWL      0.206667
     40 H18        -4.2070   -1.8070   -4.1860 DU        1 OWL      0.206667
     41 HN2         1.3440   -4.4290    4.9860 DU        1 OWL      0.206667
     42 HN4        -2.4060    0.5290   -6.8650 DU        1 OWL      0.206667
@<TRIPOS>BOND
     1    1    3 1   
     2    1    4 1   
     3    2    5 1   
     4    2   13 1   
     5    3    6 1   
     6    3   26 1   
     7    4   27 1   
     8    5   28 1   
     9    6   29 1   
    10    7   10 1   
    11    7   30 1   
    12    8   11 1   
    13    8   31 1   
    14    9   12 1   
    15    9   13 1   
    16   10   32 1   
    17   11   21 1   
    18   12   33 1   
    19   13   34 1   
    20   14   15 1   
    21   14   16 1   
    22   15   22 1   
    23   16   23 1   
    24   17   18 1   
    25   17   19 1   
    26   18   24 1   
    27   19   25 1   
    28   20   35 1   
    29   21   36 1   
    30   22   23 1   
    31   24   25 1   
@<TRIPOS>SUBSTRUCTURE
     1 OWL         1 TEMP              0 ****  ****    0 ROOT
