@<TRIPOS>MOLECULE
OX1
   37    40     1     0     0
SMALL
bcc


@<TRIPOS>ATOM
      1 C1         -1.6680    1.1630   -0.9220 ca        1 OX1     -0.092000
      2 C2         -2.6900    0.5800    1.6500 ca        1 OX1     -0.120000
      3 C3         -0.9570    0.3570   -0.0430 ca        1 OX1     -0.084800
      4 C4         -2.8970    1.6860   -0.4990 ca        1 OX1     -0.132500
      5 C5         -3.4020    1.3990    0.7660 ca        1 OX1     -0.141000
      6 C6         -1.4670    0.0670    1.2450 ca        1 OX1     -0.101300
      7 C7          0.3810   -0.3040   -0.2870 c3        1 OX1      0.221400
      8 C8         -0.5370   -0.8280    2.0300 c3        1 OX1      0.216400
      9 C9          0.9540   -0.1910   -1.6860 c3        1 OX1     -0.050400
     10 O1          0.1820   -1.7460   -0.0050 os        1 OX1     -0.205800
     11 C10        -1.0730   -1.3580    3.3340 c3        1 OX1     -0.077100
     12 O2         -0.2980   -2.0120    1.1750 os        1 OX1     -0.222800
     13 C11         1.2990    0.1880    0.8170 ca        1 OX1     -0.084800
     14 C12         2.7160    0.9260    3.0950 ca        1 OX1     -0.141000
     15 C13         2.5090    0.8500    0.6780 ca        1 OX1     -0.092000
     16 C14         0.7910   -0.1080    2.1050 ca        1 OX1     -0.101300
     17 C15         1.4980    0.2530    3.2410 ca        1 OX1     -0.120000
     18 C16         3.2150    1.2220    1.8290 ca        1 OX1     -0.132500
     19 C17         0.0950   -0.8050   -2.7680 c3        1 OX1     -0.200400
     20 C18        -0.0290    0.1300   -3.9840 c         1 OX1      0.906600
     21 O3          0.1290   -0.3610   -5.1350 o         1 OX1     -0.848800
     22 O4         -0.3010    1.3520   -3.7720 o         1 OX1     -0.848800
     23 H1         -1.2700    1.3760   -1.9430 ha        1 OX1      0.190500
     24 H4         -3.0930    0.3490    2.6450 ha        1 OX1      0.121500
     25 H2         -3.4680    2.3270   -1.1870 ha        1 OX1      0.127500
     26 H3         -4.3710    1.8150    1.0790 ha        1 OX1      0.116000
     27 H12         1.0810    0.9080   -1.8980 hc        1 OX1      0.059700
     28 H13         1.9680   -0.6700   -1.6880 hc        1 OX1      0.059700
     29 H5         -0.3300   -2.0480    3.8010 hc        1 OX1      0.047700
     30 H6         -1.2750   -0.5070    4.0270 hc        1 OX1      0.047700
     31 H7         -2.0220   -1.9200    3.1540 hc        1 OX1      0.047700
     32 H9          3.2810    1.2230    3.9900 ha        1 OX1      0.116000
     33 H11         2.9050    1.0830   -0.3220 ha        1 OX1      0.190500
     34 H8          1.1080    0.0180    4.2420 ha        1 OX1      0.121500
     35 H10         4.1720    1.7540    1.7270 ha        1 OX1      0.127500
     36 H14         0.5250   -1.7840   -3.0940 hc        1 OX1      0.039700
     37 H15        -0.9380   -1.0010   -2.3830 hc        1 OX1      0.039700
@<TRIPOS>BOND
     1    1    3 ar  
     2    1    4 ar  
     3    1   23 1   
     4    2    5 ar  
     5    2    6 ar  
     6    2   24 1   
     7    3    6 ar  
     8    3    7 1   
     9    4    5 ar  
    10    4   25 1   
    11    5   26 1   
    12    6    8 1   
    13    7    9 1   
    14    7   10 1   
    15    7   13 1   
    16    8   11 1   
    17    8   12 1   
    18    8   16 1   
    19    9   19 1   
    20    9   27 1   
    21    9   28 1   
    22   10   12 1   
    23   11   29 1   
    24   11   30 1   
    25   11   31 1   
    26   13   15 ar  
    27   13   16 ar  
    28   14   17 ar  
    29   14   18 ar  
    30   14   32 1   
    31   15   18 ar  
    32   15   33 1   
    33   16   17 ar  
    34   17   34 1   
    35   18   35 1   
    36   19   20 1   
    37   19   36 1   
    38   19   37 1   
    39   20   21 1   
    40   20   22 1   
@<TRIPOS>SUBSTRUCTURE
     1 OX1         1 TEMP              0 ****  ****    0 ROOT
