@<TRIPOS>MOLECULE
OX1
   37    40     1     0     0
SMALL
bcc


@<TRIPOS>ATOM
      1 C1         -0.0210    0.0430   -0.1220 ca        1 OX1     -0.092000
      2 C2          1.3410    0.1060    2.3570 ca        1 OX1     -0.120000
      3 C3          1.3670    0.0380   -0.0750 ca        1 OX1     -0.084800
      4 C4         -0.7270    0.0890    1.0870 ca        1 OX1     -0.132500
      5 C5         -0.0580    0.1200    2.3090 ca        1 OX1     -0.141000
      6 C6          2.0490    0.0710    1.1650 ca        1 OX1     -0.101300
      7 C7          2.3210   -0.0050   -1.2480 c3        1 OX1      0.221400
      8 C8          3.5480    0.0540    0.9830 c3        1 OX1      0.216400
      9 C9          1.7090   -0.1970   -2.6210 c3        1 OX1     -0.050400
     10 O1          3.2230   -1.1550   -0.9990 os        1 OX1     -0.205800
     11 C10         4.3650   -0.1130    2.2390 c3        1 OX1     -0.077100
     12 O2          3.8400   -1.1310    0.1460 os        1 OX1     -0.222800
     13 C11         3.2050    1.2220   -1.1130 ca        1 OX1     -0.084800
     14 C12         4.9340    3.3180   -0.5090 ca        1 OX1     -0.141000
     15 C13         3.3880    2.2390   -2.0380 ca        1 OX1     -0.092000
     16 C14         3.8910    1.2520    0.1260 ca        1 OX1     -0.101300
     17 C15         4.7570    2.2910    0.4260 ca        1 OX1     -0.120000
     18 C16         4.2560    3.2920   -1.7250 ca        1 OX1     -0.132500
     19 C17         0.9410   -1.4880   -2.7900 c3        1 OX1     -0.200400
     20 C18        -0.4120   -1.2480   -3.4850 c         1 OX1      0.906600
     21 O3         -0.7460   -2.0190   -4.4260 o         1 OX1     -0.848800
     22 O4         -1.1380   -0.2940   -3.0650 o         1 OX1     -0.848800
     23 H1         -0.5540   -0.0000   -1.1010 ha        1 OX1      0.190500
     24 H4          1.8660    0.1220    3.3210 ha        1 OX1      0.121500
     25 H2         -1.8270    0.0960    1.0620 ha        1 OX1      0.127500
     26 H3         -0.6300    0.1520    3.2470 ha        1 OX1      0.116000
     27 H12         1.0100    0.6700   -2.7900 hc        1 OX1      0.059700
     28 H13         2.5300   -0.1410   -3.3810 hc        1 OX1      0.059700
     29 H5          5.4500   -0.1670    1.9840 hc        1 OX1      0.047700
     30 H6          4.1870    0.7560    2.9170 hc        1 OX1      0.047700
     31 H7          4.0700   -1.0550    2.7600 hc        1 OX1      0.047700
     32 H9          5.6130    4.1500   -0.2770 ha        1 OX1      0.116000
     33 H11         2.8540    2.2190   -3.0000 ha        1 OX1      0.190500
     34 H8          5.2960    2.3120    1.3840 ha        1 OX1      0.121500
     35 H10         4.4010    4.1060   -2.4500 ha        1 OX1      0.127500
     36 H14         1.5400   -2.2190   -3.3870 hc        1 OX1      0.039700
     37 H15         0.7330   -1.9540   -1.7940 hc        1 OX1      0.039700
@<TRIPOS>BOND
     1    1    3 ar  
     2    1    4 ar  
     3    1   23 1   
     4    2    5 ar  
     5    2    6 ar  
     6    2   24 1   
     7    3    6 ar  
     8    3    7 1   
     9    4    5 ar  
    10    4   25 1   
    11    5   26 1   
    12    6    8 1   
    13    7    9 1   
    14    7   10 1   
    15    7   13 1   
    16    8   11 1   
    17    8   12 1   
    18    8   16 1   
    19    9   19 1   
    20    9   27 1   
    21    9   28 1   
    22   10   12 1   
    23   11   29 1   
    24   11   30 1   
    25   11   31 1   
    26   13   15 ar  
    27   13   16 ar  
    28   14   17 ar  
    29   14   18 ar  
    30   14   32 1   
    31   15   18 ar  
    32   15   33 1   
    33   16   17 ar  
    34   17   34 1   
    35   18   35 1   
    36   19   20 1   
    37   19   36 1   
    38   19   37 1   
    39   20   21 1   
    40   20   22 1   
@<TRIPOS>SUBSTRUCTURE
     1 OX1         1 TEMP              0 ****  ****    0 ROOT
