@<TRIPOS>MOLECULE
OX1
   37    40     1     0     0
SMALL
bcc


@<TRIPOS>ATOM
      1 C1         -0.0240    0.0590   -0.1260 ca        1 OX1     -0.092000
      2 C2          1.3300    0.1320    2.3560 ca        1 OX1     -0.120000
      3 C3          1.3640    0.0460   -0.0750 ca        1 OX1     -0.084800
      4 C4         -0.7340    0.1180    1.0800 ca        1 OX1     -0.132500
      5 C5         -0.0690    0.1530    2.3030 ca        1 OX1     -0.141000
      6 C6          2.0410    0.0840    1.1670 ca        1 OX1     -0.101300
      7 C7          2.3210   -0.0110   -1.2440 c3        1 OX1      0.221400
      8 C8          3.5410    0.0560    0.9900 c3        1 OX1      0.216400
      9 C9          1.7120   -0.2100   -2.6180 c3        1 OX1     -0.050400
     10 O1          3.2150   -1.1650   -0.9850 os        1 OX1     -0.205800
     11 C10         4.3530   -0.1070    2.2490 c3        1 OX1     -0.077100
     12 O2          3.8290   -1.1360    0.1620 os        1 OX1     -0.222800
     13 C11         3.2120    1.2100   -1.1150 ca        1 OX1     -0.084800
     14 C12         4.9520    3.3000   -0.5210 ca        1 OX1     -0.141000
     15 C13         3.4040    2.2200   -2.0470 ca        1 OX1     -0.092000
     16 C14         3.8950    1.2450    0.1250 ca        1 OX1     -0.101300
     17 C15         4.7660    2.2820    0.4210 ca        1 OX1     -0.120000
     18 C16         4.2780    3.2700   -1.7390 ca        1 OX1     -0.132500
     19 C17         0.9370   -1.4970   -2.7810 c3        1 OX1     -0.200400
     20 C18        -0.4130   -1.2540   -3.4810 c         1 OX1      0.906600
     21 O3         -0.7480   -2.0300   -4.4170 o         1 OX1     -0.848800
     22 O4         -1.1340   -0.2930   -3.0710 o         1 OX1     -0.848800
     23 H1         -0.5540    0.0120   -1.1070 ha        1 OX1      0.190500
     24 H4          1.8520    0.1510    3.3220 ha        1 OX1      0.121500
     25 H2         -1.8330    0.1310    1.0510 ha        1 OX1      0.127500
     26 H3         -0.6430    0.1950    3.2400 ha        1 OX1      0.116000
     27 H12         1.0190    0.6610   -2.7960 hc        1 OX1      0.059700
     28 H13         2.5370   -0.1640   -3.3760 hc        1 OX1      0.059700
     29 H5          4.0500   -1.0430    2.7770 hc        1 OX1      0.047700
     30 H6          4.1780    0.7680    2.9200 hc        1 OX1      0.047700
     31 H7          5.4390   -0.1700    1.9990 hc        1 OX1      0.047700
     32 H9          5.6360    4.1300   -0.2930 ha        1 OX1      0.116000
     33 H11         2.8730    2.1960   -3.0110 ha        1 OX1      0.190500
     34 H8          5.3020    2.3060    1.3800 ha        1 OX1      0.121500
     35 H10         4.4300    4.0780   -2.4700 ha        1 OX1      0.127500
     36 H14         1.5330   -2.2360   -3.3710 hc        1 OX1      0.039700
     37 H15         0.7230   -1.9540   -1.7810 hc        1 OX1      0.039700
@<TRIPOS>BOND
     1    1    3 ar  
     2    1    4 ar  
     3    1   23 1   
     4    2    5 ar  
     5    2    6 ar  
     6    2   24 1   
     7    3    6 ar  
     8    3    7 1   
     9    4    5 ar  
    10    4   25 1   
    11    5   26 1   
    12    6    8 1   
    13    7    9 1   
    14    7   10 1   
    15    7   13 1   
    16    8   11 1   
    17    8   12 1   
    18    8   16 1   
    19    9   19 1   
    20    9   27 1   
    21    9   28 1   
    22   10   12 1   
    23   11   29 1   
    24   11   30 1   
    25   11   31 1   
    26   13   15 ar  
    27   13   16 ar  
    28   14   17 ar  
    29   14   18 ar  
    30   14   32 1   
    31   15   18 ar  
    32   15   33 1   
    33   16   17 ar  
    34   17   34 1   
    35   18   35 1   
    36   19   20 1   
    37   19   36 1   
    38   19   37 1   
    39   20   21 1   
    40   20   22 1   
@<TRIPOS>SUBSTRUCTURE
     1 OX1         1 TEMP              0 ****  ****    0 ROOT
