@<TRIPOS>MOLECULE
OX2
   31    31     1     0     0
SMALL
bcc


@<TRIPOS>ATOM
      1 C1         -0.2140   -0.5110   -0.2100 c3        1 OX2      0.119000
      2 C2          1.3050   -0.5200   -0.1680 c3        1 OX2      0.016000
      3 O2          1.7730   -1.6640   -0.8510 oh        1 OX2     -0.319000
      4 C3          1.8320   -0.5410    1.2290 c3        1 OX2     -0.043000
      5 O3          3.2890   -0.3680    1.1920 oh        1 OX2     -0.328000
      6 C4          1.2400    0.5360    2.0710 c3        1 OX2     -0.027000
      7 O4          1.6380    0.3400    3.4020 oh        1 OX2     -0.319000
      8 C5         -0.2980    0.5460    2.0110 c3        1 OX2     -0.010000
      9 O5         -0.8050    0.5630    0.6450 os        1 OX2     -0.267000
     10 C6         -0.7930    1.7500    2.7210 c3        1 OX2     -0.010000
     11 O6         -2.1820    1.7440    2.7350 oh        1 OX2     -0.320000
     12 N1         -1.0220    0.6060   -3.5710 n2        1 OX2     -0.091000
     13 N2         -0.4150    0.7820   -2.3770 n2        1 OX2     -0.060000
     14 C7         -0.6600   -0.3040   -1.6200 c2        1 OX2     -0.030000
     15 O7         -1.4170   -1.1490   -2.3430 os        1 OX2     -0.127000
     16 C8         -1.6380   -0.5790   -3.5540 c1        1 OX2     -0.019000
     17 C9         -2.4200   -1.1990   -4.7130 c2        1 OX2     -0.150000
     18 H1         -0.5430   -1.3840    0.1010 h1        1 OX2      0.125000
     19 H2          1.6620    0.3310   -0.6520 h1        1 OX2      0.125000
     20 HO2         2.3570   -1.4310   -1.4310 ho        1 OX2      0.226000
     21 H3          1.6280   -1.4000    1.6280 h1        1 OX2      0.106000
     22 HO3         3.7100   -1.1160    1.6110 ho        1 OX2      0.210000
     23 H4          1.5780    1.4020    1.7630 h1        1 OX2      0.108000
     24 HO4         2.1660    1.0440    3.6720 ho        1 OX2      0.208000
     25 H5         -0.6400   -0.2540    2.4650 h1        1 OX2      0.112000
     26 H61        -0.4690    2.5670    2.2510 h1        1 OX2      0.104000
     27 H62        -0.4590    1.7480    3.6360 h1        1 OX2      0.104000
     28 HO6        -2.4880    2.4540    3.2400 ho        1 OX2      0.212000
     29 H91        -3.2880   -1.3970   -4.4330 ha        1 OX2      0.114333
     30 H92        -2.4540   -0.5770   -5.4460 ha        1 OX2      0.114333
     31 H93        -1.9750   -2.0180   -5.0030 ha        1 OX2      0.114333
@<TRIPOS>BOND
     1    1    2 1   
     2    1    9 1   
     3    1   14 1   
     4    1   18 1   
     5    2    3 1   
     6    2    4 1   
     7    2   19 1   
     8    3   20 1   
     9    4    5 1   
    10    4    6 1   
    11    4   21 1   
    12    5   22 1   
    13    6    7 1   
    14    6    8 1   
    15    6   23 1   
    16    7   24 1   
    17    8    9 1   
    18    8   10 1   
    19    8   25 1   
    20   10   11 1   
    21   10   26 1   
    22   10   27 1   
    23   11   28 1   
    24   12   13 1   
    25   12   16 1   
    26   13   14 1   
    27   14   15 1   
    28   15   16 1   
    29   17   29 1   
    30   17   30 1   
    31   17   31 1   
@<TRIPOS>SUBSTRUCTURE
     1 OX2         1 TEMP              0 ****  ****    0 ROOT
