@<TRIPOS>MOLECULE
OX2
   31    32     1     0     0
SMALL
bcc


@<TRIPOS>ATOM
      1 C1          0.2120   -0.4830   -0.4430 c3        1 OX2      0.101800
      2 C2         -0.4940   -1.6630    0.2530 c3        1 OX2      0.093100
      3 O2         -0.0380   -2.9010   -0.2590 oh        1 OX2     -0.603800
      4 C3         -1.9970   -1.6120   -0.0730 c3        1 OX2      0.105100
      5 O3         -2.7080   -2.5660    0.6950 oh        1 OX2     -0.603800
      6 C4         -2.5710   -0.2350    0.2980 c3        1 OX2      0.123100
      7 O4         -3.9080   -0.1170   -0.1530 oh        1 OX2     -0.593800
      8 C5         -1.7570    0.8610   -0.4040 c3        1 OX2      0.099100
      9 O5         -0.3770    0.7570   -0.0400 os        1 OX2     -0.412600
     10 C6         -2.1960    2.2540    0.0570 c3        1 OX2      0.141400
     11 O6         -1.5590    3.2640   -0.6920 oh        1 OX2     -0.593800
     12 N1          3.6640   -0.6460    0.7180 nc        1 OX2     -0.348000
     13 N2          2.4400   -1.1480    0.7240 nc        1 OX2     -0.355000
     14 C7          1.6490   -0.3940   -0.0640 cd        1 OX2      0.447700
     15 O7          2.4040    0.6550   -0.6050 os        1 OX2     -0.372800
     16 C8          3.6880    0.4480   -0.0710 cd        1 OX2      0.468700
     17 C9          4.7450    1.3990   -0.4450 c3        1 OX2     -0.128400
     18 H1          0.1380   -0.5950   -1.5630 h1        1 OX2      0.083700
     19 H2         -0.3410   -1.6040    1.3660 h1        1 OX2      0.080700
     20 HO2         0.8080   -3.1000    0.1630 ho        1 OX2      0.432000
     21 H3         -2.1550   -1.8170   -1.1690 h1        1 OX2      0.065700
     22 HO3        -2.3110   -3.4260    0.5020 ho        1 OX2      0.428000
     23 H4         -2.5300   -0.1000    1.4150 h1        1 OX2      0.064700
     24 HO4        -4.3880   -0.8690    0.2200 ho        1 OX2      0.427000
     25 H5         -1.8620    0.7700   -1.5200 h1        1 OX2      0.073700
     26 H61        -3.2950    2.3740   -0.1460 h1        1 OX2      0.067200
     27 H62        -1.9840    2.3800    1.1520 h1        1 OX2      0.067200
     28 HO6        -0.6080    3.1690   -0.5450 ho        1 OX2      0.411000
     29 H91         4.3450    2.1580   -1.1620 hc        1 OX2      0.077367
     30 H92         5.1220    1.9200    0.4710 hc        1 OX2      0.077367
     31 H93         5.5950    0.8500   -0.9230 hc        1 OX2      0.077367
@<TRIPOS>BOND
     1    1    2 1   
     2    1    9 1   
     3    1   14 1   
     4    1   18 1   
     5    2    3 1   
     6    2    4 1   
     7    2   19 1   
     8    3   20 1   
     9    4    5 1   
    10    4    6 1   
    11    4   21 1   
    12    5   22 1   
    13    6    7 1   
    14    6    8 1   
    15    6   23 1   
    16    7   24 1   
    17    8    9 1   
    18    8   10 1   
    19    8   25 1   
    20   10   11 1   
    21   10   26 1   
    22   10   27 1   
    23   11   28 1   
    24   12   13 1   
    25   12   16 2   
    26   13   14 2   
    27   14   15 1   
    28   15   16 1   
    29   16   17 1   
    30   17   29 1   
    31   17   30 1   
    32   17   31 1   
@<TRIPOS>SUBSTRUCTURE
     1 OX2         1 TEMP              0 ****  ****    0 ROOT
