@<TRIPOS>MOLECULE
OX3
   35    36     1     0     0
SMALL
bcc


@<TRIPOS>ATOM
      1 C1          0.0410    0.2080   -0.1070 ca        1 OX3      0.141100
      2 O1         -0.5100    0.2740   -1.3640 oh        1 OX3     -0.494100
      3 C2          1.4310    0.4010   -0.0220 ca        1 OX3     -0.194500
      4 C3          2.0440    0.3460    1.2220 ca        1 OX3     -0.061500
      5 C4          1.2930    0.1020    2.3850 ca        1 OX3     -0.176900
      6 C5         -0.0910   -0.0880    2.2840 ca        1 OX3     -0.061500
      7 C6         -0.7210   -0.0360    1.0440 ca        1 OX3     -0.194500
      8 C7          2.0040    0.0570    3.6640 ce        1 OX3      0.421800
      9 N8          1.3950   -0.1630    4.7990 n2        1 OX3     -0.407200
     10 O9          2.2190   -0.1640    5.8490 os        1 OX3     -0.238600
     11 C10         1.6960   -0.3890    7.1280 c         1 OX3      0.655100
     12 O10         0.5030   -0.5840    7.3100 o         1 OX3     -0.479000
     13 C11         2.8180   -0.3420    8.1360 c3        1 OX3     -0.110700
     14 C12         2.9110   -1.6880    8.8430 c3        1 OX3     -0.074400
     15 C13         3.9700   -1.6530    9.9250 c3        1 OX3     -0.076400
     16 C14         3.7140   -0.5330   10.9130 c3        1 OX3     -0.080400
     17 C15         3.6110    0.8050   10.2110 c3        1 OX3     -0.076400
     18 C16         2.5500    0.7820    9.1300 c3        1 OX3     -0.074400
     19 HO1        -1.4640    0.1250   -1.2820 ho        1 OX3      0.422000
     20 H2          2.0100    0.5910   -0.9370 ha        1 OX3      0.146000
     21 H3          3.1330    0.4960    1.2950 ha        1 OX3      0.147500
     22 H5         -0.6950   -0.2800    3.1860 ha        1 OX3      0.147500
     23 H6         -1.8070   -0.1850    0.9680 ha        1 OX3      0.146000
     24 H7          3.1010    0.2250    3.6000 h4        1 OX3      0.001800
     25 H11         3.7880   -0.1380    7.6010 hc        1 OX3      0.081700
     26 H121        3.1600   -2.4860    8.0960 hc        1 OX3      0.056200
     27 H122        1.9130   -1.9390    9.2920 hc        1 OX3      0.056200
     28 H131        3.9780   -2.6360   10.4650 hc        1 OX3      0.044200
     29 H132        4.9800   -1.5150    9.4570 hc        1 OX3      0.044200
     30 H141        4.5440   -0.4990   11.6650 hc        1 OX3      0.044700
     31 H142        2.7610   -0.7370   11.4700 hc        1 OX3      0.044700
     32 H151        4.6030    1.0670    9.7570 hc        1 OX3      0.044200
     33 H152        3.3590    1.6040   10.9570 hc        1 OX3      0.044200
     34 H161        1.5380    0.6340    9.5910 hc        1 OX3      0.056200
     35 H162        2.5390    1.7640    8.5890 hc        1 OX3      0.056200
@<TRIPOS>BOND
     1    1    2 1   
     2    1    3 ar  
     3    1    7 ar  
     4    2   19 1   
     5    3    4 ar  
     6    3   20 1   
     7    4    5 ar  
     8    4   21 1   
     9    5    6 ar  
    10    5    8 1   
    11    6    7 ar  
    12    6   22 1   
    13    7   23 1   
    14    8    9 2   
    15    8   24 1   
    16    9   10 1   
    17   10   11 1   
    18   11   12 2   
    19   11   13 1   
    20   13   14 1   
    21   13   18 1   
    22   13   25 1   
    23   14   15 1   
    24   14   26 1   
    25   14   27 1   
    26   15   16 1   
    27   15   28 1   
    28   15   29 1   
    29   16   17 1   
    30   16   30 1   
    31   16   31 1   
    32   17   18 1   
    33   17   32 1   
    34   17   33 1   
    35   18   34 1   
    36   18   35 1   
@<TRIPOS>SUBSTRUCTURE
     1 OX3         1 TEMP              0 ****  ****    0 ROOT
