@<TRIPOS>MOLECULE
OX3
   35    36     1     0     0
SMALL
bcc


@<TRIPOS>ATOM
      1 C1         -0.9830    6.4880    3.3640 ca        1 OX3      0.140100
      2 O1         -0.6440    7.5490    4.1680 oh        1 OX3     -0.493100
      3 C2         -2.1510    6.4700    2.5860 ca        1 OX3     -0.194500
      4 C3         -2.4250    5.3590    1.7970 ca        1 OX3     -0.062000
      5 C4         -1.5470    4.2650    1.7730 ca        1 OX3     -0.175900
      6 C5         -0.3820    4.2970    2.5550 ca        1 OX3     -0.062000
      7 C6         -0.0940    5.4010    3.3500 ca        1 OX3     -0.194500
      8 C7         -1.8910    3.1260    0.9210 ce        1 OX3      0.420800
      9 N8         -1.1400    2.0610    0.8300 n2        1 OX3     -0.405200
     10 O9         -1.6290    1.1370    0.0010 os        1 OX3     -0.238600
     11 C10        -0.9210   -0.0560   -0.1880 c         1 OX3      0.654100
     12 O10         0.1360   -0.2740    0.3860 o         1 OX3     -0.478000
     13 C11        -1.6740   -0.9280   -1.1620 c3        1 OX3     -0.110700
     14 C12        -2.0530   -2.2330   -0.4730 c3        1 OX3     -0.074400
     15 C13        -2.7340   -3.1740   -1.4450 c3        1 OX3     -0.076400
     16 C14        -1.8730   -3.4290   -2.6640 c3        1 OX3     -0.080400
     17 C15        -1.4870   -2.1310   -3.3440 c3        1 OX3     -0.076400
     18 C16        -0.7980   -1.1860   -2.3820 c3        1 OX3     -0.074400
     19 HO1        -1.3350    8.2230    4.0840 ho        1 OX3      0.421000
     20 H2         -2.8410    7.3250    2.6020 ha        1 OX3      0.146000
     21 H3         -3.3410    5.3430    1.1860 ha        1 OX3      0.147500
     22 H5          0.3170    3.4450    2.5460 ha        1 OX3      0.147500
     23 H6          0.8160    5.4360    3.9670 ha        1 OX3      0.146000
     24 H7         -2.8420    3.2320    0.3540 h4        1 OX3      0.000800
     25 H11        -2.6120   -0.3970   -1.4860 hc        1 OX3      0.081700
     26 H121       -2.7380   -2.0170    0.3880 hc        1 OX3      0.056450
     27 H122       -1.1270   -2.7150   -0.0600 hc        1 OX3      0.056450
     28 H131       -3.7160   -2.7350   -1.7650 hc        1 OX3      0.043700
     29 H132       -2.9520   -4.1440   -0.9280 hc        1 OX3      0.043700
     30 H141       -0.9450   -3.9800   -2.3570 hc        1 OX3      0.044700
     31 H142       -2.4290   -4.0800   -3.3870 hc        1 OX3      0.044700
     32 H151       -0.7990   -2.3470   -4.2040 hc        1 OX3      0.043700
     33 H152       -2.4050   -1.6400   -3.7610 hc        1 OX3      0.043700
     34 H161        0.1790   -1.6240   -2.0490 hc        1 OX3      0.056450
     35 H162       -0.5800   -0.2150   -2.8970 hc        1 OX3      0.056450
@<TRIPOS>BOND
     1    1    2 1   
     2    1    3 ar  
     3    1    7 ar  
     4    2   19 1   
     5    3    4 ar  
     6    3   20 1   
     7    4    5 ar  
     8    4   21 1   
     9    5    6 ar  
    10    5    8 1   
    11    6    7 ar  
    12    6   22 1   
    13    7   23 1   
    14    8    9 2   
    15    8   24 1   
    16    9   10 1   
    17   10   11 1   
    18   11   12 2   
    19   11   13 1   
    20   13   14 1   
    21   13   18 1   
    22   13   25 1   
    23   14   15 1   
    24   14   26 1   
    25   14   27 1   
    26   15   16 1   
    27   15   28 1   
    28   15   29 1   
    29   16   17 1   
    30   16   30 1   
    31   16   31 1   
    32   17   18 1   
    33   17   32 1   
    34   17   33 1   
    35   18   34 1   
    36   18   35 1   
@<TRIPOS>SUBSTRUCTURE
     1 OX3         1 TEMP              0 ****  ****    0 ROOT
