@<TRIPOS>MOLECULE
OX3
   35    32     1     0     0
SMALL
bcc


@<TRIPOS>ATOM
      1 C1         -1.0400    3.5180   -3.7050 c1        1 OX3      0.096000
      2 O1         -1.9650    3.8260   -4.7230 o         1 OX3     -0.247000
      3 C2         -0.0750    2.5150   -3.9110 c2        1 OX3     -0.168000
      4 C3          0.8380    2.2070   -2.9030 c1        1 OX3     -0.062000
      5 C4          0.7970    2.8860   -1.7020 c1        1 OX3     -0.117000
      6 C5         -0.1710    3.8930   -1.4930 c1        1 OX3     -0.065000
      7 C6         -1.0820    4.2010   -2.4980 c1        1 OX3     -0.221000
      8 C7          1.9140    2.6740   -0.6620 c2        1 OX3     -0.075000
      9 N8          1.8260    1.7000    0.2000 n1        1 OX3     -0.020000
     10 O9          0.7450    0.8690    0.1760 o         1 OX3     -0.267000
     11 C10         0.7280    0.0410    1.3630 c2        1 OX3      0.324000
     12 O10         1.2500    0.4370    2.3910 o         1 OX3     -0.267000
     13 C11         0.0760   -1.3400    1.3210 c3        1 OX3     -0.100000
     14 C12        -0.8560   -1.5720    2.5470 c3        1 OX3     -0.153000
     15 C13        -1.4300   -2.9640    2.6010 c3        1 OX3     -0.155000
     16 C14        -0.3720   -4.0450    2.5090 c3        1 OX3     -0.159000
     17 C15         0.5390   -3.8770    1.3460 c3        1 OX3     -0.155000
     18 C16         1.1480   -2.4750    1.2700 c3        1 OX3     -0.153000
     19 HO1        -2.7430    3.4120   -4.5570 ho        1 OX3      0.221000
     20 H2         -0.0460    2.0390   -4.7490 ha        1 OX3      0.153000
     21 H3          1.5050    1.5140   -3.0460 ha        1 OX3      0.152000
     22 H5         -0.2010    4.3670   -0.6540 ha        1 OX3      0.136000
     23 H6         -1.7850    4.9280   -2.3470 ha        1 OX3      0.137000
     24 H7          2.6960    3.2760   -0.6490 h4        1 OX3      0.162000
     25 H11        -0.4580   -1.2850    0.4480 hc        1 OX3      0.118000
     26 H121       -1.6030   -0.9220    2.5070 hc        1 OX3      0.096000
     27 H122       -0.3570   -1.4160    3.3450 hc        1 OX3      0.096000
     28 H131       -1.9350   -3.0730    3.4760 hc        1 OX3      0.083500
     29 H132       -2.0530   -3.0740    1.8650 hc        1 OX3      0.083500
     30 H141        0.1770   -4.0280    3.3490 hc        1 OX3      0.084000
     31 H142       -0.8040   -4.8930    2.4400 hc        1 OX3      0.084000
     32 H151        0.0360   -4.0540    0.5150 hc        1 OX3      0.083500
     33 H152        1.2690   -4.5380    1.4220 hc        1 OX3      0.083500
     34 H161        1.7980   -2.3540    2.0540 hc        1 OX3      0.096000
     35 H162        1.6340   -2.3950    0.4540 hc        1 OX3      0.096000
@<TRIPOS>BOND
     1    1    3 1   
     2    1    7 1   
     3    2   19 1   
     4    3    4 1   
     5    3   20 1   
     6    4   21 1   
     7    5    6 1   
     8    5    8 1   
     9    6   22 1   
    10    7   23 1   
    11    8    9 1   
    12    8   24 1   
    13   10   11 1   
    14   11   12 1   
    15   11   13 1   
    16   13   14 1   
    17   13   18 1   
    18   13   25 1   
    19   14   15 1   
    20   14   26 1   
    21   14   27 1   
    22   15   16 1   
    23   15   28 1   
    24   15   29 1   
    25   16   17 1   
    26   16   30 1   
    27   16   31 1   
    28   17   18 1   
    29   17   32 1   
    30   17   33 1   
    31   18   34 1   
    32   18   35 1   
@<TRIPOS>SUBSTRUCTURE
     1 OX3         1 TEMP              0 ****  ****    0 ROOT
