@<TRIPOS>MOLECULE
OX3
   35    36     1     0     0
SMALL
bcc


@<TRIPOS>ATOM
      1 C1          0.0520    0.2090   -0.1060 ca        1 OX3      0.141100
      2 O1         -0.4980    0.2820   -1.3630 oh        1 OX3     -0.494100
      3 C2          1.4510    0.3240   -0.0270 ca        1 OX3     -0.194500
      4 C3          2.0640    0.2580    1.2170 ca        1 OX3     -0.061500
      5 C4          1.3040    0.0790    2.3860 ca        1 OX3     -0.176900
      6 C5         -0.0900   -0.0330    2.2910 ca        1 OX3     -0.061500
      7 C6         -0.7200    0.0310    1.0510 ca        1 OX3     -0.194500
      8 C7          2.0140    0.0180    3.6640 ce        1 OX3      0.421800
      9 N8          1.3970   -0.1450    4.8040 n2        1 OX3     -0.407200
     10 O9          2.2230   -0.1730    5.8520 os        1 OX3     -0.238600
     11 C10         1.6920   -0.3440    7.1370 c         1 OX3      0.655100
     12 O10         0.4900   -0.4700    7.3240 o         1 OX3     -0.479000
     13 C11         2.8170   -0.3410    8.1420 c3        1 OX3     -0.110700
     14 C12         2.8380   -1.6780    8.8720 c3        1 OX3     -0.074400
     15 C13         3.9000   -1.6810    9.9520 c3        1 OX3     -0.076400
     16 C14         3.7080   -0.5310   10.9200 c3        1 OX3     -0.080400
     17 C15         3.6770    0.7970   10.1940 c3        1 OX3     -0.076400
     18 C16         2.6140    0.8140    9.1150 c3        1 OX3     -0.074400
     19 HO1        -1.4590    0.1900   -1.2760 ho        1 OX3      0.422000
     20 H2          2.0370    0.4630   -0.9460 ha        1 OX3      0.146000
     21 H3          3.1590    0.3470    1.2840 ha        1 OX3      0.147500
     22 H5         -0.7010   -0.1730    3.1980 ha        1 OX3      0.147500
     23 H6         -1.8130   -0.0570    0.9810 ha        1 OX3      0.146000
     24 H7          3.1190    0.1210    3.5940 h4        1 OX3      0.001800
     25 H11         3.7950   -0.2000    7.6010 hc        1 OX3      0.081700
     26 H121        1.8300   -1.8660    9.3270 hc        1 OX3      0.056200
     27 H122        3.0410   -2.5020    8.1390 hc        1 OX3      0.056200
     28 H131        3.8570   -2.6530   10.5090 hc        1 OX3      0.044200
     29 H132        4.9150   -1.6070    9.4800 hc        1 OX3      0.044200
     30 H141        4.5420   -0.5290   11.6700 hc        1 OX3      0.044700
     31 H142        2.7480   -0.6730   11.4820 hc        1 OX3      0.044700
     32 H151        3.4720    1.6220   10.9250 hc        1 OX3      0.044200
     33 H152        4.6810    0.9970    9.7340 hc        1 OX3      0.044200
     34 H161        1.5960    0.7290    9.5800 hc        1 OX3      0.056200
     35 H162        2.6550    1.7850    8.5570 hc        1 OX3      0.056200
@<TRIPOS>BOND
     1    1    2 1   
     2    1    3 ar  
     3    1    7 ar  
     4    2   19 1   
     5    3    4 ar  
     6    3   20 1   
     7    4    5 ar  
     8    4   21 1   
     9    5    6 ar  
    10    5    8 1   
    11    6    7 ar  
    12    6   22 1   
    13    7   23 1   
    14    8    9 2   
    15    8   24 1   
    16    9   10 1   
    17   10   11 1   
    18   11   12 2   
    19   11   13 1   
    20   13   14 1   
    21   13   18 1   
    22   13   25 1   
    23   14   15 1   
    24   14   26 1   
    25   14   27 1   
    26   15   16 1   
    27   15   28 1   
    28   15   29 1   
    29   16   17 1   
    30   16   30 1   
    31   16   31 1   
    32   17   18 1   
    33   17   32 1   
    34   17   33 1   
    35   18   34 1   
    36   18   35 1   
@<TRIPOS>SUBSTRUCTURE
     1 OX3         1 TEMP              0 ****  ****    0 ROOT
