@<TRIPOS>MOLECULE
OX3
   35    36     1     0     0
SMALL
bcc


@<TRIPOS>ATOM
      1 C1          0.0610    0.2230   -0.1080 ca        1 OX3      0.141100
      2 O1         -0.4860    0.2990   -1.3660 oh        1 OX3     -0.494100
      3 C2          1.4610    0.3320   -0.0270 ca        1 OX3     -0.194500
      4 C3          2.0720    0.2630    1.2180 ca        1 OX3     -0.061500
      5 C4          1.3090    0.0860    2.3850 ca        1 OX3     -0.176900
      6 C5         -0.0840   -0.0210    2.2880 ca        1 OX3     -0.061500
      7 C6         -0.7120    0.0470    1.0470 ca        1 OX3     -0.194500
      8 C7          2.0180    0.0210    3.6640 ce        1 OX3      0.421800
      9 N8          1.3990   -0.1410    4.8030 n2        1 OX3     -0.407200
     10 O9          2.2230   -0.1730    5.8530 os        1 OX3     -0.238600
     11 C10         1.6890   -0.3440    7.1360 c         1 OX3      0.655100
     12 O10         0.4860   -0.4640    7.3220 o         1 OX3     -0.479000
     13 C11         2.8130   -0.3460    8.1420 c3        1 OX3     -0.110700
     14 C12         2.8290   -1.6840    8.8710 c3        1 OX3     -0.074400
     15 C13         3.8890   -1.6920    9.9520 c3        1 OX3     -0.076400
     16 C14         3.7000   -0.5440   10.9210 c3        1 OX3     -0.080400
     17 C15         3.6750    0.7860   10.1970 c3        1 OX3     -0.076400
     18 C16         2.6130    0.8080    9.1180 c3        1 OX3     -0.074400
     19 HO1        -1.4470    0.2110   -1.2800 ho        1 OX3      0.422000
     20 H2          2.0490    0.4700   -0.9460 ha        1 OX3      0.146000
     21 H3          3.1670    0.3470    1.2860 ha        1 OX3      0.147500
     22 H5         -0.6980   -0.1590    3.1940 ha        1 OX3      0.147500
     23 H6         -1.8060   -0.0370    0.9750 ha        1 OX3      0.146000
     24 H7          3.1230    0.1210    3.5960 h4        1 OX3      0.001800
     25 H11         3.7930   -0.2080    7.6040 hc        1 OX3      0.081700
     26 H121        3.0300   -2.5070    8.1370 hc        1 OX3      0.056200
     27 H122        1.8190   -1.8690    9.3250 hc        1 OX3      0.056200
     28 H131        3.8420   -2.6650   10.5070 hc        1 OX3      0.044200
     29 H132        4.9050   -1.6220    9.4820 hc        1 OX3      0.044200
     30 H141        4.5320   -0.5460   11.6730 hc        1 OX3      0.044700
     31 H142        2.7390   -0.6830   11.4820 hc        1 OX3      0.044700
     32 H151        4.6800    0.9830    9.7390 hc        1 OX3      0.044200
     33 H152        3.4710    1.6100   10.9300 hc        1 OX3      0.044200
     34 H161        1.5940    0.7260    9.5810 hc        1 OX3      0.056200
     35 H162        2.6580    1.7800    8.5610 hc        1 OX3      0.056200
@<TRIPOS>BOND
     1    1    2 1   
     2    1    3 ar  
     3    1    7 ar  
     4    2   19 1   
     5    3    4 ar  
     6    3   20 1   
     7    4    5 ar  
     8    4   21 1   
     9    5    6 ar  
    10    5    8 1   
    11    6    7 ar  
    12    6   22 1   
    13    7   23 1   
    14    8    9 2   
    15    8   24 1   
    16    9   10 1   
    17   10   11 1   
    18   11   12 2   
    19   11   13 1   
    20   13   14 1   
    21   13   18 1   
    22   13   25 1   
    23   14   15 1   
    24   14   26 1   
    25   14   27 1   
    26   15   16 1   
    27   15   28 1   
    28   15   29 1   
    29   16   17 1   
    30   16   30 1   
    31   16   31 1   
    32   17   18 1   
    33   17   32 1   
    34   17   33 1   
    35   18   34 1   
    36   18   35 1   
@<TRIPOS>SUBSTRUCTURE
     1 OX3         1 TEMP              0 ****  ****    0 ROOT
