@<TRIPOS>MOLECULE
OX4
   35    36     1     0     0
SMALL
bcc


@<TRIPOS>ATOM
      1 O1          0.4770   -0.1520   -0.2880 oh        1 OX4     -0.478100
      2 C1          1.8400   -0.0660   -0.1660 ca        1 OX4      0.112100
      3 C2          2.3430    0.2720    1.1180 ca        1 OX4      0.093900
      4 F2          1.4960    0.4920    2.1490 f         1 OX4     -0.123900
      5 C3          3.7270    0.3740    1.3040 ca        1 OX4     -0.113000
      6 C4          4.6090    0.1470    0.2360 ca        1 OX4     -0.183900
      7 C5          4.0980   -0.1860   -1.0240 ca        1 OX4     -0.062000
      8 C6          2.7240   -0.2920   -1.2250 ca        1 OX4     -0.203000
      9 C7          6.0400    0.2700    0.5000 ce        1 OX4      0.442800
     10 N8          7.0960    0.1390   -0.2450 n2        1 OX4     -0.444200
     11 O9          6.9220   -0.1720   -1.5200 os        1 OX4     -0.216600
     12 C10         8.0680   -0.3110   -2.3310 c         1 OX4      0.656100
     13 O10         7.7100   -0.6080   -3.4670 o         1 OX4     -0.481000
     14 C11         9.4570   -0.1050   -1.8060 c3        1 OX4     -0.122700
     15 C12         9.7830    1.3840   -1.7800 c3        1 OX4     -0.072900
     16 C13        11.2040    1.6110   -1.3070 c3        1 OX4     -0.075900
     17 C14        12.2000    0.8550   -2.1630 c3        1 OX4     -0.080400
     18 C15        11.8700   -0.6220   -2.2130 c3        1 OX4     -0.075900
     19 C16        10.4510   -0.8570   -2.6860 c3        1 OX4     -0.072900
     20 HO1         0.2740   -0.3880   -1.2070 ho        1 OX4      0.426000
     21 H3          4.1110    0.6370    2.3020 ha        1 OX4      0.151000
     22 H5          4.7770   -0.3690   -1.8750 ha        1 OX4      0.171000
     23 H6          2.3320   -0.5540   -2.2190 ha        1 OX4      0.146000
     24 H7          6.3070    0.5300    1.5500 h4        1 OX4      0.032800
     25 H11         9.5270   -0.5140   -0.7590 hc        1 OX4      0.090700
     26 H121        9.6560    1.8100   -2.8100 hc        1 OX4      0.055450
     27 H122        9.0700    1.9150   -1.0980 hc        1 OX4      0.055450
     28 H131       11.4340    2.7080   -1.3420 hc        1 OX4      0.044200
     29 H132       11.3010    1.2790   -0.2400 hc        1 OX4      0.044200
     30 H141       12.1920    1.2750   -3.2040 hc        1 OX4      0.043700
     31 H142       13.2320    0.9960   -1.7510 hc        1 OX4      0.043700
     32 H151       12.5810   -1.1430   -2.9060 hc        1 OX4      0.044200
     33 H152       12.0050   -1.0700   -1.1930 hc        1 OX4      0.044200
     34 H161       10.2170   -1.9530   -2.6590 hc        1 OX4      0.055450
     35 H162       10.3380   -0.5150   -3.7480 hc        1 OX4      0.055450
@<TRIPOS>BOND
     1    1    2 1   
     2    1   20 1   
     3    2    3 ar  
     4    2    8 ar  
     5    3    4 1   
     6    3    5 ar  
     7    5    6 ar  
     8    5   21 1   
     9    6    7 ar  
    10    6    9 1   
    11    7    8 ar  
    12    7   22 1   
    13    8   23 1   
    14    9   10 2   
    15    9   24 1   
    16   10   11 1   
    17   11   12 1   
    18   12   13 2   
    19   12   14 1   
    20   14   15 1   
    21   14   19 1   
    22   14   25 1   
    23   15   16 1   
    24   15   26 1   
    25   15   27 1   
    26   16   17 1   
    27   16   28 1   
    28   16   29 1   
    29   17   18 1   
    30   17   30 1   
    31   17   31 1   
    32   18   19 1   
    33   18   32 1   
    34   18   33 1   
    35   19   34 1   
    36   19   35 1   
@<TRIPOS>SUBSTRUCTURE
     1 OX4         1 TEMP              0 ****  ****    0 ROOT
