@<TRIPOS>MOLECULE
OX4
   35    36     1     0     0
SMALL
bcc


@<TRIPOS>ATOM
      1 O1         -0.5160    7.6140    4.0460 oh        1 OX4     -0.485100
      2 C1         -0.8650    6.5480    3.2570 ca        1 OX4      0.114100
      3 C2         -2.0370    6.5380    2.4610 ca        1 OX4      0.027900
      4 F2         -2.8570    7.6200    2.4680 f         1 OX4     -0.144900
      5 C3         -2.3380    5.4180    1.6770 ca        1 OX4     -0.104000
      6 C4         -1.4790    4.3110    1.6830 ca        1 OX4     -0.150900
      7 C5         -0.3210    4.3300    2.4740 ca        1 OX4     -0.066000
      8 C6         -0.0120    5.4370    3.2570 ca        1 OX4     -0.148000
      9 C7         -1.8410    3.1660    0.8440 ce        1 OX4      0.415800
     10 N8         -1.1090    2.0860    0.7790 n2        1 OX4     -0.399200
     11 O9         -1.6050    1.1570   -0.0370 os        1 OX4     -0.237600
     12 C10        -0.9150   -0.0530   -0.1990 c         1 OX4      0.655100
     13 O10         0.1320   -0.2760    0.3910 o         1 OX4     -0.475000
     14 C11        -1.6730   -0.9280   -1.1650 c3        1 OX4     -0.110700
     15 C12        -2.0830   -2.2140   -0.4570 c3        1 OX4     -0.074400
     16 C13        -2.7720   -3.1580   -1.4200 c3        1 OX4     -0.076400
     17 C14        -1.9030   -3.4500   -2.6260 c3        1 OX4     -0.080400
     18 C15        -1.4870   -2.1710   -3.3240 c3        1 OX4     -0.076400
     19 C16        -0.7910   -1.2220   -2.3720 c3        1 OX4     -0.074400
     20 HO1        -1.1950    8.3010    3.9430 ho        1 OX4      0.433000
     21 H3         -3.2510    5.4220    1.0620 ha        1 OX4      0.152000
     22 H5          0.3600    3.4620    2.4840 ha        1 OX4      0.165000
     23 H6          0.8950    5.4570    3.8800 ha        1 OX4      0.161000
     24 H7         -2.7850    3.2830    0.2680 h4        1 OX4      0.004800
     25 H11        -2.5990   -0.3850   -1.5080 hc        1 OX4      0.082700
     26 H121       -2.7720   -1.9710    0.3930 hc        1 OX4      0.056700
     27 H122       -1.1700   -2.7050   -0.0280 hc        1 OX4      0.056700
     28 H131       -3.7420   -2.7070   -1.7580 hc        1 OX4      0.044700
     29 H132       -3.0120   -4.1160   -0.8890 hc        1 OX4      0.044700
     30 H141       -0.9890   -4.0130   -2.3010 hc        1 OX4      0.044700
     31 H142       -2.4640   -4.1030   -3.3440 hc        1 OX4      0.044700
     32 H151       -0.7950   -2.4140   -4.1730 hc        1 OX4      0.044700
     33 H152       -2.3920   -1.6700   -3.7590 hc        1 OX4      0.044700
     34 H161        0.1750   -1.6730   -2.0210 hc        1 OX4      0.056700
     35 H162       -0.5490   -0.2640   -2.9010 hc        1 OX4      0.056700
@<TRIPOS>BOND
     1    1    2 1   
     2    1   20 1   
     3    2    3 ar  
     4    2    8 ar  
     5    3    4 1   
     6    3    5 ar  
     7    5    6 ar  
     8    5   21 1   
     9    6    7 ar  
    10    6    9 1   
    11    7    8 ar  
    12    7   22 1   
    13    8   23 1   
    14    9   10 2   
    15    9   24 1   
    16   10   11 1   
    17   11   12 1   
    18   12   13 2   
    19   12   14 1   
    20   14   15 1   
    21   14   19 1   
    22   14   25 1   
    23   15   16 1   
    24   15   26 1   
    25   15   27 1   
    26   16   17 1   
    27   16   28 1   
    28   16   29 1   
    29   17   18 1   
    30   17   30 1   
    31   17   31 1   
    32   18   19 1   
    33   18   32 1   
    34   18   33 1   
    35   19   34 1   
    36   19   35 1   
@<TRIPOS>SUBSTRUCTURE
     1 OX4         1 TEMP              0 ****  ****    0 ROOT
