@<TRIPOS>MOLECULE
OX4
   35    33     1     0     0
SMALL
bcc


@<TRIPOS>ATOM
      1 O1         -5.4220    2.7410    1.4820 oh        1 OX4     -0.239000
      2 C1         -4.0030    2.8120    1.4350 c2        1 OX4      0.070000
      3 C2         -3.2510    2.3540    2.5040 c2        1 OX4     -0.005000
      4 F2         -3.8580    1.8980    3.5980 f         1 OX4     -0.109000
      5 C3         -1.8670    2.3870    2.4420 c1        1 OX4     -0.100000
      6 C4         -1.2370    2.8760    1.3170 c1        1 OX4     -0.092000
      7 C5         -1.9910    3.3350    0.2460 c1        1 OX4     -0.074000
      8 C6         -3.3750    3.3010    0.3080 c1        1 OX4     -0.149000
      9 C7          0.2910    3.0680    1.3190 c2        1 OX4     -0.081000
     10 N8          1.0680    2.1190    0.8720 n1        1 OX4     -0.011000
     11 O9          0.5260    0.9560    0.4030 o         1 OX4     -0.266500
     12 C10         1.5290   -0.0230    0.2780 c2        1 OX4      0.325000
     13 O10         2.5530    0.0530    0.9610 o         1 OX4     -0.266500
     14 C11         1.3250   -1.2190   -0.6790 c3        1 OX4     -0.099000
     15 C12         1.2890   -2.5510    0.0820 c3        1 OX4     -0.154000
     16 C13         1.1980   -3.7480   -0.8270 c3        1 OX4     -0.155000
     17 C14         2.2400   -3.7590   -1.8650 c3        1 OX4     -0.159000
     18 C15         2.3160   -2.4940   -2.6300 c3        1 OX4     -0.155000
     19 C16         2.4230   -1.2810   -1.7450 c3        1 OX4     -0.154000
     20 HO1        -5.7430    3.4740    1.8750 ho        1 OX4      0.233000
     21 H3         -1.3380    2.0650    3.1940 ha        1 OX4      0.153000
     22 H5         -1.5430    3.6840   -0.5580 ha        1 OX4      0.157000
     23 H6         -3.9090    3.6260   -0.4500 ha        1 OX4      0.159000
     24 H7          0.6860    3.9170    1.6610 h4        1 OX4      0.166000
     25 H11         0.4510   -1.0050   -1.0720 hc        1 OX4      0.118000
     26 H121        0.5160   -2.5500    0.6810 hc        1 OX4      0.096000
     27 H122        2.1050   -2.6290    0.6190 hc        1 OX4      0.096000
     28 H131        1.2810   -4.5490   -0.2950 hc        1 OX4      0.083750
     29 H132        0.3150   -3.7470   -1.2650 hc        1 OX4      0.083750
     30 H141        3.1140   -3.9200   -1.4340 hc        1 OX4      0.084500
     31 H142        2.0590   -4.4820   -2.4780 hc        1 OX4      0.084500
     32 H151        3.0750   -2.5250   -3.1980 hc        1 OX4      0.083750
     33 H152        1.5170   -2.4120   -3.1780 hc        1 OX4      0.083750
     34 H161        3.2960   -1.2930   -1.2980 hc        1 OX4      0.096000
     35 H162        2.3650   -0.4780   -2.3040 hc        1 OX4      0.096000
@<TRIPOS>BOND
     1    1    2 1   
     2    1   20 1   
     3    2    3 1   
     4    2    8 1   
     5    3    4 1   
     6    3    5 1   
     7    5   21 1   
     8    6    7 1   
     9    6    9 1   
    10    7   22 1   
    11    8   23 1   
    12    9   10 1   
    13    9   24 1   
    14   11   12 1   
    15   12   13 1   
    16   12   14 1   
    17   14   15 1   
    18   14   19 1   
    19   14   25 1   
    20   15   16 1   
    21   15   26 1   
    22   15   27 1   
    23   16   17 1   
    24   16   28 1   
    25   16   29 1   
    26   17   18 1   
    27   17   30 1   
    28   17   31 1   
    29   18   19 1   
    30   18   32 1   
    31   18   33 1   
    32   19   34 1   
    33   19   35 1   
@<TRIPOS>SUBSTRUCTURE
     1 OX4         1 TEMP              0 ****  ****    0 ROOT
