@<TRIPOS>MOLECULE
OX4
   35    36     1     0     0
SMALL
bcc


@<TRIPOS>ATOM
      1 O1         -0.0860   -0.2650    0.2140 oh        1 OX4     -0.479100
      2 C1          1.2770   -0.2000    0.0690 ca        1 OX4      0.108100
      3 C2          2.0520   -0.3890    1.2420 ca        1 OX4      0.095900
      4 F2          1.4490   -0.6200    2.4310 f         1 OX4     -0.123900
      5 C3          3.4500   -0.3340    1.1570 ca        1 OX4     -0.118000
      6 C4          4.0750   -0.0940   -0.0750 ca        1 OX4     -0.148900
      7 C5          3.2990    0.0910   -1.2260 ca        1 OX4     -0.063000
      8 C6          1.9100    0.0380   -1.1560 ca        1 OX4     -0.202000
      9 C7          5.5390   -0.0490   -0.0960 ce        1 OX4      0.415800
     10 N8          6.2170    0.1670   -1.1910 n2        1 OX4     -0.401200
     11 O9          7.5370    0.1710   -1.0070 os        1 OX4     -0.237600
     12 C10         8.3810    0.3920   -2.1040 c         1 OX4      0.655100
     13 O10         7.9360    0.5820   -3.2270 o         1 OX4     -0.477000
     14 C11         9.8150    0.3500   -1.6390 c3        1 OX4     -0.110700
     15 C12        10.4720    1.6960   -1.9190 c3        1 OX4     -0.074400
     16 C13        11.9390    1.6640   -1.5450 c3        1 OX4     -0.076400
     17 C14        12.6670    0.5410   -2.2560 c3        1 OX4     -0.080400
     18 C15        12.0090   -0.7960   -1.9860 c3        1 OX4     -0.076400
     19 C16        10.5420   -0.7770   -2.3630 c3        1 OX4     -0.074400
     20 HO1        -0.4850   -0.1190   -0.6570 ho        1 OX4      0.425000
     21 H3          4.0450   -0.4810    2.0710 ha        1 OX4      0.153000
     22 H5          3.7810    0.2790   -2.2000 ha        1 OX4      0.164000
     23 H6          1.3060    0.1840   -2.0640 ha        1 OX4      0.144000
     24 H7          6.0300   -0.2120    0.8880 h4        1 OX4      0.005800
     25 H11         9.8390    0.1510   -0.5300 hc        1 OX4      0.082700
     26 H121       10.3600    1.9410   -3.0090 hc        1 OX4      0.056200
     27 H122        9.9490    2.4960   -1.3330 hc        1 OX4      0.056200
     28 H131       12.0400    1.5320   -0.4360 hc        1 OX4      0.044700
     29 H132       12.4090    2.6460   -1.8130 hc        1 OX4      0.044700
     30 H141       13.7340    0.5100   -1.9140 hc        1 OX4      0.044700
     31 H142       12.6720    0.7400   -3.3600 hc        1 OX4      0.044700
     32 H151       12.1140   -1.0530   -0.8990 hc        1 OX4      0.044700
     33 H152       12.5290   -1.5970   -2.5740 hc        1 OX4      0.044700
     34 H161       10.4330   -0.6340   -3.4710 hc        1 OX4      0.056200
     35 H162       10.0700   -1.7580   -2.0970 hc        1 OX4      0.056200
@<TRIPOS>BOND
     1    1    2 1   
     2    1   20 1   
     3    2    3 ar  
     4    2    8 ar  
     5    3    4 1   
     6    3    5 ar  
     7    5    6 ar  
     8    5   21 1   
     9    6    7 ar  
    10    6    9 1   
    11    7    8 ar  
    12    7   22 1   
    13    8   23 1   
    14    9   10 2   
    15    9   24 1   
    16   10   11 1   
    17   11   12 1   
    18   12   13 2   
    19   12   14 1   
    20   14   15 1   
    21   14   19 1   
    22   14   25 1   
    23   15   16 1   
    24   15   26 1   
    25   15   27 1   
    26   16   17 1   
    27   16   28 1   
    28   16   29 1   
    29   17   18 1   
    30   17   30 1   
    31   17   31 1   
    32   18   19 1   
    33   18   32 1   
    34   18   33 1   
    35   19   34 1   
    36   19   35 1   
@<TRIPOS>SUBSTRUCTURE
     1 OX4         1 TEMP              0 ****  ****    0 ROOT
