@<TRIPOS>MOLECULE
OX4
   35    36     1     0     0
SMALL
bcc


@<TRIPOS>ATOM
      1 O1         -0.0770   -0.2680    0.2320 oh        1 OX4     -0.479100
      2 C1          1.2850   -0.2000    0.0840 ca        1 OX4      0.108100
      3 C2          2.0620   -0.3540    1.2620 ca        1 OX4      0.095900
      4 F2          1.4610   -0.5560    2.4560 f         1 OX4     -0.123900
      5 C3          3.4590   -0.2940    1.1730 ca        1 OX4     -0.118000
      6 C4          4.0820   -0.0850   -0.0650 ca        1 OX4     -0.148900
      7 C5          3.3040    0.0650   -1.2200 ca        1 OX4     -0.063000
      8 C6          1.9150    0.0080   -1.1480 ca        1 OX4     -0.202000
      9 C7          5.5460   -0.0330   -0.0880 ce        1 OX4      0.415800
     10 N8          6.2220    0.1590   -1.1900 n2        1 OX4     -0.401200
     11 O9          7.5420    0.1740   -1.0060 os        1 OX4     -0.237600
     12 C10         8.3840    0.3730   -2.1090 c         1 OX4      0.655100
     13 O10         7.9370    0.5330   -3.2360 o         1 OX4     -0.477000
     14 C11         9.8190    0.3480   -1.6450 c3        1 OX4     -0.110700
     15 C12        10.4670    1.6920   -1.9540 c3        1 OX4     -0.074400
     16 C13        11.9350    1.6760   -1.5810 c3        1 OX4     -0.076400
     17 C14        12.6690    0.5430   -2.2690 c3        1 OX4     -0.080400
     18 C15        12.0180   -0.7920   -1.9700 c3        1 OX4     -0.076400
     19 C16        10.5510   -0.7900   -2.3450 c3        1 OX4     -0.074400
     20 HO1        -0.4790   -0.1480   -0.6420 ho        1 OX4      0.425000
     21 H3          4.0560   -0.4140    2.0910 ha        1 OX4      0.153000
     22 H5          3.7850    0.2300   -2.1990 ha        1 OX4      0.164000
     23 H6          1.3100    0.1270   -2.0580 ha        1 OX4      0.144000
     24 H7          6.0390   -0.1680    0.8990 h4        1 OX4      0.005800
     25 H11         9.8450    0.1740   -0.5320 hc        1 OX4      0.082700
     26 H121       10.3540    1.9130   -3.0490 hc        1 OX4      0.056200
     27 H122        9.9410    2.5020   -1.3860 hc        1 OX4      0.056200
     28 H131       12.3990    2.6550   -1.8700 hc        1 OX4      0.044700
     29 H132       12.0380    1.5690   -0.4690 hc        1 OX4      0.044700
     30 H141       12.6710    0.7170   -3.3770 hc        1 OX4      0.044700
     31 H142       13.7360    0.5250   -1.9270 hc        1 OX4      0.044700
     32 H151       12.5430   -1.6030   -2.5410 hc        1 OX4      0.044700
     33 H152       12.1260   -1.0250   -0.8780 hc        1 OX4      0.044700
     34 H161       10.4410   -0.6710   -3.4560 hc        1 OX4      0.056200
     35 H162       10.0850   -1.7680   -2.0580 hc        1 OX4      0.056200
@<TRIPOS>BOND
     1    1    2 1   
     2    1   20 1   
     3    2    3 ar  
     4    2    8 ar  
     5    3    4 1   
     6    3    5 ar  
     7    5    6 ar  
     8    5   21 1   
     9    6    7 ar  
    10    6    9 1   
    11    7    8 ar  
    12    7   22 1   
    13    8   23 1   
    14    9   10 2   
    15    9   24 1   
    16   10   11 1   
    17   11   12 1   
    18   12   13 2   
    19   12   14 1   
    20   14   15 1   
    21   14   19 1   
    22   14   25 1   
    23   15   16 1   
    24   15   26 1   
    25   15   27 1   
    26   16   17 1   
    27   16   28 1   
    28   16   29 1   
    29   17   18 1   
    30   17   30 1   
    31   17   31 1   
    32   18   19 1   
    33   18   32 1   
    34   18   33 1   
    35   19   34 1   
    36   19   35 1   
@<TRIPOS>SUBSTRUCTURE
     1 OX4         1 TEMP              0 ****  ****    0 ROOT
