@<TRIPOS>MOLECULE
OX5
   34    34     1     0     0
SMALL
bcc


@<TRIPOS>ATOM
      1 O1         -0.1300    0.2670    0.3540 oh        1 OX5     -0.494100
      2 C1          1.2340    0.2310    0.1970 ca        1 OX5      0.141100
      3 C2          2.0040    0.5230    1.3370 ca        1 OX5     -0.194500
      4 C3          3.3890    0.5020    1.2380 ca        1 OX5     -0.062000
      5 C4          4.0200    0.1930    0.0210 ca        1 OX5     -0.176900
      6 C5          3.2390   -0.0960   -1.1060 ca        1 OX5     -0.062000
      7 C6          1.8490   -0.0790   -1.0240 ca        1 OX5     -0.194500
      8 C7          5.4830    0.1890   -0.0120 ce        1 OX5      0.421800
      9 N8          6.1620   -0.0950   -1.0920 n2        1 OX5     -0.407200
     10 O9          7.4830   -0.0430   -0.9140 os        1 OX5     -0.240600
     11 C10         8.3320   -0.3260   -1.9940 c         1 OX5      0.659100
     12 C8          9.7550   -0.1730   -1.5460 c3        1 OX5     -0.128400
     13 C9          9.8320   -2.6140   -1.0040 c3        1 OX5     -0.094767
     14 C11        10.7820   -1.7960   -3.1530 c3        1 OX5     -0.094767
     15 C12        10.5620   -1.4670   -1.6840 c3        1 OX5     -0.045000
     16 C13        11.9110   -1.2540   -1.0090 c3        1 OX5     -0.094767
     17 O2          7.8840   -0.6120   -3.0960 o         1 OX5     -0.482000
     18 HO1        -0.5360    0.0490   -0.4980 ho        1 OX5      0.422000
     19 H2          1.5020    0.7640    2.2840 ha        1 OX5      0.146000
     20 H3          3.9960    0.7310    2.1280 ha        1 OX5      0.147500
     21 H7          5.9760    0.4450    0.9510 h4        1 OX5      0.001800
     22 H81        10.2180    0.6290   -2.1800 hc        1 OX5      0.079700
     23 H82         9.7760    0.1660   -0.4760 hc        1 OX5      0.079700
     24 H91         8.8480   -2.7950   -1.5020 hc        1 OX5      0.042478
     25 H92         9.6510   -2.3770    0.0720 hc        1 OX5      0.042478
     26 H93        10.4410   -3.5470   -1.0660 hc        1 OX5      0.042478
     27 H111        9.8020   -1.8820   -3.6820 hc        1 OX5      0.042478
     28 H112       11.3310   -2.7630   -3.2500 hc        1 OX5      0.042478
     29 H113       11.3840   -0.9940   -3.6440 hc        1 OX5      0.042478
     30 H131       12.5440   -2.1660   -1.1310 hc        1 OX5      0.042478
     31 H132       12.4430   -0.3870   -1.4670 hc        1 OX5      0.042478
     32 H133       11.7770   -1.0580    0.0820 hc        1 OX5      0.042478
     33 H5          3.7180   -0.3400   -2.0680 ha        1 OX5      0.147500
     34 H6          1.2400   -0.3060   -1.9100 ha        1 OX5      0.146000
@<TRIPOS>BOND
     1    1    2 1   
     2    1   18 1   
     3    2    3 ar  
     4    2    7 ar  
     5    3    4 ar  
     6    3   19 1   
     7    4    5 ar  
     8    4   20 1   
     9    5    6 ar  
    10    5    8 1   
    11    6    7 ar  
    12    6   33 1   
    13    7   34 1   
    14    8    9 2   
    15    8   21 1   
    16    9   10 1   
    17   10   11 1   
    18   11   12 1   
    19   11   17 2   
    20   12   15 1   
    21   12   22 1   
    22   12   23 1   
    23   13   15 1   
    24   13   24 1   
    25   13   25 1   
    26   13   26 1   
    27   14   15 1   
    28   14   27 1   
    29   14   28 1   
    30   14   29 1   
    31   15   16 1   
    32   16   30 1   
    33   16   31 1   
    34   16   32 1   
@<TRIPOS>SUBSTRUCTURE
     1 OX5         1 TEMP              0 ****  ****    0 ROOT
