@<TRIPOS>MOLECULE
OX5
   34    31     1     0     0
SMALL
bcc


@<TRIPOS>ATOM
      1 O1         -5.8650    2.7990    0.5550 oh        1 OX5     -0.248000
      2 C1         -4.4830    2.7540    0.3170 c2        1 OX5      0.096000
      3 C2         -3.5140    2.9600    1.4570 c1        1 OX5     -0.168000
      4 C3         -2.0310    3.0400    1.1830 c2        1 OX5     -0.062000
      5 C4         -1.5110    2.8550   -0.2270 c1        1 OX5     -0.117000
      6 C5         -2.4790    2.6490   -1.3670 c2        1 OX5     -0.065000
      7 C6         -3.9640    2.5680   -1.0920 c2        1 OX5     -0.220000
      8 C7         -0.0190    2.9260   -0.5010 c1        1 OX5     -0.076000
      9 N8          0.7270    1.8390   -0.3880 n1        1 OX5     -0.019000
     10 O9          0.1500    0.6410   -0.0210 o         1 OX5     -0.270500
     11 C10         0.9970   -0.4290   -0.3870 c2        1 OX5      0.328000
     12 C8          1.0700   -1.6660    0.4820 c3        1 OX5     -0.156000
     13 C9          2.4660   -3.6170    1.0960 c3        1 OX5     -0.213000
     14 C11         3.5490   -1.5670    0.1600 c3        1 OX5     -0.213000
     15 C12         2.3000   -2.4750    0.1110 c3        1 OX5     -0.046000
     16 C13         2.1330   -3.0450   -1.3170 c3        1 OX5     -0.213000
     17 O2          1.6200   -0.3800   -1.4260 o         1 OX5     -0.270500
     18 HO1        -6.1840    1.9740    0.5950 ho        1 OX5      0.221000
     19 H2         -3.8490    3.0780    2.3680 DU        1 OX5      0.153000
     20 H3         -1.4040    3.1730    1.9220 ha        1 OX5      0.152000
     21 H7          0.3910    3.7750   -0.7600 ha        1 OX5      0.162000
     22 H81         1.1250   -1.4000    1.4260 hc        1 OX5      0.118000
     23 H82         0.2710   -2.2070    0.3430 hc        1 OX5      0.118000
     24 H91         1.6310   -4.1260    1.1480 hc        1 OX5      0.081778
     25 H92         2.6840   -3.2570    1.9790 hc        1 OX5      0.081778
     26 H93         3.1840   -4.2020    0.7970 hc        1 OX5      0.081778
     27 H111        3.6330   -1.0800   -0.6870 hc        1 OX5      0.081778
     28 H112        4.3580   -2.1240    0.3020 hc        1 OX5      0.081778
     29 H113        3.4590   -0.9230    0.9020 hc        1 OX5      0.081778
     30 H131        2.1180   -2.3060   -1.9640 hc        1 OX5      0.081778
     31 H132        1.2890   -3.5470   -1.3740 hc        1 OX5      0.081778
     32 H133        2.8840   -3.6440   -1.5200 hc        1 OX5      0.081778
     33 H5         -2.1430    2.5300   -2.2790 ha        1 OX5      0.136000
     34 H6         -4.5940    2.4330   -1.8330 ha        1 OX5      0.137000
@<TRIPOS>BOND
     1    1    2 1   
     2    1   18 1   
     3    2    3 1   
     4    2    7 1   
     5    3    4 1   
     6    4    5 1   
     7    4   20 1   
     8    5    6 1   
     9    6    7 1   
    10    6   33 1   
    11    7   34 1   
    12    8    9 1   
    13    8   21 1   
    14   10   11 1   
    15   11   12 1   
    16   11   17 1   
    17   12   15 1   
    18   12   22 1   
    19   12   23 1   
    20   13   15 1   
    21   13   24 1   
    22   13   25 1   
    23   13   26 1   
    24   14   15 1   
    25   14   27 1   
    26   14   28 1   
    27   14   29 1   
    28   15   16 1   
    29   16   30 1   
    30   16   31 1   
    31   16   32 1   
@<TRIPOS>SUBSTRUCTURE
     1 OX5         1 TEMP              0 ****  ****    0 ROOT
