@<TRIPOS>MOLECULE
OX5
   34    34     1     0     0
SMALL
bcc


@<TRIPOS>ATOM
      1 O1         -0.1290    0.2670    0.3670 oh        1 OX5     -0.494100
      2 C1          1.2340    0.2360    0.1980 ca        1 OX5      0.141100
      3 C2          2.0120    0.6220    1.3040 ca        1 OX5     -0.194500
      4 C3          3.3950    0.6120    1.1920 ca        1 OX5     -0.062000
      5 C4          4.0180    0.2220   -0.0060 ca        1 OX5     -0.176900
      6 C5          3.2310   -0.1600   -1.0990 ca        1 OX5     -0.062000
      7 C6          1.8410   -0.1550   -1.0040 ca        1 OX5     -0.194500
      8 C7          5.4810    0.2340   -0.0550 ce        1 OX5      0.421800
      9 N8          6.1520   -0.1180   -1.1190 n2        1 OX5     -0.407200
     10 O9          7.4750   -0.0380   -0.9600 os        1 OX5     -0.240600
     11 C10         8.3160   -0.3840   -2.0270 c         1 OX5      0.659100
     12 C8          9.7420   -0.1840   -1.6060 c3        1 OX5     -0.128400
     13 C9          9.8570   -2.5830   -0.9060 c3        1 OX5     -0.095100
     14 C11        10.7750   -1.8940   -3.1140 c3        1 OX5     -0.095100
     15 C12        10.5650   -1.4730   -1.6680 c3        1 OX5     -0.045000
     16 C13        11.9180   -1.2000   -1.0230 c3        1 OX5     -0.095100
     17 O2          7.8620   -0.7500   -3.1020 o         1 OX5     -0.482000
     18 HO1        -0.5400   -0.0190   -0.4620 ho        1 OX5      0.422000
     19 H2          1.5160    0.9250    2.2370 ha        1 OX5      0.146000
     20 H3          4.0090    0.9130    2.0560 ha        1 OX5      0.147500
     21 H7          5.9810    0.5650    0.8820 h4        1 OX5      0.001800
     22 H81        10.1880    0.5820   -2.2960 hc        1 OX5      0.079700
     23 H82         9.7700    0.2250   -0.5600 hc        1 OX5      0.079700
     24 H91         8.8710   -2.8090   -1.3810 hc        1 OX5      0.042478
     25 H92         9.6830   -2.2780    0.1540 hc        1 OX5      0.042478
     26 H93        10.4780   -3.5100   -0.9140 hc        1 OX5      0.042478
     27 H111        9.7910   -2.0280   -3.6260 hc        1 OX5      0.042478
     28 H112       11.3360   -2.8590   -3.1540 hc        1 OX5      0.042478
     29 H113       11.3610   -1.1190   -3.6630 hc        1 OX5      0.042478
     30 H131       12.5620   -2.1090   -1.0920 hc        1 OX5      0.042478
     31 H132       12.4330   -0.3570   -1.5420 hc        1 OX5      0.042478
     32 H133       11.7910   -0.9340    0.0540 hc        1 OX5      0.042478
     33 H5          3.7030   -0.4680   -2.0470 ha        1 OX5      0.147500
     34 H6          1.2260   -0.4550   -1.8640 ha        1 OX5      0.146000
@<TRIPOS>BOND
     1    1    2 1   
     2    1   18 1   
     3    2    3 ar  
     4    2    7 ar  
     5    3    4 ar  
     6    3   19 1   
     7    4    5 ar  
     8    4   20 1   
     9    5    6 ar  
    10    5    8 1   
    11    6    7 ar  
    12    6   33 1   
    13    7   34 1   
    14    8    9 2   
    15    8   21 1   
    16    9   10 1   
    17   10   11 1   
    18   11   12 1   
    19   11   17 2   
    20   12   15 1   
    21   12   22 1   
    22   12   23 1   
    23   13   15 1   
    24   13   24 1   
    25   13   25 1   
    26   13   26 1   
    27   14   15 1   
    28   14   27 1   
    29   14   28 1   
    30   14   29 1   
    31   15   16 1   
    32   16   30 1   
    33   16   31 1   
    34   16   32 1   
@<TRIPOS>SUBSTRUCTURE
     1 OX5         1 TEMP              0 ****  ****    0 ROOT
