@<TRIPOS>MOLECULE
OX5
   34    34     1     0     0
SMALL
bcc


@<TRIPOS>ATOM
      1 O1         -7.8720    8.5080   -2.5910 oh        1 OX5     -0.493100
      2 C1         -6.6810    7.8230   -2.6270 ca        1 OX5      0.140100
      3 C2         -5.4440    8.4650   -2.7910 ca        1 OX5     -0.194000
      4 C3         -4.2810    7.7030   -2.8170 ca        1 OX5     -0.062000
      5 C4         -4.3380    6.3070   -2.6820 ca        1 OX5     -0.175900
      6 C5         -5.5820    5.6800   -2.5180 ca        1 OX5     -0.062000
      7 C6         -6.7540    6.4270   -2.4900 ca        1 OX5     -0.194000
      8 C7         -3.0780    5.5620   -2.7180 ce        1 OX5      0.420800
      9 N8         -3.0260    4.2630   -2.5930 n2        1 OX5     -0.405200
     10 O9         -1.7850    3.7760   -2.6520 os        1 OX5     -0.241600
     11 C10        -1.5840    2.3930   -2.5390 c         1 OX5      0.659100
     12 C8         -0.1170    2.1040   -2.6610 c3        1 OX5     -0.128400
     13 C9          0.0960    2.2030   -0.1700 c3        1 OX5     -0.095100
     14 C11        -0.0810   -0.0030   -1.3080 c3        1 OX5     -0.095100
     15 C12         0.4570    1.4150   -1.4200 c3        1 OX5     -0.045000
     16 C13         1.9730    1.3670   -1.5670 c3        1 OX5     -0.095100
     17 O2         -2.5250    1.6230   -2.3960 o         1 OX5     -0.481000
     18 HO1        -7.6790    9.4510   -2.6960 ho        1 OX5      0.421000
     19 H2         -5.3950    9.5570   -2.8970 ha        1 OX5      0.146000
     20 H3         -3.3090    8.2040   -2.9460 ha        1 OX5      0.147500
     21 H7         -2.1670    6.1830   -2.8590 h4        1 OX5      0.000800
     22 H81         0.4390    3.0610   -2.8450 hc        1 OX5      0.079700
     23 H82         0.0170    1.4390   -3.5560 hc        1 OX5      0.079700
     24 H91         0.5520    1.7260    0.7300 hc        1 OX5      0.042256
     25 H92         0.4730    3.2510   -0.2480 hc        1 OX5      0.042256
     26 H93        -1.0130    2.2300   -0.0370 hc        1 OX5      0.042256
     27 H111       -1.1980    0.0080   -1.2730 hc        1 OX5      0.042256
     28 H112        0.3030   -0.4850   -0.3780 hc        1 OX5      0.042256
     29 H113        0.2430   -0.6120   -2.1860 hc        1 OX5      0.042256
     30 H131        2.4210    0.8290   -0.6980 hc        1 OX5      0.042256
     31 H132        2.3960    2.4000   -1.6040 hc        1 OX5      0.042256
     32 H133        2.2560    0.8300   -2.5040 hc        1 OX5      0.042256
     33 H5         -5.6420    4.5840   -2.4110 ha        1 OX5      0.147500
     34 H6         -7.7330    5.9450   -2.3630 ha        1 OX5      0.146000
@<TRIPOS>BOND
     1    1    2 1   
     2    1   18 1   
     3    2    3 ar  
     4    2    7 ar  
     5    3    4 ar  
     6    3   19 1   
     7    4    5 ar  
     8    4   20 1   
     9    5    6 ar  
    10    5    8 1   
    11    6    7 ar  
    12    6   33 1   
    13    7   34 1   
    14    8    9 2   
    15    8   21 1   
    16    9   10 1   
    17   10   11 1   
    18   11   12 1   
    19   11   17 2   
    20   12   15 1   
    21   12   22 1   
    22   12   23 1   
    23   13   15 1   
    24   13   24 1   
    25   13   25 1   
    26   13   26 1   
    27   14   15 1   
    28   14   27 1   
    29   14   28 1   
    30   14   29 1   
    31   15   16 1   
    32   16   30 1   
    33   16   31 1   
    34   16   32 1   
@<TRIPOS>SUBSTRUCTURE
     1 OX5         1 TEMP              0 ****  ****    0 ROOT
