@<TRIPOS>MOLECULE
OX5
   34    34     1     0     0
SMALL
bcc


@<TRIPOS>ATOM
      1 O1          0.4580   -0.3180   -0.3560 oh        1 OX5     -0.492100
      2 C1          1.8010   -0.1210   -0.1450 ca        1 OX5      0.145100
      3 C2          2.3180    0.3270    1.0810 ca        1 OX5     -0.196000
      4 C3          3.6890    0.5020    1.2160 ca        1 OX5     -0.059000
      5 C4          4.5580    0.2370    0.1440 ca        1 OX5     -0.211900
      6 C5          4.0250   -0.2090   -1.0740 ca        1 OX5     -0.059000
      7 C6          2.6550   -0.3900   -1.2270 ca        1 OX5     -0.196000
      8 C7          5.9870    0.4420    0.3530 ce        1 OX5      0.446800
      9 N8          7.0320    0.2770   -0.4020 n2        1 OX5     -0.452200
     10 O9          6.8430   -0.1660   -1.6360 os        1 OX5     -0.213600
     11 C10         7.9730   -0.3570   -2.4540 c         1 OX5      0.659100
     12 C8          9.3700   -0.0910   -2.0030 c3        1 OX5     -0.141400
     13 C9          9.3520   -2.1680   -0.6020 c3        1 OX5     -0.093767
     14 C11        10.3320   -2.2250   -2.8890 c3        1 OX5     -0.093767
     15 C12        10.1260   -1.3760   -1.6440 c3        1 OX5     -0.044000
     16 C13        11.4820   -0.9820   -1.0740 c3        1 OX5     -0.093767
     17 O2          7.5940   -0.7450   -3.5580 o         1 OX5     -0.487000
     18 HO1        -0.0100   -0.0970    0.4630 ho        1 OX5      0.421000
     19 H2          1.6440    0.5360    1.9240 ha        1 OX5      0.147000
     20 H3          4.0960    0.8530    2.1770 ha        1 OX5      0.150500
     21 H7          6.2680    0.8190    1.3630 h4        1 OX5      0.028800
     22 H81         9.9020    0.4160   -2.8550 hc        1 OX5      0.082700
     23 H82         9.3880    0.6060   -1.1250 hc        1 OX5      0.082700
     24 H91         9.2090   -1.5590    0.3230 hc        1 OX5      0.041478
     25 H92         8.3480   -2.4530   -1.0000 hc        1 OX5      0.041478
     26 H93         9.9090   -3.0980   -0.3360 hc        1 OX5      0.041478
     27 H111       10.8310   -3.1870   -2.6180 hc        1 OX5      0.041478
     28 H112        9.3500   -2.4520   -3.3720 hc        1 OX5      0.041478
     29 H113       10.9730   -1.6850   -3.6260 hc        1 OX5      0.041478
     30 H131       11.3550   -0.3870   -0.1380 hc        1 OX5      0.041478
     31 H132       12.0530   -0.3700   -1.8130 hc        1 OX5      0.041478
     32 H133       12.0740   -1.8980   -0.8360 hc        1 OX5      0.041478
     33 H5          4.6890   -0.4220   -1.9300 ha        1 OX5      0.150500
     34 H6          2.2310   -0.7390   -2.1790 ha        1 OX5      0.147000
@<TRIPOS>BOND
     1    1    2 1   
     2    1   18 1   
     3    2    3 ar  
     4    2    7 ar  
     5    3    4 ar  
     6    3   19 1   
     7    4    5 ar  
     8    4   20 1   
     9    5    6 ar  
    10    5    8 1   
    11    6    7 ar  
    12    6   33 1   
    13    7   34 1   
    14    8    9 2   
    15    8   21 1   
    16    9   10 1   
    17   10   11 1   
    18   11   12 1   
    19   11   17 2   
    20   12   15 1   
    21   12   22 1   
    22   12   23 1   
    23   13   15 1   
    24   13   24 1   
    25   13   25 1   
    26   13   26 1   
    27   14   15 1   
    28   14   27 1   
    29   14   28 1   
    30   14   29 1   
    31   15   16 1   
    32   16   30 1   
    33   16   31 1   
    34   16   32 1   
@<TRIPOS>SUBSTRUCTURE
     1 OX5         1 TEMP              0 ****  ****    0 ROOT
