@<TRIPOS>MOLECULE
OX6
   36    34     1     0     0
SMALL
bcc


@<TRIPOS>ATOM
      1 C1         -3.7140    2.6290   -0.6910 c1        1 OX6      0.269400
      2 O12        -1.0760   -1.2080   -0.4270 o         1 OX6     -0.631500
      3 C8         -0.0620   -0.8160    0.1130 c1        1 OX6      0.631500
      4 O9          1.0140   -1.6970    0.3120 o         1 OX6     -0.442500
      5 C10         0.6240   -3.0230    0.5610 c3        1 OX6      0.276500
      6 C14        -0.1890   -3.0790    1.8350 c3        1 OX6     -0.114767
      7 C13         1.8540   -3.8910    0.7100 c3        1 OX6     -0.114767
      8 C11        -0.2120   -3.5290   -0.5930 c3        1 OX6     -0.114767
      9 N7          0.0570    0.5450    0.4960 n3        1 OX6     -0.366400
     10 C6         -0.2270    1.5730   -0.4420 c3        1 OX6      0.054700
     11 C15         0.7100    2.7370   -0.2130 c3        1 OX6     -0.064700
     12 C17         2.1380    2.2840   -0.4250 c3        1 OX6     -0.093100
     13 C16         0.3840    3.8450   -1.1880 c3        1 OX6     -0.093100
     14 C3         -1.6570    2.0340   -0.2660 c2        1 OX6      0.427600
     15 O2         -2.5690    2.1840   -1.2490 os        1 OX6     -0.285200
     16 N5         -3.5100    2.7540    0.6310 n1        1 OX6     -0.514100
     17 N4         -2.2360    2.3850    0.8940 ne        1 OX6     -0.271400
     18 H1         -4.5440    2.8260   -1.1650 DU        1 OX6      0.237000
     19 H141       -1.0510   -2.6350    1.6920 hc        1 OX6      0.052811
     20 H142       -0.3410   -4.0140    2.0850 hc        1 OX6      0.052811
     21 H143        0.2980   -2.6240    2.5540 hc        1 OX6      0.052811
     22 H131        2.4090   -3.5480    1.4420 hc        1 OX6      0.052811
     23 H132        2.3680   -3.8750   -0.1240 hc        1 OX6      0.052811
     24 H133        1.5830   -4.8110    0.9100 hc        1 OX6      0.052811
     25 H111        0.0150   -4.4640   -0.7760 hc        1 OX6      0.052811
     26 H112       -0.0300   -2.9870   -1.3900 hc        1 OX6      0.052811
     27 H113       -1.1620   -3.4620   -0.3620 hc        1 OX6      0.052811
     28 HN7         0.3510    0.7600    1.3320 hn        1 OX6      0.294700
     29 H6         -0.1050    1.2290   -1.3490 h1        1 OX6      0.116700
     30 H15         0.6050    3.0650    0.7000 hc        1 OX6      0.065700
     31 H171        2.7300    3.0650   -0.4390 hc        1 OX6      0.042867
     32 H172        2.4030    1.6870    0.3060 hc        1 OX6      0.042867
     33 H173        2.2060    1.8060   -1.2780 hc        1 OX6      0.042867
     34 H161        1.1820    4.3930   -1.3390 hc        1 OX6      0.042867
     35 H162        0.0880    3.4570   -2.0370 hc        1 OX6      0.042867
     36 H163       -0.3310    4.4050   -0.8180 hc        1 OX6      0.042867
@<TRIPOS>BOND
     1    1   15 1   
     2    1   16 3   
     3    2    3 2   
     4    3    9 2   
     5    4    5 1   
     6    5    6 1   
     7    5    7 1   
     8    5    8 1   
     9    6   19 1   
    10    6   20 1   
    11    6   21 1   
    12    7   22 1   
    13    7   23 1   
    14    7   24 1   
    15    8   25 1   
    16    8   26 1   
    17    8   27 1   
    18    9   10 1   
    19    9   28 1   
    20   10   11 1   
    21   10   14 1   
    22   10   29 1   
    23   11   12 1   
    24   11   13 1   
    25   11   30 1   
    26   12   31 1   
    27   12   32 1   
    28   12   33 1   
    29   13   34 1   
    30   13   35 1   
    31   13   36 1   
    32   14   15 1   
    33   14   17 2   
    34   16   17 1   
@<TRIPOS>SUBSTRUCTURE
     1 OX6         1 TEMP              0 ****  ****    0 ROOT
