@<TRIPOS>MOLECULE
OX6
   36    36     1     0     0
SMALL
bcc


@<TRIPOS>ATOM
      1 C1         -3.2310   -1.5560   -1.2580 cc        1 OX6      0.444300
      2 O12         1.4760    0.5450   -1.4030 o         1 OX6     -0.587000
      3 O9          2.3640   -0.4700    0.4410 os        1 OX6     -0.442900
      4 C10         3.6250   -0.7150   -0.2390 c3        1 OX6      0.186800
      5 C14         4.4460   -1.4310    0.8320 c3        1 OX6     -0.114767
      6 C13         3.4140   -1.6220   -1.4400 c3        1 OX6     -0.114767
      7 C11         4.2880    0.5930   -0.6320 c3        1 OX6     -0.114767
      8 N7          0.3160    0.5170    0.6440 n         1 OX6     -0.526900
      9 C6         -0.9500    0.9280    0.0890 c3        1 OX6      0.092400
     10 C15        -1.6930    1.9450    0.9950 c3        1 OX6     -0.064700
     11 C17        -0.8100    3.1320    1.3120 c3        1 OX6     -0.093100
     12 C16        -2.9550    2.4090    0.2950 c3        1 OX6     -0.093100
     13 C3         -1.8590   -0.2530   -0.1360 cc        1 OX6      0.417700
     14 O2         -2.5020   -0.3700   -1.3780 os        1 OX6     -0.381800
     15 N5         -3.0240   -2.0880   -0.0440 nd        1 OX6     -0.347000
     16 N4         -2.1970   -1.3040    0.6350 nd        1 OX6     -0.351000
     17 H1         -3.8280   -1.8670   -2.1150 h5        1 OX6      0.100100
     18 H141        3.9320   -2.3680    1.1500 hc        1 OX6      0.052811
     19 H142        5.4480   -1.6820    0.4120 hc        1 OX6      0.052811
     20 H143        4.5730   -0.7720    1.7240 hc        1 OX6      0.052811
     21 H131        2.8520   -1.0850   -2.2420 hc        1 OX6      0.052811
     22 H132        4.4060   -1.9400   -1.8410 hc        1 OX6      0.052811
     23 H133        2.8360   -2.5280   -1.1390 hc        1 OX6      0.052811
     24 H111        4.3380    1.2780    0.2470 hc        1 OX6      0.052811
     25 H112        5.3240    0.3890   -0.9930 hc        1 OX6      0.052811
     26 H113        3.7120    1.0950   -1.4480 hc        1 OX6      0.052811
     27 HN7         0.3000    0.0610    1.5300 hn        1 OX6      0.331500
     28 H6         -0.7580    1.4120   -0.9200 h1        1 OX6      0.116700
     29 H15        -1.9760    1.4300    1.9550 hc        1 OX6      0.065700
     30 H171       -0.3810    3.5650    0.3760 hc        1 OX6      0.042867
     31 H172       -1.4110    3.9220    1.8250 hc        1 OX6      0.042867
     32 H173        0.0300    2.8400    1.9860 hc        1 OX6      0.042867
     33 H161       -3.6030    1.5400    0.0250 hc        1 OX6      0.042867
     34 H162       -3.5330    3.0860    0.9700 hc        1 OX6      0.042867
     35 H163       -2.7050    2.9680   -0.6380 hc        1 OX6      0.042867
     36 C8          1.3710    0.2160   -0.2100 c         1 OX6      0.744100
@<TRIPOS>BOND
     1    1   14 1   
     2    1   15 2   
     3    1   17 1   
     4    2   36 2   
     5    3    4 1   
     6    3   36 1   
     7    4    5 1   
     8    4    6 1   
     9    4    7 1   
    10    5   18 1   
    11    5   19 1   
    12    5   20 1   
    13    6   21 1   
    14    6   22 1   
    15    6   23 1   
    16    7   24 1   
    17    7   25 1   
    18    7   26 1   
    19    8    9 1   
    20    8   27 1   
    21    8   36 1   
    22    9   10 1   
    23    9   13 1   
    24    9   28 1   
    25   10   11 1   
    26   10   12 1   
    27   10   29 1   
    28   11   30 1   
    29   11   31 1   
    30   11   32 1   
    31   12   33 1   
    32   12   34 1   
    33   12   35 1   
    34   13   14 1   
    35   13   16 2   
    36   15   16 1   
@<TRIPOS>SUBSTRUCTURE
     1 OX6         1 TEMP              0 ****  ****    0 ROOT
