@<TRIPOS>MOLECULE
OX6
   37    36     1     0     0
SMALL
bcc


@<TRIPOS>ATOM
      1 C1          0.5900   -2.8890    1.9930 c1        1 OX6      0.517800
      2 O12         4.7860   -0.3240    3.4880 os        1 OX6     -0.402400
      3 O9          4.1660   -2.2880    4.3920 os        1 OX6     -0.405400
      4 C10         5.4620   -2.9030    3.9760 c3        1 OX6      0.199800
      5 C14         5.2650   -4.3260    4.4850 c3        1 OX6     -0.125767
      6 C13         5.5840   -2.8630    2.4690 c3        1 OX6     -0.125767
      7 C11         6.6020   -2.2090    4.6870 c3        1 OX6     -0.125767
      8 N7          2.7740   -0.5200    4.8020 nv        1 OX6     -0.462100
      9 C6          3.7390    0.7000    0.9900 c3        1 OX6     -0.116700
     10 C15         3.6490    1.5300    2.2630 c3        1 OX6     -0.089700
     11 C17         4.6760    1.1070    3.3060 c3        1 OX6      0.118400
     12 C16         3.8950    2.9980    1.9500 c3        1 OX6     -0.106100
     13 C3          2.6550   -0.3500    0.8760 c2        1 OX6      0.633600
     14 O2          2.1890   -0.3840   -0.4100 oh        1 OX6     -0.576600
     15 N5          1.3910   -2.0130    1.8750 n1        1 OX6     -0.742100
     16 N4          2.3100   -1.0790    1.9230 ne        1 OX6     -0.365400
     17 H1          1.5090   -1.0660   -0.5380 ho        1 OX6      0.453000
     18 H141        4.3730   -4.7950    4.0030 hc        1 OX6      0.071811
     19 H142        6.1760   -4.9200    4.2290 hc        1 OX6      0.071811
     20 H143        5.1220   -4.3320    5.5920 hc        1 OX6      0.071811
     21 H131        6.4340   -3.5190    2.1580 hc        1 OX6      0.071811
     22 H132        5.7850   -1.8250    2.1070 hc        1 OX6      0.071811
     23 H133        4.6470   -3.2400    1.9920 hc        1 OX6      0.071811
     24 H111        7.5370   -2.8040    4.5370 hc        1 OX6      0.071811
     25 H112        6.7680   -1.1830    4.2790 hc        1 OX6      0.071811
     26 H113        6.3980   -2.1390    5.7830 hc        1 OX6      0.071811
     27 HN7         2.1630   -1.1570    5.2720 hn        1 OX6      0.331700
     28 H6          2.4220    0.3760    4.5430 hn        1 OX6      0.331700
     29 H15         3.6560    1.3680    0.0860 hc        1 OX6      0.101700
     30 H171        2.6150    1.4470    2.6990 hc        1 OX6      0.062700
     31 H172        4.4860    1.6020    4.2930 h1        1 OX6      0.097200
     32 H173        5.7230    1.3470    2.9530 h1        1 OX6      0.097200
     33 H161        4.8840    3.1370    1.4500 hc        1 OX6      0.062367
     34 H162        3.8780    3.6050    2.8870 hc        1 OX6      0.062367
     35 H163        3.0960    3.3790    1.2680 hc        1 OX6      0.062367
     36 H72         4.7290    0.1720    0.9300 hc        1 OX6      0.101700
     37 C8          3.8770   -1.0040    4.2060 c2        1 OX6      0.765900
@<TRIPOS>BOND
     1    1   15 3   
     2    2   11 1   
     3    2   37 1   
     4    3    4 1   
     5    3   37 1   
     6    4    5 1   
     7    4    6 1   
     8    4    7 1   
     9    5   18 1   
    10    5   19 1   
    11    5   20 1   
    12    6   21 1   
    13    6   22 1   
    14    6   23 1   
    15    7   24 1   
    16    7   25 1   
    17    7   26 1   
    18    8   27 1   
    19    8   28 1   
    20    8   37 2   
    21    9   10 1   
    22    9   13 1   
    23    9   29 1   
    24    9   36 1   
    25   10   11 1   
    26   10   12 1   
    27   10   30 1   
    28   11   31 1   
    29   11   32 1   
    30   12   33 1   
    31   12   34 1   
    32   12   35 1   
    33   13   14 1   
    34   13   16 2   
    35   14   17 1   
    36   15   16 1   
@<TRIPOS>SUBSTRUCTURE
     1 OX6         1 TEMP              0 ****  ****    0 ROOT
