@<TRIPOS>MOLECULE
OX6
   37    35     1     0     0
SMALL
bcc


@<TRIPOS>ATOM
      1 C1         -0.7620   -2.3200    2.0710 c1        1 OX6      0.532800
      2 O12         4.2540   -0.6020    2.4030 os        1 OX6     -0.334700
      3 O9          4.1170   -1.7920    4.3110 os        1 OX6     -0.408400
      4 C10         5.3790   -2.5140    3.9570 c3        1 OX6      0.200800
      5 C14         5.4960   -3.4570    5.1480 c3        1 OX6     -0.127433
      6 C13         5.1840   -3.2710    2.6630 c3        1 OX6     -0.127433
      7 C11         6.5240   -1.5260    3.9090 c3        1 OX6     -0.127433
      8 N7          2.5750   -0.1170    4.0610 nh        1 OX6     -0.451100
      9 C6          3.2550   -0.2490    0.2380 c3        1 OX6     -0.078500
     10 C15         3.7510    0.3700    1.4940 c2        1 OX6      0.013900
     11 C17         6.2610    2.4360    4.4190 c3        1 OX6     -0.116800
     12 C16         3.9130    1.6700    1.7530 c2        1 OX6     -0.167000
     13 C3          1.9030   -0.9150    0.3720 c2        1 OX6      0.622600
     14 O2          1.3950   -1.1420   -0.8790 oh        1 OX6     -0.577600
     15 N5          0.2540   -1.7880    1.7390 n1        1 OX6     -0.746100
     16 N4          1.4090   -1.1950    1.5630 ne        1 OX6     -0.347400
     17 H1          0.5370   -1.5970   -0.8450 ho        1 OX6      0.458000
     18 H141        4.6130   -4.1380    5.1970 hc        1 OX6      0.073144
     19 H142        6.4240   -4.0660    5.0240 hc        1 OX6      0.073144
     20 H143        5.5620   -2.8800    6.1020 hc        1 OX6      0.073144
     21 H131        6.0250   -3.9980    2.5390 hc        1 OX6      0.073144
     22 H132        4.2230   -3.8390    2.6820 hc        1 OX6      0.073144
     23 H133        5.1830   -2.5800    1.7850 hc        1 OX6      0.073144
     24 H111        7.4860   -2.0920    3.8390 hc        1 OX6      0.073144
     25 H112        6.5450   -0.9030    4.8370 hc        1 OX6      0.073144
     26 H113        6.4450   -0.8550    3.0200 hc        1 OX6      0.073144
     27 HN7         2.1500   -0.4130    4.9170 hn        1 OX6      0.337700
     28 H6          2.0770    0.5170    3.4700 hn        1 OX6      0.337700
     29 H15         3.1820    0.5360   -0.5660 hc        1 OX6      0.121200
     30 H171        5.2700    2.7190    4.8360 hc        1 OX6      0.029700
     31 H172        7.0500    2.6440    5.1750 hc        1 OX6      0.029700
     32 H173        6.2680    1.3510    4.1680 hc        1 OX6      0.029700
     33 H161        6.4660    3.0320    3.5030 hc        1 OX6      0.029700
     34 H162        4.3490    2.0460    2.6930 ha        1 OX6      0.166500
     35 H163        3.6340    2.4380    1.0150 ha        1 OX6      0.166500
     36 H72         3.9840   -1.0350   -0.1130 hc        1 OX6      0.121200
     37 C8          3.6040   -0.8180    3.5680 c2        1 OX6      0.753900
@<TRIPOS>BOND
     1    1   15 3   
     2    2   10 1   
     3    2   37 1   
     4    3    4 1   
     5    3   37 1   
     6    4    5 1   
     7    4    6 1   
     8    4    7 1   
     9    5   18 1   
    10    5   19 1   
    11    5   20 1   
    12    6   21 1   
    13    6   22 1   
    14    6   23 1   
    15    7   24 1   
    16    7   25 1   
    17    7   26 1   
    18    8   27 1   
    19    8   28 1   
    20    8   37 2   
    21    9   10 1   
    22    9   13 1   
    23    9   29 1   
    24    9   36 1   
    25   10   12 2   
    26   11   30 1   
    27   11   31 1   
    28   11   32 1   
    29   11   33 1   
    30   12   34 1   
    31   12   35 1   
    32   13   14 1   
    33   13   16 2   
    34   14   17 1   
    35   15   16 1   
@<TRIPOS>SUBSTRUCTURE
     1 OX6         1 TEMP              0 ****  ****    0 ROOT
