@<TRIPOS>MOLECULE
OX7
   36    34     1     0     0
SMALL
bcc


@<TRIPOS>ATOM
      1 C1         -2.7860   -0.7390   -2.9280 c1        1 OX7     -0.085000
      2 O12         1.5000    0.5170   -0.4680 o         1 OX7     -0.398000
      3 C8          0.5360    0.6240    0.2640 c1        1 OX7      0.398000
      4 O9          0.1090    1.8950    0.6820 os        1 OX7     -0.281000
      5 C10         1.1180    2.8710    0.6530 c3        1 OX7      0.115000
      6 C14         1.6980    2.9560   -0.7420 c3        1 OX7     -0.232667
      7 C13         0.5330    4.2130    1.0380 c3        1 OX7     -0.232667
      8 C11         2.2100    2.4970    1.6320 c3        1 OX7     -0.232667
      9 N7         -0.1860   -0.5310    0.6580 n2        1 OX7     -0.336000
     10 C6         -0.4190   -1.5750   -0.2760 c3        1 OX7      0.110000
     11 C15        -0.7370   -2.8540    0.4670 c3        1 OX7     -0.104000
     12 C17        -1.5360   -3.7730   -0.4300 c3        1 OX7     -0.211000
     13 C16         0.5530   -3.5380    0.8680 c3        1 OX7     -0.211000
     14 C3         -1.5860   -1.2050   -1.1640 c2        1 OX7     -0.069000
     15 O2         -1.5700   -1.1510   -2.5120 os        1 OX7     -0.123000
     16 N5         -3.5500   -0.5390   -1.8410 n2        1 OX7     -0.084000
     17 N4         -2.8060   -0.8280   -0.7490 n2        1 OX7     -0.088000
     18 H1         -3.0620   -0.6100   -3.8540 DU        1 OX7      0.237000
     19 H141        1.0400    2.6290   -1.3900 hc        1 OX7      0.092111
     20 H142        1.9230    3.8870   -0.9460 hc        1 OX7      0.092111
     21 H143        2.5080    2.4050   -0.7930 hc        1 OX7      0.092111
     22 H131       -0.1830    4.4490    0.4120 hc        1 OX7      0.092111
     23 H132        1.2340    4.8970    1.0060 hc        1 OX7      0.092111
     24 H133        0.1680    4.1620    1.9480 hc        1 OX7      0.092111
     25 H111        1.8060    2.1960    2.4730 hc        1 OX7      0.092111
     26 H112        2.7760    3.2780    1.8030 hc        1 OX7      0.092111
     27 H113        2.7540    1.7750    1.2540 hc        1 OX7      0.092111
     28 HN7        -0.5330   -0.5860    1.4990 hn        1 OX7      0.245000
     29 H6          0.3790   -1.7060   -0.8240 h1        1 OX7      0.156000
     30 H15        -1.2570   -2.6460    1.2670 hc        1 OX7      0.105000
     31 H171       -1.5800   -4.6660   -0.0290 hc        1 OX7      0.082167
     32 H172       -2.4440   -3.4180   -0.5360 hc        1 OX7      0.082167
     33 H173       -1.1040   -3.8300   -1.3080 hc        1 OX7      0.082167
     34 H161        1.1140   -3.6670    0.0750 hc        1 OX7      0.082167
     35 H162        0.3500   -4.4080    1.2700 hc        1 OX7      0.082167
     36 H163        1.0290   -2.9800    1.5190 hc        1 OX7      0.082167
@<TRIPOS>BOND
     1    1   15 1   
     2    1   16 1   
     3    2    3 1   
     4    3    4 1   
     5    4    5 1   
     6    5    6 1   
     7    5    7 1   
     8    5    8 1   
     9    6   19 1   
    10    6   20 1   
    11    6   21 1   
    12    7   22 1   
    13    7   23 1   
    14    7   24 1   
    15    8   25 1   
    16    8   26 1   
    17    8   27 1   
    18    9   10 1   
    19    9   28 1   
    20   10   11 1   
    21   10   14 1   
    22   10   29 1   
    23   11   12 1   
    24   11   13 1   
    25   11   30 1   
    26   12   31 1   
    27   12   32 1   
    28   12   33 1   
    29   13   34 1   
    30   13   35 1   
    31   13   36 1   
    32   14   15 1   
    33   14   17 1   
    34   16   17 1   
@<TRIPOS>SUBSTRUCTURE
     1 OX7         1 TEMP              0 ****  ****    0 ROOT
