@<TRIPOS>MOLECULE
OX7
   37    34     1     0     0
SMALL
bcc


@<TRIPOS>ATOM
      1 C1          0.1920    1.4610    2.1290 c1        1 OX7      0.511800
      2 O12         6.4710    1.6180    3.7800 o         1 OX7     -0.435000
      3 O9          4.8970    3.2600    4.2180 os        1 OX7     -0.418900
      4 C10         5.8500    4.1860    4.9150 c3        1 OX7      0.202800
      5 C14         6.9320    4.5990    3.9420 c3        1 OX7     -0.130767
      6 C13         4.9240    5.3390    5.2670 c3        1 OX7     -0.130767
      7 C11         6.3960    3.4950    6.1440 c3        1 OX7     -0.130767
      8 N7          4.2280    1.3430    3.0930 nz        1 OX7     -0.719400
      9 C6          3.2550   -2.1530    1.1230 ce        1 OX7     -0.248700
     10 C15         4.4320   -1.8270    1.5860 c1        1 OX7      0.023200
     11 C17         1.8840   -5.0090   -0.6430 c3        1 OX7     -0.119800
     12 C16         5.6260   -1.5660    2.0210 c2        1 OX7     -0.259100
     13 C3          2.0510   -1.3060    1.2360 ce        1 OX7      0.712900
     14 O2          0.9870   -1.9400    0.6520 oh        1 OX7     -0.566600
     15 N5          1.0620    0.6630    1.9560 n1        1 OX7     -0.748100
     16 N4          2.1040   -0.1220    1.8330 nf        1 OX7     -0.404400
     17 H1          0.1720   -1.4130    0.7060 ho        1 OX7      0.455000
     18 H141        7.5890    3.7330    3.6830 hc        1 OX7      0.073700
     19 H142        7.5630    5.3910    4.4180 hc        1 OX7      0.073700
     20 H143        6.4850    5.0150    3.0080 hc        1 OX7      0.073700
     21 H131        5.5210    6.1180    5.8020 hc        1 OX7      0.073700
     22 H132        4.0970    4.9920    5.9320 hc        1 OX7      0.073700
     23 H133        4.4830    5.7870    4.3450 hc        1 OX7      0.073700
     24 H111        6.9980    4.2300    6.7350 hc        1 OX7      0.073700
     25 H112        7.0590    2.6410    5.8630 hc        1 OX7      0.073700
     26 H113        5.5640    3.1190    6.7880 hc        1 OX7      0.073700
     27 HN7         3.4740    1.1750    3.7700 hn        1 OX7      0.483800
     28 H6          3.8420    1.8890    2.3140 hn        1 OX7      0.483800
     29 H15         3.0820   -3.1200    0.6000 ha        1 OX7      0.211000
     30 H171        2.3060   -5.4780    0.2730 hc        1 OX7      0.030450
     31 H172        1.2660   -4.1270   -0.3620 hc        1 OX7      0.030450
     32 H173        1.2470   -5.7500   -1.1740 hc        1 OX7      0.030450
     33 H161        2.7110   -4.6890   -1.3140 hc        1 OX7      0.030450
     34 H162        6.3890   -1.0760    1.3940 ha        1 OX7      0.163000
     35 H163        5.9720   -1.8830    3.0200 ha        1 OX7      0.163000
     36 H72         4.5770    0.4360    2.7360 hn        1 OX7      0.483800
     37 C8          5.3460    2.0980    3.7460 c         1 OX7      0.629100
@<TRIPOS>BOND
     1    1   15 3   
     2    2   37 2   
     3    3    4 1   
     4    3   37 1   
     5    4    5 1   
     6    4    6 1   
     7    4    7 1   
     8    5   18 1   
     9    5   19 1   
    10    5   20 1   
    11    6   21 1   
    12    6   22 1   
    13    6   23 1   
    14    7   24 1   
    15    7   25 1   
    16    7   26 1   
    17    8   27 1   
    18    8   28 1   
    19    8   36 1   
    20    8   37 1   
    21    9   10 2   
    22    9   13 1   
    23    9   29 1   
    24   10   12 2   
    25   11   30 1   
    26   11   31 1   
    27   11   32 1   
    28   11   33 1   
    29   12   34 1   
    30   12   35 1   
    31   13   14 1   
    32   13   16 2   
    33   14   17 1   
    34   15   16 1   
@<TRIPOS>SUBSTRUCTURE
     1 OX7         1 TEMP              0 ****  ****    0 ROOT
