@<TRIPOS>MOLECULE
OX7
   37    36     1     0     0
SMALL
bcc


@<TRIPOS>ATOM
      1 C1          1.6000   -1.3220   -2.2170 c1        1 OX7      0.661800
      2 O12         3.9930    1.2370    4.6510 o         1 OX7     -0.642000
      3 O9          5.5100    2.6790    5.4990 os        1 OX7     -0.424900
      4 C10         6.1370    2.9600    4.2180 c3        1 OX7      0.165800
      5 C14         5.1340    3.5860    3.2640 c3        1 OX7     -0.112433
      6 C13         7.2300    3.9640    4.5790 c3        1 OX7     -0.112433
      7 C11         6.7470    1.6940    3.6420 c3        1 OX7     -0.112433
      8 N7          1.6060    0.0580    3.4130 n3        1 OX7     -0.937800
      9 C6          2.6140   -0.1510    2.4450 c3        1 OX7      0.189200
     10 C15         3.2420   -1.5740    2.3440 c3        1 OX7     -0.105700
     11 C17         3.0150   -2.0860    0.9070 c3        1 OX7      0.026300
     12 C16         4.7090   -1.5230    2.6910 c3        1 OX7     -0.110100
     13 C3          2.0210    0.0480    0.9980 c2        1 OX7      0.520600
     14 O2          1.4220    1.1960    0.7180 oh        1 OX7     -0.472600
     15 N5          1.8910   -1.1340   -1.0740 n1        1 OX7     -0.652800
     16 N4          2.2440   -1.0190    0.1930 nh        1 OX7     -0.107400
     17 H1          1.0510    1.2480   -0.1890 ho        1 OX7      0.481000
     18 H141        4.6260    4.4510    3.7540 hc        1 OX7      0.053144
     19 H142        4.3610    2.8390    2.9630 hc        1 OX7      0.053144
     20 H143        5.6650    3.9490    2.3530 hc        1 OX7      0.053144
     21 H131        6.7780    4.8770    5.0340 hc        1 OX7      0.053144
     22 H132        7.9390    3.5130    5.3140 hc        1 OX7      0.053144
     23 H133        7.7860    4.2470    3.6550 hc        1 OX7      0.053144
     24 H111        7.3560    1.9520    2.7430 hc        1 OX7      0.053144
     25 H112        7.4100    1.2080    4.3990 hc        1 OX7      0.053144
     26 H113        5.9480    0.9710    3.3460 hc        1 OX7      0.053144
     27 HN7         4.1450    1.7720    6.6820 h5        1 OX7      0.091200
     28 H6          1.2460   -0.7700    3.8350 hn        1 OX7      0.420800
     29 H15         3.4310    0.6360    2.5300 h1        1 OX7      0.145700
     30 H171        2.7250   -2.2810    3.0520 hc        1 OX7      0.099700
     31 H172        2.4100   -3.0340    0.8940 h1        1 OX7      0.106700
     32 H173        3.9870   -2.2540    0.3660 h1        1 OX7      0.106700
     33 H161        5.2820   -0.9200    1.9450 hc        1 OX7      0.067367
     34 H162        5.1370   -2.5550    2.7180 hc        1 OX7      0.067367
     35 H163        4.8420   -1.0520    3.6990 hc        1 OX7      0.067367
     36 H72         1.8330    0.7730    4.0740 hn        1 OX7      0.420800
     37 C8          4.4720    1.8350    5.6220 c         1 OX7      0.670900
@<TRIPOS>BOND
     1    1   15 3   
     2    2   37 2   
     3    3    4 1   
     4    3   37 1   
     5    4    5 1   
     6    4    6 1   
     7    4    7 1   
     8    5   18 1   
     9    5   19 1   
    10    5   20 1   
    11    6   21 1   
    12    6   22 1   
    13    6   23 1   
    14    7   24 1   
    15    7   25 1   
    16    7   26 1   
    17    8    9 1   
    18    8   28 1   
    19    8   36 1   
    20    9   10 1   
    21    9   13 1   
    22    9   29 1   
    23   10   11 1   
    24   10   12 1   
    25   10   30 1   
    26   11   16 1   
    27   11   31 1   
    28   11   32 1   
    29   12   33 1   
    30   12   34 1   
    31   12   35 1   
    32   13   14 1   
    33   13   16 2   
    34   14   17 1   
    35   15   16 1   
    36   27   37 1   
@<TRIPOS>SUBSTRUCTURE
     1 OX7         1 TEMP              0 ****  ****    0 ROOT
