@<TRIPOS>MOLECULE
OX7
   36    36     1     0     0
SMALL
bcc


@<TRIPOS>ATOM
      1 C1          3.2330   -1.5620   -1.2430 cc        1 OX7      0.444300
      2 O12        -1.4730    0.5410   -1.4060 o         1 OX7     -0.587000
      3 O9         -2.3650   -0.4680    0.4390 os        1 OX7     -0.442900
      4 C10        -3.6250   -0.7140   -0.2440 c3        1 OX7      0.186800
      5 C14        -3.4120   -1.6240   -1.4420 c3        1 OX7     -0.114767
      6 C13        -4.4490   -1.4270    0.8280 c3        1 OX7     -0.114767
      7 C11        -4.2870    0.5930   -0.6420 c3        1 OX7     -0.114767
      8 N7         -0.3180    0.5190    0.6440 n         1 OX7     -0.526900
      9 C6          0.9500    0.9270    0.0910 c3        1 OX7      0.092400
     10 C15         1.6910    1.9460    0.9960 c3        1 OX7     -0.064700
     11 C17         2.9550    2.4080    0.2980 c3        1 OX7     -0.093100
     12 C16         0.8080    3.1350    1.3070 c3        1 OX7     -0.093100
     13 C3          1.8590   -0.2550   -0.1280 cc        1 OX7      0.417700
     14 O2          2.5050   -0.3750   -1.3680 os        1 OX7     -0.381800
     15 N5          3.0230   -2.0900   -0.0280 nd        1 OX7     -0.347000
     16 N4          2.1940   -1.3030    0.6470 nd        1 OX7     -0.351000
     17 H1          3.8320   -1.8750   -2.0970 h5        1 OX7      0.100100
     18 H141       -2.8350   -2.5300   -1.1370 hc        1 OX7      0.052811
     19 H142       -4.4020   -1.9430   -1.8450 hc        1 OX7      0.052811
     20 H143       -2.8480   -1.0900   -2.2440 hc        1 OX7      0.052811
     21 H131       -4.5780   -0.7660    1.7170 hc        1 OX7      0.052811
     22 H132       -5.4500   -1.6790    0.4060 hc        1 OX7      0.052811
     23 H133       -3.9360   -2.3640    1.1490 hc        1 OX7      0.052811
     24 H111       -3.7090    1.0920   -1.4580 hc        1 OX7      0.052811
     25 H112       -5.3220    0.3880   -1.0050 hc        1 OX7      0.052811
     26 H113       -4.3380    1.2800    0.2360 hc        1 OX7      0.052811
     27 HN7        -0.3040    0.0660    1.5310 hn        1 OX7      0.331500
     28 H6          0.7610    1.4080   -0.9200 h1        1 OX7      0.116700
     29 H15         1.9710    1.4340    1.9590 hc        1 OX7      0.065700
     30 H171        2.7080    2.9640   -0.6380 hc        1 OX7      0.042867
     31 H172        3.5310    3.0860    0.9720 hc        1 OX7      0.042867
     32 H173        3.6040    1.5380    0.0320 hc        1 OX7      0.042867
     33 H161       -0.0340    2.8450    1.9800 hc        1 OX7      0.042867
     34 H162        1.4080    3.9270    1.8200 hc        1 OX7      0.042867
     35 H163        0.3810    3.5660    0.3690 hc        1 OX7      0.042867
     36 C8         -1.3710    0.2160   -0.2120 c         1 OX7      0.744100
@<TRIPOS>BOND
     1    1   14 1   
     2    1   15 2   
     3    1   17 1   
     4    2   36 2   
     5    3    4 1   
     6    3   36 1   
     7    4    5 1   
     8    4    6 1   
     9    4    7 1   
    10    5   18 1   
    11    5   19 1   
    12    5   20 1   
    13    6   21 1   
    14    6   22 1   
    15    6   23 1   
    16    7   24 1   
    17    7   25 1   
    18    7   26 1   
    19    8    9 1   
    20    8   27 1   
    21    8   36 1   
    22    9   10 1   
    23    9   13 1   
    24    9   28 1   
    25   10   11 1   
    26   10   12 1   
    27   10   29 1   
    28   11   30 1   
    29   11   31 1   
    30   11   32 1   
    31   12   33 1   
    32   12   34 1   
    33   12   35 1   
    34   13   14 1   
    35   13   16 2   
    36   15   16 1   
@<TRIPOS>SUBSTRUCTURE
     1 OX7         1 TEMP              0 ****  ****    0 ROOT
