@<TRIPOS>MOLECULE
OXC
   15    15     1     0     0
SMALL
bcc


@<TRIPOS>ATOM
      1 N1          0.0110   -0.1090   -0.0910 ns        1 OXC     -0.609500
      2 C2          1.4200   -0.1030   -0.0320 c         1 OXC      0.787500
      3 O2          2.0620   -0.0610   -1.1110 o         1 OXC     -0.693500
      4 N3          2.0490   -0.2400    1.2100 ns        1 OXC     -0.497900
      5 C4          1.2790   -0.0830    2.4480 c3        1 OXC      0.041100
      6 N5         -0.1790   -0.1530    2.3230 ns        1 OXC     -0.497900
      7 C6         -0.7860   -0.0170    1.0690 c         1 OXC      0.787500
      8 O6         -2.0290    0.0980    0.9320 o         1 OXC     -0.693500
      9 CG          1.7460    1.1990    3.2830 c         1 OXC      0.896600
     10 OD1         2.9210    1.5970    3.0850 o         1 OXC     -0.806300
     11 OD2         0.9080    1.6760    4.0890 o         1 OXC     -0.806300
     12 HN1        -0.4320   -0.1100   -0.9780 hn        1 OXC      0.337500
     13 HN3         2.9390    0.2280    1.2720 hn        1 OXC      0.342500
     14 H4          1.5610   -0.9840    3.0820 h2        1 OXC      0.068700
     15 HN5        -0.6340    0.3670    3.0560 hn        1 OXC      0.342500
@<TRIPOS>BOND
     1    1    2 1   
     2    1    7 1   
     3    1   12 1   
     4    2    3 2   
     5    2    4 1   
     6    4    5 1   
     7    4   13 1   
     8    5    6 1   
     9    5    9 1   
    10    5   14 1   
    11    6    7 1   
    12    6   15 1   
    13    7    8 2   
    14    9   10 1   
    15    9   11 1   
@<TRIPOS>SUBSTRUCTURE
     1 OXC         1 TEMP              0 ****  ****    0 ROOT
