@<TRIPOS>MOLECULE
OXC
   15    15     1     0     0
SMALL
bcc


@<TRIPOS>ATOM
      1 N1         -0.8380   -0.2840   -1.6290 n         1 OXC     -0.609500
      2 C2          0.5580   -0.0890   -1.6010 c         1 OXC      0.787500
      3 O2          1.1530    0.2060   -2.6220 o         1 OXC     -0.693500
      4 N3          1.2640   -0.1940   -0.3740 n         1 OXC     -0.497900
      5 C4          0.5370   -0.1880    0.8870 c3        1 OXC      0.041100
      6 N5         -0.8250   -0.6740    0.7910 n         1 OXC     -0.497900
      7 C6         -1.5360   -0.5590   -0.4320 c         1 OXC      0.787500
      8 O6         -2.7440   -0.6770   -0.4470 o         1 OXC     -0.693500
      9 CG          0.5830    1.2390    1.5600 c         1 OXC      0.896600
     10 OD1         1.1850    2.1890    0.9850 o         1 OXC     -0.806300
     11 OD2        -0.0290    1.4440    2.6430 o         1 OXC     -0.806300
     12 HN1        -1.2900   -0.2540   -2.4270 hn        1 OXC      0.337500
     13 HN3         2.1620   -0.3460   -0.3790 hn        1 OXC      0.342500
     14 H4          1.0260   -0.7130    1.5470 h2        1 OXC      0.068700
     15 HN5        -1.2060   -1.1000    1.4990 hn        1 OXC      0.342500
@<TRIPOS>BOND
     1    1    2 1   
     2    1    7 1   
     3    1   12 1   
     4    2    3 2   
     5    2    4 1   
     6    4    5 1   
     7    4   13 1   
     8    5    6 1   
     9    5    9 1   
    10    5   14 1   
    11    6    7 1   
    12    6   15 1   
    13    7    8 2   
    14    9   10 1   
    15    9   11 1   
@<TRIPOS>SUBSTRUCTURE
     1 OXC         1 TEMP              0 ****  ****    0 ROOT
