@<TRIPOS>MOLECULE
OXC
   15    15     1     0     0
SMALL
bcc


@<TRIPOS>ATOM
      1 N1         -0.1630   -0.1890   -1.9410 n         1 OXC     -0.609500
      2 C2         -1.3370   -0.0080   -1.1810 c         1 OXC      0.787500
      3 O2         -2.4360   -0.3410   -1.6900 o         1 OXC     -0.693500
      4 N3         -1.2490    0.6210    0.0660 n         1 OXC     -0.497900
      5 C4          0.0560    0.8070    0.7070 c3        1 OXC      0.041100
      6 N5          1.2330    0.6570   -0.1530 n         1 OXC     -0.497900
      7 C6          1.1190    0.0280   -1.3980 c         1 OXC      0.787500
      8 O6          2.1210   -0.2740   -2.0930 o         1 OXC     -0.693500
      9 CG          0.1870   -0.0450    2.0540 c         1 OXC      0.896600
     10 OD1        -0.8870   -0.3440    2.6320 o         1 OXC     -0.806300
     11 OD2         1.3540   -0.3120    2.4350 o         1 OXC     -0.806300
     12 HN1        -0.2400   -0.5450   -2.8640 hn        1 OXC      0.337500
     13 HN3        -1.9410    0.3110    0.7300 hn        1 OXC      0.342500
     14 H4          0.0680    1.8980    1.0290 h2        1 OXC      0.068700
     15 HN5         2.0390    0.3690    0.3790 hn        1 OXC      0.342500
@<TRIPOS>BOND
     1    1    2 1   
     2    1    7 1   
     3    1   12 1   
     4    2    3 2   
     5    2    4 1   
     6    4    5 1   
     7    4   13 1   
     8    5    6 1   
     9    5    9 1   
    10    5   14 1   
    11    6    7 1   
    12    6   15 1   
    13    7    8 2   
    14    9   10 1   
    15    9   11 1   
@<TRIPOS>SUBSTRUCTURE
     1 OXC         1 TEMP              0 ****  ****    0 ROOT
