@<TRIPOS>MOLECULE
OXC
   15    15     1     0     0
SMALL
bcc


@<TRIPOS>ATOM
      1 N1         -0.0050   -0.1010   -0.0760 n         1 OXC     -0.609500
      2 C2          1.4040   -0.0860   -0.0350 c         1 OXC      0.787500
      3 O2          2.0320   -0.0350   -1.1220 o         1 OXC     -0.693500
      4 N3          2.0500   -0.2260    1.1980 n         1 OXC     -0.497900
      5 C4          1.2950   -0.0800    2.4460 c3        1 OXC      0.041100
      6 N5         -0.1640   -0.1580    2.3390 n         1 OXC     -0.497900
      7 C6         -0.7880   -0.0190    1.0940 c         1 OXC      0.787500
      8 O6         -2.0330    0.0890    0.9740 o         1 OXC     -0.693500
      9 CG          1.7650    1.2010    3.2820 c         1 OXC      0.896600
     10 OD1         2.9350    1.6070    3.0710 o         1 OXC     -0.806300
     11 OD2         0.9350    1.6680    4.1010 o         1 OXC     -0.806300
     12 HN1        -0.4600   -0.1000   -0.9580 hn        1 OXC      0.337500
     13 HN3         2.9380    0.2470    1.2510 hn        1 OXC      0.342500
     14 H4          1.5900   -0.9820    3.0720 h2        1 OXC      0.068700
     15 HN5        -0.6120    0.3560    3.0810 hn        1 OXC      0.342500
@<TRIPOS>BOND
     1    1    2 1   
     2    1    7 1   
     3    1   12 1   
     4    2    3 2   
     5    2    4 1   
     6    4    5 1   
     7    4   13 1   
     8    5    6 1   
     9    5    9 1   
    10    5   14 1   
    11    6    7 1   
    12    6   15 1   
    13    7    8 2   
    14    9   10 1   
    15    9   11 1   
@<TRIPOS>SUBSTRUCTURE
     1 OXC         1 TEMP              0 ****  ****    0 ROOT
