@<TRIPOS>MOLECULE
OXD
    6     4     1     0     0
SMALL
bcc


@<TRIPOS>ATOM
      1 C1          0.4290    0.1280    0.6100 c1        1 OXD      0.768000
      2 C2         -0.4290   -0.1280   -0.6100 c1        1 OXD      0.768000
      3 O3          1.6840    0.1050    0.5130 o         1 OXD     -0.884500
      4 O4         -0.7880   -1.3010   -0.8930 o         1 OXD     -0.884500
      5 O5         -0.1120    0.3630    1.7220 o         1 OXD     -0.884500
      6 O6         -0.7840    0.8330   -1.3420 o         1 OXD     -0.884500
@<TRIPOS>BOND
     1    1    3 2   
     2    1    5 2   
     3    2    4 2   
     4    2    6 2   
@<TRIPOS>SUBSTRUCTURE
     1 OXD         1 TEMP              0 ****  ****    0 ROOT
