@<TRIPOS>MOLECULE
OXD
    6     5     1     0     0
SMALL
bcc


@<TRIPOS>ATOM
      1 C1         -0.1340   -0.0000    0.7590 c         1 OXD      0.808600
      2 C2          0.1340    0.0000   -0.7590 c         1 OXD      0.808600
      3 O3         -1.3270   -0.0000    1.2080 o         1 OXD     -0.904300
      4 O4          1.3270    0.0000   -1.2080 o         1 OXD     -0.904300
      5 O5          0.8340   -0.0000    1.5890 o         1 OXD     -0.904300
      6 O6         -0.8340    0.0000   -1.5890 o         1 OXD     -0.904300
@<TRIPOS>BOND
     1    1    2 1   
     2    1    3 1   
     3    1    5 1   
     4    2    4 1   
     5    2    6 1   
@<TRIPOS>SUBSTRUCTURE
     1 OXD         1 TEMP              0 ****  ****    0 ROOT
