@<TRIPOS>MOLECULE
OXE
   18    18     1     0     0
SMALL
bcc


@<TRIPOS>ATOM
      1 C1          0.7020   -0.0450    0.5260 ca        1 OXE     -0.078300
      2 C2         -0.7020    0.0460    0.5260 ca        1 OXE     -0.078300
      3 C3         -1.3890    0.0900   -0.6920 ca        1 OXE     -0.127000
      4 C4         -0.6960    0.0450   -1.8990 ca        1 OXE     -0.132000
      5 C5          0.6960   -0.0450   -1.8990 ca        1 OXE     -0.132000
      6 C6          1.3890   -0.0900   -0.6920 ca        1 OXE     -0.127000
      7 C1'         1.4470   -0.0940    1.8050 c3        1 OXE     -0.051800
      8 C2'        -1.4470    0.0940    1.8050 c3        1 OXE     -0.051800
      9 H3         -2.4870    0.1610   -0.6940 ha        1 OXE      0.130000
     10 H4         -1.2460    0.0810   -2.8500 ha        1 OXE      0.130000
     11 H5          1.2460   -0.0810   -2.8500 ha        1 OXE      0.130000
     12 H6          2.4870   -0.1610   -0.6940 ha        1 OXE      0.130000
     13 H1'1        1.2420    0.8270    2.4080 hc        1 OXE      0.043367
     14 H1'2        1.1250   -0.9800    2.4080 hc        1 OXE      0.043367
     15 H1'3        2.5490   -0.1660    1.6330 hc        1 OXE      0.043367
     16 H2'1       -1.2420   -0.8270    2.4080 hc        1 OXE      0.043367
     17 H2'2       -1.1250    0.9800    2.4080 hc        1 OXE      0.043367
     18 H2'3       -2.5490    0.1660    1.6330 hc        1 OXE      0.043367
@<TRIPOS>BOND
     1    1    2 ar  
     2    1    6 ar  
     3    1    7 1   
     4    2    3 ar  
     5    2    8 1   
     6    3    4 ar  
     7    3    9 1   
     8    4    5 ar  
     9    4   10 1   
    10    5    6 ar  
    11    5   11 1   
    12    6   12 1   
    13    7   13 1   
    14    7   14 1   
    15    7   15 1   
    16    8   16 1   
    17    8   17 1   
    18    8   18 1   
@<TRIPOS>SUBSTRUCTURE
     1 OXE         1 TEMP              0 ****  ****    0 ROOT
