@<TRIPOS>MOLECULE
OXE
   18    15     1     0     0
SMALL
bcc


@<TRIPOS>ATOM
      1 C1         -0.6930    0.0040   -0.2180 c1        1 OXE     -0.044100
      2 C2          0.6930    0.0040   -0.2180 c1        1 OXE     -0.044100
      3 C3          1.3860    0.0040    0.9820 c1        1 OXE     -0.069500
      4 C4          0.6930    0.0040    2.1830 c1        1 OXE     -0.074500
      5 C5         -0.6930    0.0040    2.1830 c1        1 OXE     -0.074500
      6 C6         -1.3860    0.0040    0.9820 c1        1 OXE     -0.069500
      7 C1'        -1.4490   -0.0060   -1.5280 c3        1 OXE     -0.086000
      8 C2'         1.4490   -0.0020   -1.5280 c3        1 OXE     -0.086000
      9 H3          2.3620    0.0040    0.9820 ha        1 OXE      0.072500
     10 H4          1.1810    0.0040    3.0280 ha        1 OXE      0.072500
     11 H5         -1.1810    0.0040    3.0280 ha        1 OXE      0.072500
     12 H6         -2.3620    0.0040    0.9820 ha        1 OXE      0.072500
     13 H1'1       -1.2140    0.7860   -2.0460 hc        1 OXE      0.043367
     14 H1'2       -2.4090   -0.0050   -1.3500 hc        1 OXE      0.043367
     15 H1'3       -1.2130   -0.8080   -2.0330 hc        1 OXE      0.043367
     16 H2'1        2.4090    0.0020   -1.3500 hc        1 OXE      0.043367
     17 H2'2        1.2110    0.7910   -2.0450 hc        1 OXE      0.043367
     18 H2'3        1.2160   -0.8030   -2.0350 hc        1 OXE      0.043367
@<TRIPOS>BOND
     1    1    6 3   
     2    1    7 1   
     3    2    3 3   
     4    2    8 1   
     5    3    9 1   
     6    4    5 3   
     7    4   10 1   
     8    5   11 1   
     9    6   12 1   
    10    7   13 1   
    11    7   14 1   
    12    7   15 1   
    13    8   16 1   
    14    8   17 1   
    15    8   18 1   
@<TRIPOS>SUBSTRUCTURE
     1 OXE         1 TEMP              0 ****  ****    0 ROOT
