@<TRIPOS>MOLECULE
OXG
   15    13     1     0     0
SMALL
bcc


@<TRIPOS>ATOM
      1 N9          0.6130    0.2090   -2.4870 n1        1 OXG     -0.157000
      2 C8          2.1590    0.2090   -2.4870 c1        1 OXG      0.240000
      3 N7          2.4120    0.2090   -0.9690 n2        1 OXG     -0.055000
      4 C5          1.1910    0.1640   -0.3300 c1        1 OXG     -0.136000
      5 C6          1.0010    0.1710    1.1310 c1        1 OXG      0.379000
      6 O6          1.9110    0.5140    1.8600 o         1 OXG     -0.258000
      7 N1         -0.3160    0.0760    1.6400 n3        1 OXG     -0.375000
      8 C2         -1.4360   -0.0590    0.6820 c2        1 OXG      0.303000
      9 N2         -2.7170   -0.4630    1.1400 n3        1 OXG     -0.355000
     10 N3         -1.1190   -0.1010   -0.7660 n1        1 OXG     -0.247000
     11 C4          0.1790    0.2400   -1.1670 c1        1 OXG      0.088000
     12 O8          2.8730   -0.2970   -3.3290 o         1 OXG     -0.178000
     13 H1         -0.4840    0.2840    2.5120 hn        1 OXG      0.255000
     14 H21        -3.3600   -0.7040    0.5400 hn        1 OXG      0.248000
     15 H22        -2.9070   -0.4490    2.0320 hn        1 OXG      0.248000
@<TRIPOS>BOND
     1    1   11 1   
     2    2    3 1   
     3    2   12 1   
     4    3    4 1   
     5    4   11 1   
     6    5    6 1   
     7    5    7 1   
     8    7    8 1   
     9    7   13 1   
    10    8    9 1   
    11    8   10 1   
    12    9   14 1   
    13    9   15 1   
@<TRIPOS>SUBSTRUCTURE
     1 OXG         1 TEMP              0 ****  ****    0 ROOT
