@<TRIPOS>MOLECULE
OXG
   16    17     1     0     0
SMALL
bcc


@<TRIPOS>ATOM
      1 N9         -0.0950   -0.0020   -0.0510 nc        1 OXG     -0.453100
      2 C8          1.4080   -0.0010   -0.0840 c         1 OXG      0.743900
      3 N7          1.9590    0.0010    1.3300 nc        1 OXG     -0.418100
      4 C5          0.9070    0.0010    2.0860 cd        1 OXG      0.237000
      5 C6          0.7820    0.0030    3.5580 c         1 OXG      0.658200
      6 O6          1.6920    0.0050    4.3780 o         1 OXG     -0.441500
      7 N1         -0.5610    0.0020    4.0510 n         1 OXG     -0.528400
      8 C2         -1.6470    0.0000    3.1730 cc        1 OXG      0.592800
      9 N2         -3.0200   -0.0000    3.7980 n4        1 OXG     -0.812600
     10 N3         -1.6500   -0.0010    1.8550 nd        1 OXG     -0.610000
     11 C4         -0.3940   -0.0010    1.2240 cd        1 OXG      0.513000
     12 O8          2.0900   -0.0020   -1.0910 o         1 OXG     -0.318100
     13 H1         -0.6780    0.0040    5.0450 hn        1 OXG      0.362500
     14 H21        -3.7400   -0.0020    3.0530 hn        1 OXG      0.492800
     15 H22        -3.1370    0.8430    4.3740 hn        1 OXG      0.492800
     16 H23        -3.1350   -0.8420    4.3760 hn        1 OXG      0.492800
@<TRIPOS>BOND
     1    1    2 1   
     2    1   11 2   
     3    2    3 1   
     4    2   12 2   
     5    3    4 2   
     6    4    5 1   
     7    4   11 1   
     8    5    6 2   
     9    5    7 1   
    10    7    8 1   
    11    7   13 1   
    12    8    9 1   
    13    8   10 2   
    14    9   14 1   
    15    9   15 1   
    16    9   16 1   
    17   10   11 1   
@<TRIPOS>SUBSTRUCTURE
     1 OXG         1 TEMP              0 ****  ****    0 ROOT
