@<TRIPOS>MOLECULE
OXG
   15    16     1     0     0
SMALL
bcc


@<TRIPOS>ATOM
      1 N9          1.4320    0.0100   -1.5630 nc        1 OXG     -0.584100
      2 C8          0.2770    0.0070   -2.4770 c         1 OXG      0.757900
      3 N7         -1.0330    0.0010   -1.6940 nc        1 OXG     -0.482100
      4 C5         -0.6540   -0.0010   -0.4590 cd        1 OXG      0.221000
      5 C6         -1.4330   -0.0060    0.7990 c         1 OXG      0.652200
      6 O6         -2.6650   -0.0220    0.8780 o         1 OXG     -0.533500
      7 N1         -0.6720    0.0160    1.9800 n         1 OXG     -0.535400
      8 C2          0.7470   -0.0110    1.9850 cc        1 OXG      0.749800
      9 N2          1.3720   -0.1020    3.2240 nh        1 OXG     -0.916800
     10 N3          1.5340    0.0120    0.8860 nd        1 OXG     -0.754000
     11 C4          0.9130    0.0050   -0.3460 cd        1 OXG      0.595000
     12 O8          0.3150    0.0090   -3.7000 o         1 OXG     -0.417100
     13 H1         -1.1780   -0.0260    2.8400 hn        1 OXG      0.341500
     14 H21         2.3650   -0.0390    3.2470 hn        1 OXG      0.452800
     15 H22         0.8750    0.1480    4.0440 hn        1 OXG      0.452800
@<TRIPOS>BOND
     1    1    2 1   
     2    1   11 2   
     3    2    3 1   
     4    2   12 2   
     5    3    4 2   
     6    4    5 1   
     7    4   11 1   
     8    5    6 2   
     9    5    7 1   
    10    7    8 1   
    11    7   13 1   
    12    8    9 1   
    13    8   10 2   
    14    9   14 1   
    15    9   15 1   
    16   10   11 1   
@<TRIPOS>SUBSTRUCTURE
     1 OXG         1 TEMP              0 ****  ****    0 ROOT
