@<TRIPOS>MOLECULE
OXG
   16    17     1     0     0
SMALL
bcc


@<TRIPOS>ATOM
      1 N9         -0.0960   -0.0030   -0.0520 nc        1 OXG     -0.453100
      2 C8          1.4070   -0.0010   -0.0850 c         1 OXG      0.743900
      3 N7          1.9580    0.0020    1.3290 nc        1 OXG     -0.418100
      4 C5          0.9070    0.0020    2.0850 cd        1 OXG      0.237000
      5 C6          0.7820    0.0040    3.5570 c         1 OXG      0.658200
      6 O6          1.6920    0.0060    4.3770 o         1 OXG     -0.441500
      7 N1         -0.5610    0.0030    4.0510 ns        1 OXG     -0.528400
      8 C2         -1.6460    0.0000    3.1740 cc        1 OXG      0.592800
      9 N2         -3.0190   -0.0010    3.7980 nz        1 OXG     -0.812600
     10 N3         -1.6510   -0.0020    1.8550 nd        1 OXG     -0.610000
     11 C4         -0.3950   -0.0010    1.2240 cd        1 OXG      0.513000
     12 O8          2.0880   -0.0020   -1.0920 o         1 OXG     -0.318100
     13 H1         -0.6770    0.0040    5.0450 hn        1 OXG      0.362500
     14 H21        -3.7390   -0.0030    3.0540 hn        1 OXG      0.492800
     15 H22        -3.1370    0.8430    4.3740 hn        1 OXG      0.492800
     16 H23        -3.1340   -0.8420    4.3780 hn        1 OXG      0.492800
@<TRIPOS>BOND
     1    1    2 1   
     2    1   11 2   
     3    2    3 1   
     4    2   12 2   
     5    3    4 2   
     6    4    5 1   
     7    4   11 1   
     8    5    6 2   
     9    5    7 1   
    10    7    8 1   
    11    7   13 1   
    12    8    9 1   
    13    8   10 2   
    14    9   14 1   
    15    9   15 1   
    16    9   16 1   
    17   10   11 1   
@<TRIPOS>SUBSTRUCTURE
     1 OXG         1 TEMP              0 ****  ****    0 ROOT
