@<TRIPOS>MOLECULE
OXI
   29    31     1     0     0
SMALL
bcc


@<TRIPOS>ATOM
      1 C1         -0.0370    0.0770   -0.1140 c         1 OXI      0.930800
      2 O1          1.1920   -0.1930   -0.0050 o         1 OXI     -0.816300
      3 C3         -0.8650    0.0030    1.1730 cc        1 OXI     -0.257400
      4 C2         -0.3760    0.6500    2.2600 cd        1 OXI      0.056000
      5 N1         -1.0450    0.7560    3.4840 na        1 OXI     -0.528800
      6 C4         -2.1290   -0.7200    1.2500 c         1 OXI      0.599900
      7 O4         -2.6040   -1.4400    0.3580 o         1 OXI     -0.557100
      8 C10        -2.8510   -0.5780    2.5450 ca        1 OXI     -0.227600
      9 C9         -2.2750    0.1250    3.6420 ca        1 OXI      0.209600
     10 C8         -2.9760    0.2030    4.8910 ca        1 OXI     -0.203000
     11 C5         -4.1240   -1.1810    2.6440 ca        1 OXI     -0.021000
     12 C7         -4.2080   -0.3960    4.9470 ca        1 OXI      0.098100
     13 C6         -4.7840   -1.0760    3.8440 ca        1 OXI     -0.026900
     14 O6         -6.0380   -1.5760    4.2140 os        1 OXI     -0.338900
     15 O7         -5.0830   -0.4560    6.0310 os        1 OXI     -0.349900
     16 C11        -6.2440   -1.1940    5.5860 c3        1 OXI      0.324200
     17 C12        -0.3590    1.3650    4.6000 c3        1 OXI      0.218800
     18 C13         0.2870    0.3940    5.5790 c3        1 OXI     -0.123100
     19 O2         -0.6080    0.4570   -1.1670 o         1 OXI     -0.816300
     20 H2          0.6120    1.1480    2.2120 h4        1 OXI      0.167000
     21 H8         -2.5580    0.7110    5.7680 ha        1 OXI      0.146000
     22 H5         -4.5410   -1.7110    1.7740 ha        1 OXI      0.176000
     23 H111       -7.1350   -0.5210    5.6450 h2        1 OXI      0.056200
     24 H112       -6.3340   -2.1190    6.2090 h2        1 OXI      0.056200
     25 H121       -1.0880    2.0220    5.1570 h1        1 OXI      0.048700
     26 H122        0.4450    2.0400    4.1840 h1        1 OXI      0.048700
     27 H131       -0.4750   -0.2840    6.0340 hc        1 OXI      0.043033
     28 H132        1.0560   -0.2330    5.0670 hc        1 OXI      0.043033
     29 H133        0.7800    0.9770    6.3920 hc        1 OXI      0.043033
@<TRIPOS>BOND
     1    1    2 1   
     2    1    3 1   
     3    1   19 1   
     4    3    4 2   
     5    3    6 1   
     6    4    5 1   
     7    4   20 1   
     8    5    9 1   
     9    5   17 1   
    10    6    7 2   
    11    6    8 1   
    12    8    9 ar  
    13    8   11 ar  
    14    9   10 ar  
    15   10   12 ar  
    16   10   21 1   
    17   11   13 ar  
    18   11   22 1   
    19   12   13 ar  
    20   12   15 1   
    21   13   14 1   
    22   14   16 1   
    23   15   16 1   
    24   16   23 1   
    25   16   24 1   
    26   17   18 1   
    27   17   25 1   
    28   17   26 1   
    29   18   27 1   
    30   18   28 1   
    31   18   29 1   
@<TRIPOS>SUBSTRUCTURE
     1 OXI         1 TEMP              0 ****  ****    0 ROOT
