@<TRIPOS>MOLECULE
OXI
   29    31     1     0     0
SMALL
bcc


@<TRIPOS>ATOM
      1 C1         -0.0400    0.0740   -0.1160 c         1 OXI      0.930800
      2 O1          1.1890   -0.2010   -0.0080 o         1 OXI     -0.816300
      3 C3         -0.8670    0.0020    1.1720 cc        1 OXI     -0.256400
      4 C2         -0.3750    0.6450    2.2590 cd        1 OXI      0.056000
      5 N1         -1.0430    0.7530    3.4840 na        1 OXI     -0.528800
      6 C4         -2.1330   -0.7180    1.2490 c         1 OXI      0.599900
      7 O4         -2.6110   -1.4350    0.3570 o         1 OXI     -0.557100
      8 C10        -2.8540   -0.5750    2.5450 ca        1 OXI     -0.227600
      9 C9         -2.2740    0.1250    3.6420 ca        1 OXI      0.209600
     10 C8         -2.9740    0.2040    4.8930 ca        1 OXI     -0.203000
     11 C5         -4.1280   -1.1740    2.6450 ca        1 OXI     -0.021000
     12 C7         -4.2080   -0.3920    4.9490 ca        1 OXI      0.098100
     13 C6         -4.7860   -1.0690    3.8450 ca        1 OXI     -0.026900
     14 O6         -6.0420   -1.5650    4.2150 os        1 OXI     -0.338900
     15 O7         -5.0820   -0.4500    6.0330 os        1 OXI     -0.349900
     16 C11        -6.2450   -1.1850    5.5890 c3        1 OXI      0.324200
     17 C12        -0.3540    1.3590    4.6000 c3        1 OXI      0.218800
     18 C13         0.2890    0.3850    5.5770 c3        1 OXI     -0.123100
     19 O2         -0.6100    0.4580   -1.1680 o         1 OXI     -0.816300
     20 H2          0.6140    1.1410    2.2110 h4        1 OXI      0.167000
     21 H8         -2.5540    0.7090    5.7690 ha        1 OXI      0.146000
     22 H5         -4.5470   -1.7020    1.7740 ha        1 OXI      0.176000
     23 H111       -6.3380   -2.1100    6.2100 h2        1 OXI      0.056200
     24 H112       -7.1340   -0.5100    5.6490 h2        1 OXI      0.056200
     25 H121       -1.0800    2.0170    5.1580 h1        1 OXI      0.048700
     26 H122        0.4520    2.0310    4.1840 h1        1 OXI      0.048700
     27 H131        0.7860    0.9660    6.3910 hc        1 OXI      0.043033
     28 H132        1.0570   -0.2440    5.0640 hc        1 OXI      0.043033
     29 H133       -0.4730   -0.2920    6.0320 hc        1 OXI      0.043033
@<TRIPOS>BOND
     1    1    2 1   
     2    1    3 1   
     3    1   19 1   
     4    3    4 2   
     5    3    6 1   
     6    4    5 1   
     7    4   20 1   
     8    5    9 1   
     9    5   17 1   
    10    6    7 2   
    11    6    8 1   
    12    8    9 ar  
    13    8   11 ar  
    14    9   10 ar  
    15   10   12 ar  
    16   10   21 1   
    17   11   13 ar  
    18   11   22 1   
    19   12   13 ar  
    20   12   15 1   
    21   13   14 1   
    22   14   16 1   
    23   15   16 1   
    24   16   23 1   
    25   16   24 1   
    26   17   18 1   
    27   17   25 1   
    28   17   26 1   
    29   18   27 1   
    30   18   28 1   
    31   18   29 1   
@<TRIPOS>SUBSTRUCTURE
     1 OXI         1 TEMP              0 ****  ****    0 ROOT
