@<TRIPOS>MOLECULE
OXI
   29    26     1     0     0
SMALL
bcc


@<TRIPOS>ATOM
      1 C1          2.1280    0.1060   -3.5850 c1        1 OXI      0.848000
      2 O1          2.0550    1.0560   -4.3720 o         1 OXI     -0.785000
      3 C3          1.3470    0.1500   -2.2360 cg        1 OXI     -0.249200
      4 C2          1.8460    0.7900   -1.0930 ce        1 OXI      0.421100
      5 N1          1.1280    0.7660    0.0770 n2        1 OXI     -0.620900
      6 C4          0.1380   -0.5030   -2.1880 c1        1 OXI      0.576900
      7 O4         -0.2680   -1.0960   -3.1620 o         1 OXI     -0.570900
      8 C10        -0.5940   -0.5300   -1.0010 cg        1 OXI     -0.040000
      9 C9         -0.1030    0.1010    0.1280 cg        1 OXI     -0.040000
     10 C8         -0.8450    0.0870    1.3180 c1        1 OXI     -0.055000
     11 C5         -1.8460   -1.1900   -0.9560 c1        1 OXI     -0.055000
     12 C7         -2.0900   -0.5690    1.3660 c1        1 OXI      0.019100
     13 C6         -2.5850   -1.2040    0.2300 c1        1 OXI      0.019100
     14 O6         -3.8820   -1.7350    0.5500 os        1 OXI     -0.327900
     15 O7         -3.0390   -0.7560    2.4250 os        1 OXI     -0.327900
     16 C11        -4.1680   -1.4010    1.8850 c3        1 OXI      0.324200
     17 C12         1.7830    1.7160    1.0100 c3        1 OXI      0.184800
     18 C13         2.8640    0.9800    1.8230 c3        1 OXI     -0.124100
     19 O2          2.8230   -0.9200   -3.8870 o         1 OXI     -0.785000
     20 H2          2.6990    1.2970   -1.1410 h4        1 OXI      0.038800
     21 H8         -0.5200    0.5380    2.0830 ha        1 OXI      0.103500
     22 H5         -2.1580   -1.6610   -1.7120 ha        1 OXI      0.103500
     23 H111       -4.9390   -0.8000    1.9180 h2        1 OXI      0.056200
     24 H112       -4.3700   -2.2540    2.4180 h2        1 OXI      0.056200
     25 H121        1.1020    2.0920    1.6300 h1        1 OXI      0.050700
     26 H122        2.2030    2.4520    0.4930 h1        1 OXI      0.050700
     27 H131        3.7550    1.2410    1.4930 hc        1 OXI      0.042367
     28 H132        2.7520    0.0280    1.7230 hc        1 OXI      0.042367
     29 H133        2.7820    1.2200    2.7650 hc        1 OXI      0.042367
@<TRIPOS>BOND
     1    1    2 2   
     2    1   19 2   
     3    3    4 1   
     4    3    6 3   
     5    4    5 2   
     6    4   20 1   
     7    5   17 1   
     8    6    7 1   
     9    8    9 1   
    10    8   11 3   
    11    9   10 3   
    12   10   21 1   
    13   11   22 1   
    14   12   13 3   
    15   12   15 1   
    16   13   14 1   
    17   14   16 1   
    18   15   16 1   
    19   16   23 1   
    20   16   24 1   
    21   17   18 1   
    22   17   25 1   
    23   17   26 1   
    24   18   27 1   
    25   18   28 1   
    26   18   29 1   
@<TRIPOS>SUBSTRUCTURE
     1 OXI         1 TEMP              0 ****  ****    0 ROOT
