@<TRIPOS>MOLECULE
OXI
   29    31     1     0     0
SMALL
bcc


@<TRIPOS>ATOM
      1 C1         -4.1020   -4.3880   -2.3500 c         1 OXI      0.930800
      2 O1         -4.2760   -5.2990   -1.4930 o         1 OXI     -0.816300
      3 C3         -3.3590   -3.1370   -1.8700 cc        1 OXI     -0.256400
      4 C2         -2.1950   -3.3280   -1.2010 cd        1 OXI      0.056000
      5 N1         -1.3510   -2.2980   -0.7720 na        1 OXI     -0.528800
      6 C4         -3.8590   -1.7890   -2.1120 c         1 OXI      0.599900
      7 O4         -4.9630   -1.5060   -2.6020 o         1 OXI     -0.557100
      8 C10        -2.9430   -0.6960   -1.6800 ca        1 OXI     -0.227600
      9 C9         -1.7300   -0.9760   -0.9880 ca        1 OXI      0.209600
     10 C8         -0.8930    0.1010   -0.5430 ca        1 OXI     -0.203000
     11 C5         -3.3340    0.6290   -1.9730 ca        1 OXI     -0.021000
     12 C7         -1.3080    1.3720   -0.8470 ca        1 OXI      0.098100
     13 C6         -2.5070    1.6410   -1.5540 ca        1 OXI     -0.026900
     14 O6         -2.6520    3.0260   -1.7060 os        1 OXI     -0.338900
     15 O7         -0.6780    2.5760   -0.5360 os        1 OXI     -0.349900
     16 C11        -1.5100    3.6300   -1.0720 c3        1 OXI      0.324200
     17 C12        -0.2030   -2.6320    0.0380 c3        1 OXI      0.218800
     18 C13        -0.3910   -2.4610    1.5390 c3        1 OXI     -0.123100
     19 O2         -4.4290   -4.4560   -3.5610 o         1 OXI     -0.816300
     20 H2         -1.8490   -4.3540   -0.9700 h4        1 OXI      0.167000
     21 H8          0.0350   -0.0690    0.0150 ha        1 OXI      0.146000
     22 H5         -4.2760    0.8070   -2.5150 ha        1 OXI      0.176000
     23 H111       -0.9220    4.1880   -1.8420 h2        1 OXI      0.056200
     24 H112       -1.8620    4.2680   -0.2240 h2        1 OXI      0.056200
     25 H121        0.0620   -3.7100   -0.1680 h1        1 OXI      0.048700
     26 H122        0.6720   -2.0050   -0.2990 h1        1 OXI      0.048700
     27 H131       -0.6350   -1.4020    1.7960 hc        1 OXI      0.043033
     28 H132       -1.2150   -3.1140    1.9140 hc        1 OXI      0.043033
     29 H133        0.5570   -2.7460    2.0560 hc        1 OXI      0.043033
@<TRIPOS>BOND
     1    1    2 1   
     2    1    3 1   
     3    1   19 1   
     4    3    4 2   
     5    3    6 1   
     6    4    5 1   
     7    4   20 1   
     8    5    9 1   
     9    5   17 1   
    10    6    7 2   
    11    6    8 1   
    12    8    9 ar  
    13    8   11 ar  
    14    9   10 ar  
    15   10   12 ar  
    16   10   21 1   
    17   11   13 ar  
    18   11   22 1   
    19   12   13 ar  
    20   12   15 1   
    21   13   14 1   
    22   14   16 1   
    23   15   16 1   
    24   16   23 1   
    25   16   24 1   
    26   17   18 1   
    27   17   25 1   
    28   17   26 1   
    29   18   27 1   
    30   18   28 1   
    31   18   29 1   
@<TRIPOS>SUBSTRUCTURE
     1 OXI         1 TEMP              0 ****  ****    0 ROOT
