@<TRIPOS>MOLECULE
OXL
    6     5     1     0     0
SMALL
bcc


@<TRIPOS>ATOM
      1 C1          0.7680    0.0010   -0.0100 c         1 OXL      0.831600
      2 C2         -0.7680   -0.0010    0.0100 c         1 OXL      0.831600
      3 O1          1.4170   -0.7820    0.7590 o         1 OXL     -0.916300
      4 O2         -1.4150   -0.7790   -0.7660 o         1 OXL     -0.916300
      5 O3          1.3950    0.7860   -0.7950 o         1 OXL     -0.916300
      6 O4         -1.3970    0.7750    0.8020 o         1 OXL     -0.916300
@<TRIPOS>BOND
     1    1    2 1   
     2    1    3 1   
     3    1    5 1   
     4    2    4 1   
     5    2    6 1   
@<TRIPOS>SUBSTRUCTURE
     1 OXL         1 TEMP              0 ****  ****    0 ROOT
