@<TRIPOS>MOLECULE
OXM
    8     7     1     0     0
SMALL
bcc


@<TRIPOS>ATOM
      1 C1         -0.1840    0.1360    0.7550 c         1 OXM      0.529100
      2 N1          0.8150   -0.3140    1.6080 n         1 OXM     -0.672000
      3 O1         -1.2470    0.5670    1.2460 o         1 OXM     -0.666100
      4 C2          0.1300    0.0500   -0.7680 c         1 OXM      0.882600
      5 O2          1.1530    0.6820   -1.1460 o         1 OXM     -0.807800
      6 O3         -0.6280   -0.6460   -1.4830 o         1 OXM     -0.807800
      7 HN1         0.7540   -0.1000    2.5730 hn        1 OXM      0.270500
      8 HN2         1.7270   -0.3790    1.2280 hn        1 OXM      0.270500
@<TRIPOS>BOND
     1    1    2 1   
     2    1    3 2   
     3    1    4 1   
     4    2    7 1   
     5    2    8 1   
     6    4    5 1   
     7    4    6 1   
@<TRIPOS>SUBSTRUCTURE
     1 OXM         1 TEMP              0 ****  ****    0 ROOT
