@<TRIPOS>MOLECULE
OXN
  107   105     1     0     0
SMALL
bcc


@<TRIPOS>ATOM
      1 C5         11.9780   -3.4690    3.3130 c3        1 OXN     -0.140000
      2 C1         13.5500   -3.4090    3.4750 c3        1 OXN     -0.048000
      3 C3         14.0950   -4.8110    3.7280 c3        1 OXN     -0.205333
      4 C4         13.9190   -2.4820    4.6860 c3        1 OXN     -0.205333
      5 C2         14.2000   -2.8320    2.1730 c3        1 OXN     -0.205333
      6 C6         11.4000   -1.9760    3.0730 c3        1 OXN      0.001000
      7 C9         10.2540   -2.0290    2.0420 c2        1 OXN     -0.100000
      8 C8         10.8830   -1.4350    4.3600 c3        1 OXN     -0.205000
      9 C7         12.5200   -1.0710    2.5480 c3        1 OXN     -0.205000
     10 C10         9.1920   -2.8840    2.3490 c1        1 OXN     -0.096000
     11 C11         8.1690   -3.0970    1.4120 c1        1 OXN     -0.204000
     12 C12         8.2110   -2.4530    0.1700 c1        1 OXN      0.074000
     13 C13         9.2820   -1.5920   -0.1380 c1        1 OXN     -0.159000
     14 C14        10.2960   -1.3810    0.7930 c2        1 OXN     -0.098000
     15 O15         7.2140   -2.7190   -0.8000 os        1 OXN     -0.209000
     16 C16         5.9380   -2.2170   -0.4600 c3        1 OXN     -0.061000
     17 C17         4.9510   -3.3950   -0.2940 c3        1 OXN     -0.053000
     18 O18         3.6180   -2.9380   -0.4860 os        1 OXN     -0.275000
     19 C19         3.0430   -3.3330   -1.7740 c3        1 OXN     -0.051000
     20 C20         1.5960   -2.9640   -1.8140 c3        1 OXN     -0.067000
     21 O21         0.9490   -3.7490   -2.7590 os        1 OXN     -0.284000
     22 C22         0.3120   -4.8620   -2.2270 c3        1 OXN     -0.026000
     23 C23        -1.1870   -4.6190   -2.2030 c3        1 OXN     -0.063000
     24 O24        -1.5570   -4.1400   -0.9550 os        1 OXN     -0.290000
     25 C25        -2.0300   -2.8470   -0.9710 c3        1 OXN     -0.022000
     26 C26        -3.5730   -2.8580   -1.2450 c3        1 OXN     -0.057000
     27 O27        -3.9430   -1.6730   -2.0070 os        1 OXN     -0.296000
     28 C28        -5.2850   -1.7220   -2.5640 c3        1 OXN     -0.057000
     29 C29        -5.7990   -0.2880   -2.7920 c3        1 OXN     -0.022000
     30 O30        -6.9980   -0.1150   -2.1180 os        1 OXN     -0.286000
     31 C31        -6.8720    0.5210   -0.8970 c3        1 OXN     -0.064000
     32 C32        -8.0420    1.5810   -0.7350 c3        1 OXN     -0.021000
     33 O33        -7.7360    2.7440   -1.5010 os        1 OXN     -0.282000
     34 C34        -8.6750    3.0200   -2.5230 c3        1 OXN     -0.030000
     35 C35        -9.3470    4.3700   -2.2540 c3        1 OXN     -0.029000
     36 O36       -10.4620    4.5090   -3.1010 os        1 OXN     -0.273000
     37 C37       -11.4810    5.2960   -2.5700 c3        1 OXN     -0.060000
     38 C38       -12.0500    6.1990   -3.6680 c3        1 OXN     -0.054000
     39 O39       -12.2580    7.5100   -3.1450 os        1 OXN     -0.276000
     40 C40       -13.5800    7.7150   -2.5800 c3        1 OXN     -0.027000
     41 C41       -13.4480    8.1660   -1.1200 c3        1 OXN     -0.060000
     42 O42       -13.9490    7.1320   -0.2530 os        1 OXN     -0.284000
     43 C43       -13.4700    7.2200    1.0870 c3        1 OXN     -0.025000
     44 C44       -14.6500    7.4760    2.0370 c3        1 OXN     -0.053000
     45 O45       -14.1750    7.6300    3.3490 oh        1 OXN     -0.326000
     46 H51        11.5790   -3.8460    4.1240 hc        1 OXN      0.081000
     47 H52        11.7440   -4.0500    2.5240 hc        1 OXN      0.081000
     48 H31        15.0880   -4.7680    3.8090 hc        1 OXN      0.073000
     49 H32        13.7150   -5.1660    4.5570 hc        1 OXN      0.073000
     50 H33        13.8530   -5.3960    2.9810 hc        1 OXN      0.073000
     51 H41        14.6660   -2.8940    5.2050 hc        1 OXN      0.073000
     52 H42        14.1970   -1.6150    4.3550 hc        1 OXN      0.073000
     53 H43        13.1360   -2.3730    5.2670 hc        1 OXN      0.073000
     54 H21        15.0490   -3.2920    2.0040 hc        1 OXN      0.073000
     55 H22        14.3670   -1.8710    2.2900 hc        1 OXN      0.073000
     56 H23        13.5840   -2.9730    1.3950 hc        1 OXN      0.073000
     57 H81        10.2740   -0.6630    4.1770 hc        1 OXN      0.076167
     58 H82        10.3890   -2.1350    4.8320 hc        1 OXN      0.076167
     59 H83        11.6270   -1.1370    4.9090 hc        1 OXN      0.076167
     60 H71        13.2850   -1.0830    3.1860 hc        1 OXN      0.076167
     61 H72        12.1780   -0.1370    2.4530 hc        1 OXN      0.076167
     62 H73        12.8120   -1.3910    1.6930 hc        1 OXN      0.076167
     63 H10         9.1610   -3.3570    3.2570 ha        1 OXN      0.133000
     64 H11         7.4260   -3.6950    1.6260 ha        1 OXN      0.143000
     65 H13         9.3140   -1.1280   -1.0320 ha        1 OXN      0.146000
     66 H14        11.0290   -0.7900    0.5800 ha        1 OXN      0.135000
     67 H161        5.9990   -1.7130    0.3940 h1        1 OXN      0.113000
     68 H162        5.6190   -1.6170   -1.1740 h1        1 OXN      0.113000
     69 H171        5.1580   -4.0920   -0.9630 h1        1 OXN      0.097500
     70 H172        5.0420   -3.7770    0.6210 h1        1 OXN      0.097500
     71 H191        3.1370   -4.3170   -1.8900 h1        1 OXN      0.094500
     72 H192        3.5260   -2.8640   -2.5090 h1        1 OXN      0.094500
     73 H201        1.1990   -3.1100   -0.9450 h1        1 OXN      0.108500
     74 H202        1.5090   -2.0350   -2.0550 h1        1 OXN      0.108500
     75 H221        0.6250   -5.0140   -1.3380 h1        1 OXN      0.098500
     76 H222        0.5060   -5.6380   -2.7750 h1        1 OXN      0.098500
     77 H231       -1.4200   -3.9590   -2.8890 h1        1 OXN      0.091000
     78 H232       -1.6490   -5.4430   -2.3800 h1        1 OXN      0.091000
     79 H251       -1.8570   -2.4300   -0.1110 h1        1 OXN      0.100500
     80 H252       -1.5710   -2.3380   -1.6850 h1        1 OXN      0.100500
     81 H261       -4.0710   -2.8590   -0.3680 h1        1 OXN      0.080000
     82 H262       -3.8080   -3.6630   -1.7560 h1        1 OXN      0.080000
     83 H281       -5.8760   -2.1820   -1.9470 h1        1 OXN      0.080000
     84 H282       -5.2660   -2.2090   -3.4290 h1        1 OXN      0.080000
     85 H291       -5.9370   -0.1440   -3.7230 h1        1 OXN      0.099500
     86 H292       -5.1400    0.3530   -2.4570 h1        1 OXN      0.099500
     87 H311       -5.9820    0.9920   -0.8510 h1        1 OXN      0.088000
     88 H312       -6.9280   -0.1410   -0.1770 h1        1 OXN      0.088000
     89 H321       -8.1330    1.8270    0.2090 h1        1 OXN      0.098000
     90 H322       -8.8980    1.1840   -1.0600 h1        1 OXN      0.098000
     91 H341       -9.3650    2.3060   -2.5400 h1        1 OXN      0.092000
     92 H342       -8.2100    3.0520   -3.4000 h1        1 OXN      0.092000
     93 H351       -9.6450    4.4120   -1.2970 h1        1 OXN      0.081500
     94 H352       -8.7020    5.1050   -2.4330 h1        1 OXN      0.081500
     95 H371      -11.1200    5.8540   -1.8380 h1        1 OXN      0.102000
     96 H372      -12.2180    4.6990   -2.2080 h1        1 OXN      0.102000
     97 H381      -11.4060    6.2420   -4.4310 h1        1 OXN      0.092500
     98 H382      -12.8760    5.8460   -3.9720 h1        1 OXN      0.092500
     99 H401      -14.0590    8.4120   -3.1000 h1        1 OXN      0.102000
    100 H402      -14.0880    6.8690   -2.6170 h1        1 OXN      0.102000
    101 H411      -12.4930    8.3390   -0.9120 h1        1 OXN      0.080500
    102 H412      -13.9700    8.9940   -0.9830 h1        1 OXN      0.080500
    103 H431      -12.8320    7.9570    1.1550 h1        1 OXN      0.103000
    104 H432      -13.0330    6.3900    1.3310 h1        1 OXN      0.103000
    105 H441      -15.2700    6.7140    2.0020 h1        1 OXN      0.068000
    106 H442      -15.1140    8.2840    1.7650 h1        1 OXN      0.068000
    107 H45       -14.8620    7.7430    3.8990 ho        1 OXN      0.203000
@<TRIPOS>BOND
     1    1    2 1   
     2    1    6 1   
     3    1   46 1   
     4    1   47 1   
     5    2    3 1   
     6    2    4 1   
     7    2    5 1   
     8    3   48 1   
     9    3   49 1   
    10    3   50 1   
    11    4   51 1   
    12    4   52 1   
    13    4   53 1   
    14    5   54 1   
    15    5   55 1   
    16    5   56 1   
    17    6    7 1   
    18    6    8 1   
    19    6    9 1   
    20    7   10 1   
    21    7   14 1   
    22    8   57 1   
    23    8   58 1   
    24    8   59 1   
    25    9   60 1   
    26    9   61 1   
    27    9   62 1   
    28   10   63 1   
    29   11   12 1   
    30   11   64 1   
    31   12   15 1   
    32   13   14 1   
    33   13   65 1   
    34   14   66 1   
    35   15   16 1   
    36   16   17 1   
    37   16   67 1   
    38   16   68 1   
    39   17   18 1   
    40   17   69 1   
    41   17   70 1   
    42   18   19 1   
    43   19   20 1   
    44   19   71 1   
    45   19   72 1   
    46   20   21 1   
    47   20   73 1   
    48   20   74 1   
    49   21   22 1   
    50   22   23 1   
    51   22   75 1   
    52   22   76 1   
    53   23   24 1   
    54   23   77 1   
    55   23   78 1   
    56   24   25 1   
    57   25   26 1   
    58   25   79 1   
    59   25   80 1   
    60   26   27 1   
    61   26   81 1   
    62   26   82 1   
    63   27   28 1   
    64   28   29 1   
    65   28   83 1   
    66   28   84 1   
    67   29   30 1   
    68   29   85 1   
    69   29   86 1   
    70   30   31 1   
    71   31   32 1   
    72   31   87 1   
    73   31   88 1   
    74   32   33 1   
    75   32   89 1   
    76   32   90 1   
    77   33   34 1   
    78   34   35 1   
    79   34   91 1   
    80   34   92 1   
    81   35   36 1   
    82   35   93 1   
    83   35   94 1   
    84   36   37 1   
    85   37   38 1   
    86   37   95 1   
    87   37   96 1   
    88   38   39 1   
    89   38   97 1   
    90   38   98 1   
    91   39   40 1   
    92   40   41 1   
    93   40   99 1   
    94   40  100 1   
    95   41   42 1   
    96   41  101 1   
    97   41  102 1   
    98   42   43 1   
    99   43   44 1   
   100   43  103 1   
   101   43  104 1   
   102   44   45 1   
   103   44  105 1   
   104   44  106 1   
   105   45  107 1   
@<TRIPOS>SUBSTRUCTURE
     1 OXN         1 TEMP              0 ****  ****    0 ROOT
