@<TRIPOS>MOLECULE
OXN
  107   107     1     0     0
SMALL
bcc


@<TRIPOS>ATOM
      1 C5        -12.7990  -10.4920    8.0770 c3        1 OXN     -0.058400
      2 C1        -12.3110  -11.9250    8.3070 c3        1 OXN     -0.048000
      3 C3        -13.1410  -12.8350    7.3990 c3        1 OXN     -0.087433
      4 C4        -12.5530  -12.3690    9.7440 c3        1 OXN     -0.087433
      5 C2        -10.8470  -12.1120    7.9550 c3        1 OXN     -0.087433
      6 C6        -11.9180   -9.2890    8.4500 c3        1 OXN      0.004300
      7 C9        -10.7180   -9.1590    7.5490 ca        1 OXN     -0.093300
      8 C8        -12.7820   -8.0340    8.2470 c3        1 OXN     -0.088100
      9 C7        -11.5380   -9.3290    9.9240 c3        1 OXN     -0.088100
     10 C10       -10.8980   -9.1010    6.1600 ca        1 OXN     -0.101000
     11 C11        -9.8220   -8.9430    5.2900 ca        1 OXN     -0.183000
     12 C12        -8.5300   -8.8320    5.8170 ca        1 OXN      0.120100
     13 C13        -8.3250   -8.8770    7.2070 ca        1 OXN     -0.183000
     14 C14        -9.4150   -9.0390    8.0540 ca        1 OXN     -0.101000
     15 O15        -7.3820   -8.6790    5.0640 os        1 OXN     -0.335900
     16 C16        -7.5790   -8.5720    3.6490 c3        1 OXN      0.123400
     17 C17        -6.1970   -8.3300    3.0510 c3        1 OXN      0.124400
     18 O18        -6.2270   -7.0150    2.5000 os        1 OXN     -0.432600
     19 C19        -4.9930   -6.6640    1.8740 c3        1 OXN      0.124400
     20 C20        -5.1140   -5.2020    1.4640 c3        1 OXN      0.116400
     21 O21        -5.5080   -5.1810    0.0910 os        1 OXN     -0.425600
     22 C22        -6.0890   -3.9500   -0.3120 c3        1 OXN      0.129400
     23 C23        -7.5450   -3.8380    0.1270 c3        1 OXN      0.087400
     24 O24        -7.5450   -3.3060    1.4510 os        1 OXN     -0.430600
     25 C25        -8.7900   -3.4390    2.1190 c3        1 OXN      0.127400
     26 C26        -9.1070   -4.8910    2.4690 c3        1 OXN      0.079400
     27 O27       -10.0870   -5.3230    1.5240 os        1 OXN     -0.440600
     28 C28       -10.6160   -6.6140    1.7850 c3        1 OXN      0.123400
     29 C29        -9.7800   -7.6850    1.0860 c3        1 OXN      0.075400
     30 O30        -9.9820   -8.8900    1.8280 os        1 OXN     -0.443600
     31 C31        -9.6790  -10.0700    1.0970 c3        1 OXN      0.124400
     32 C32       -10.7840  -10.4160    0.1020 c3        1 OXN      0.098400
     33 O33       -10.3730   -9.9160   -1.1670 os        1 OXN     -0.429600
     34 C34       -11.4510   -9.6060   -2.0440 c3        1 OXN      0.129400
     35 C35       -10.9810   -8.4680   -2.9440 c3        1 OXN      0.121400
     36 O36       -11.0170   -7.2870   -2.1480 os        1 OXN     -0.425600
     37 C37       -10.5550   -6.1350   -2.8510 c3        1 OXN      0.126400
     38 C38       -10.3580   -5.0490   -1.7990 c3        1 OXN      0.118400
     39 O39       -11.4810   -4.1750   -1.8840 os        1 OXN     -0.428600
     40 C40       -11.6040   -3.3410   -0.7330 c3        1 OXN      0.122400
     41 C41       -12.9190   -2.5850   -0.8860 c3        1 OXN      0.129400
     42 O42       -13.8540   -3.2110   -0.0090 os        1 OXN     -0.434600
     43 C43       -15.1720   -2.6880   -0.1540 c3        1 OXN      0.086400
     44 C44       -16.0600   -3.5320    0.7550 c3        1 OXN      0.133400
     45 O45       -16.1650   -4.8620    0.2920 oh        1 OXN     -0.602800
     46 H51       -13.7660  -10.3770    8.6400 hc        1 OXN      0.038200
     47 H52       -13.0450  -10.3900    6.9850 hc        1 OXN      0.038200
     48 H31       -12.9430  -12.6000    6.3250 hc        1 OXN      0.034033
     49 H32       -14.2290  -12.6960    7.6020 hc        1 OXN      0.034033
     50 H33       -12.8770  -13.9040    7.5800 hc        1 OXN      0.034033
     51 H41       -13.6220  -12.2150   10.0240 hc        1 OXN      0.034033
     52 H42       -12.3120  -13.4540    9.8520 hc        1 OXN      0.034033
     53 H43       -11.9130  -11.7990   10.4580 hc        1 OXN      0.034033
     54 H21       -10.5650  -13.1890    8.0440 hc        1 OXN      0.034033
     55 H22       -10.6570  -11.7750    6.9070 hc        1 OXN      0.034033
     56 H23       -10.1950  -11.5150    8.6380 hc        1 OXN      0.034033
     57 H81       -13.1680   -7.9890    7.2020 hc        1 OXN      0.036200
     58 H82       -12.1780   -7.1170    8.4450 hc        1 OXN      0.036200
     59 H83       -13.6500   -8.0490    8.9490 hc        1 OXN      0.036200
     60 H71       -11.0990   -8.3510   10.2380 hc        1 OXN      0.036200
     61 H72       -12.4490   -9.5210   10.5420 hc        1 OXN      0.036200
     62 H73       -10.7940  -10.1350   10.1300 hc        1 OXN      0.036200
     63 H10       -11.9110   -9.1780    5.7340 ha        1 OXN      0.133000
     64 H11       -10.0020   -8.9060    4.2030 ha        1 OXN      0.151500
     65 H13        -7.3060   -8.7840    7.6070 ha        1 OXN      0.151500
     66 H14        -9.2280   -9.0680    9.1380 ha        1 OXN      0.133000
     67 H161       -8.0230   -9.5250    3.2570 h1        1 OXN      0.059200
     68 H162       -8.2720   -7.7190    3.4160 h1        1 OXN      0.059200
     69 H171       -5.9880   -9.0730    2.2370 h1        1 OXN      0.044200
     70 H172       -5.3980   -8.3980    3.8370 h1        1 OXN      0.044200
     71 H191       -4.1500   -6.7890    2.6040 h1        1 OXN      0.041700
     72 H192       -4.8240   -7.3230    0.9820 h1        1 OXN      0.041700
     73 H201       -4.1170   -4.6950    1.5500 h1        1 OXN      0.056200
     74 H202       -5.8710   -4.6740    2.1030 h1        1 OXN      0.056200
     75 H221       -5.4940   -3.0830    0.0760 h1        1 OXN      0.057200
     76 H222       -6.0400   -3.9850   -1.4340 h1        1 OXN      0.057200
     77 H231       -8.0480   -4.8420    0.1070 h1        1 OXN      0.046700
     78 H232       -8.1020   -3.1300   -0.5440 h1        1 OXN      0.046700
     79 H251       -8.6500   -2.8380    3.0580 h1        1 OXN      0.059200
     80 H252       -9.6160   -3.0010    1.4960 h1        1 OXN      0.059200
     81 H261       -9.5310   -4.9580    3.5060 h1        1 OXN      0.056200
     82 H262       -8.1900   -5.5390    2.3960 h1        1 OXN      0.056200
     83 H281      -10.6750   -6.8220    2.8860 h1        1 OXN      0.059700
     84 H282      -11.6520   -6.5800    1.3500 h1        1 OXN      0.059700
     85 H291       -8.6880   -7.4250    1.1180 h1        1 OXN      0.065200
     86 H292      -10.1050   -7.8150    0.0180 h1        1 OXN      0.065200
     87 H311       -8.6940   -9.9680    0.5710 h1        1 OXN      0.060700
     88 H312       -9.6180  -10.8650    1.8890 h1        1 OXN      0.060700
     89 H321      -11.7550   -9.9610    0.4300 h1        1 OXN      0.043700
     90 H322      -10.9000  -11.5290    0.0180 h1        1 OXN      0.043700
     91 H341      -11.6740  -10.5140   -2.6640 h1        1 OXN      0.045200
     92 H342      -12.3670   -9.2950   -1.4770 h1        1 OXN      0.045200
     93 H351      -11.6760   -8.3600   -3.8180 h1        1 OXN      0.039700
     94 H352       -9.9360   -8.6550   -3.3080 h1        1 OXN      0.039700
     95 H371       -9.5810   -6.3590   -3.3610 h1        1 OXN      0.042200
     96 H372      -11.3210   -5.8320   -3.6110 h1        1 OXN      0.042200
     97 H381       -9.4280   -4.4580   -2.0180 h1        1 OXN      0.051200
     98 H382      -10.2800   -5.5030   -0.7720 h1        1 OXN      0.051200
     99 H401      -11.5980   -3.9630    0.2040 h1        1 OXN      0.050700
    100 H402      -10.7420   -2.6220   -0.7090 h1        1 OXN      0.050700
    101 H411      -13.2870   -2.6350   -1.9450 h1        1 OXN      0.041700
    102 H412      -12.7920   -1.5130   -0.5800 h1        1 OXN      0.041700
    103 H431      -15.1890   -1.6130    0.1620 h1        1 OXN      0.038200
    104 H432      -15.5020   -2.7740   -1.2220 h1        1 OXN      0.038200
    105 H441      -17.1080   -3.1320    0.7410 h1        1 OXN      0.051200
    106 H442      -15.6570   -3.5200    1.8030 h1        1 OXN      0.051200
    107 H45       -15.2640   -5.1970    0.1910 ho        1 OXN      0.416000
@<TRIPOS>BOND
     1    1    2 1   
     2    1    6 1   
     3    1   46 1   
     4    1   47 1   
     5    2    3 1   
     6    2    4 1   
     7    2    5 1   
     8    3   48 1   
     9    3   49 1   
    10    3   50 1   
    11    4   51 1   
    12    4   52 1   
    13    4   53 1   
    14    5   54 1   
    15    5   55 1   
    16    5   56 1   
    17    6    7 1   
    18    6    8 1   
    19    6    9 1   
    20    7   10 ar  
    21    7   14 ar  
    22    8   57 1   
    23    8   58 1   
    24    8   59 1   
    25    9   60 1   
    26    9   61 1   
    27    9   62 1   
    28   10   11 ar  
    29   10   63 1   
    30   11   12 ar  
    31   11   64 1   
    32   12   13 ar  
    33   12   15 1   
    34   13   14 ar  
    35   13   65 1   
    36   14   66 1   
    37   15   16 1   
    38   16   17 1   
    39   16   67 1   
    40   16   68 1   
    41   17   18 1   
    42   17   69 1   
    43   17   70 1   
    44   18   19 1   
    45   19   20 1   
    46   19   71 1   
    47   19   72 1   
    48   20   21 1   
    49   20   73 1   
    50   20   74 1   
    51   21   22 1   
    52   22   23 1   
    53   22   75 1   
    54   22   76 1   
    55   23   24 1   
    56   23   77 1   
    57   23   78 1   
    58   24   25 1   
    59   25   26 1   
    60   25   79 1   
    61   25   80 1   
    62   26   27 1   
    63   26   81 1   
    64   26   82 1   
    65   27   28 1   
    66   28   29 1   
    67   28   83 1   
    68   28   84 1   
    69   29   30 1   
    70   29   85 1   
    71   29   86 1   
    72   30   31 1   
    73   31   32 1   
    74   31   87 1   
    75   31   88 1   
    76   32   33 1   
    77   32   89 1   
    78   32   90 1   
    79   33   34 1   
    80   34   35 1   
    81   34   91 1   
    82   34   92 1   
    83   35   36 1   
    84   35   93 1   
    85   35   94 1   
    86   36   37 1   
    87   37   38 1   
    88   37   95 1   
    89   37   96 1   
    90   38   39 1   
    91   38   97 1   
    92   38   98 1   
    93   39   40 1   
    94   40   41 1   
    95   40   99 1   
    96   40  100 1   
    97   41   42 1   
    98   41  101 1   
    99   41  102 1   
   100   42   43 1   
   101   43   44 1   
   102   43  103 1   
   103   43  104 1   
   104   44   45 1   
   105   44  105 1   
   106   44  106 1   
   107   45  107 1   
@<TRIPOS>SUBSTRUCTURE
     1 OXN         1 TEMP              0 ****  ****    0 ROOT
