@<TRIPOS>MOLECULE
OXN
  107   107     1     0     0
SMALL
bcc


@<TRIPOS>ATOM
      1 C5         -1.2440    0.0210    0.2950 c3        1 OXN     -0.058400
      2 C1          0.1540   -0.3340    0.8100 c3        1 OXN     -0.048000
      3 C3         -0.0320   -1.2440    2.0280 c3        1 OXN     -0.087433
      4 C4          0.9040    0.9070    1.2760 c3        1 OXN     -0.087433
      5 C2          0.9880   -1.0800   -0.2150 c3        1 OXN     -0.087433
      6 C6         -1.4510    0.5160   -1.1440 c3        1 OXN      0.004300
      7 C9         -1.2140   -0.5690   -2.1620 ca        1 OXN     -0.093300
      8 C8         -2.9260    0.9340   -1.2550 c3        1 OXN     -0.088100
      9 C7         -0.6190    1.7610   -1.4160 c3        1 OXN     -0.088100
     10 C10        -1.9110   -1.7810   -2.0570 ca        1 OXN     -0.101000
     11 C11        -1.7530   -2.7980   -2.9950 ca        1 OXN     -0.183000
     12 C12        -0.8820   -2.6010   -4.0730 ca        1 OXN      0.120100
     13 C13        -0.1800   -1.3910   -4.2050 ca        1 OXN     -0.183000
     14 C14        -0.3520   -0.3920   -3.2540 ca        1 OXN     -0.101000
     15 O15        -0.6320   -3.5310   -5.0650 os        1 OXN     -0.335900
     16 C16        -1.3840   -4.7460   -4.9780 c3        1 OXN      0.123400
     17 C17        -1.0030   -5.5640   -6.2070 c3        1 OXN      0.124400
     18 O18        -2.1810   -5.6540   -7.0060 os        1 OXN     -0.432600
     19 C19        -1.9730   -6.4250   -8.1880 c3        1 OXN      0.124400
     20 C20        -3.2530   -6.3190   -9.0080 c3        1 OXN      0.116400
     21 O21        -4.0380   -7.4750   -8.7150 os        1 OXN     -0.425600
     22 C22        -5.4140   -7.3200   -9.0300 c3        1 OXN      0.129400
     23 C23        -6.1550   -6.5220   -7.9630 c3        1 OXN      0.087400
     24 O24        -6.0120   -5.1420   -8.2940 os        1 OXN     -0.430600
     25 C25        -6.3660   -4.2620   -7.2380 c3        1 OXN      0.127400
     26 C26        -5.3680   -4.3120   -6.0840 c3        1 OXN      0.079400
     27 O27        -5.9950   -5.0720   -5.0500 os        1 OXN     -0.440600
     28 C28        -5.2700   -5.1010   -3.8290 c3        1 OXN      0.123400
     29 C29        -4.2990   -6.2790   -3.8120 c3        1 OXN      0.075400
     30 O30        -3.2570   -5.9190   -2.9000 os        1 OXN     -0.443600
     31 C31        -2.5260   -7.0290   -2.3990 c3        1 OXN      0.124400
     32 C32        -3.3050   -7.7770   -1.3210 c3        1 OXN      0.098400
     33 O33        -3.9290   -8.8910   -1.9550 os        1 OXN     -0.429600
     34 C34        -5.1170   -9.3350   -1.3080 c3        1 OXN      0.129400
     35 C35        -6.0180   -9.9270   -2.3870 c3        1 OXN      0.121400
     36 O36        -6.5710   -8.8230   -3.0970 os        1 OXN     -0.425600
     37 C37        -7.4090   -9.2270   -4.1780 c3        1 OXN      0.126400
     38 C38        -7.6590   -7.9740   -5.0110 c3        1 OXN      0.118400
     39 O39        -8.9640   -7.5060   -4.6810 os        1 OXN     -0.428600
     40 C40        -9.1790   -6.1610   -5.1070 c3        1 OXN      0.122400
     41 C41       -10.5370   -5.7450   -4.5550 c3        1 OXN      0.129400
     42 O42       -10.2800   -4.9010   -3.4340 os        1 OXN     -0.434600
     43 C43       -11.4700   -4.5480   -2.7330 c3        1 OXN      0.086400
     44 C44       -11.0180   -3.7530   -1.5120 c3        1 OXN      0.133400
     45 O45       -10.3080   -4.5610   -0.5970 oh        1 OXN     -0.602800
     46 H51        -1.8920   -0.8890    0.4240 hc        1 OXN      0.038200
     47 H52        -1.6570    0.8130    0.9780 hc        1 OXN      0.038200
     48 H31         0.9580   -1.4740    2.4900 hc        1 OXN      0.034033
     49 H32        -0.6750   -0.7430    2.7900 hc        1 OXN      0.034033
     50 H33        -0.5130   -2.2050    1.7270 hc        1 OXN      0.034033
     51 H41         0.2920    1.4780    2.0140 hc        1 OXN      0.034033
     52 H42         1.1470    1.5790    0.4200 hc        1 OXN      0.034033
     53 H43         1.8630    0.6090    1.7670 hc        1 OXN      0.034033
     54 H21         0.4390   -1.9850   -0.5730 hc        1 OXN      0.034033
     55 H22         1.2060   -0.4310   -1.0970 hc        1 OXN      0.034033
     56 H23         1.9570   -1.4020    0.2380 hc        1 OXN      0.034033
     57 H81        -3.1350    1.7900   -0.5690 hc        1 OXN      0.036200
     58 H82        -3.1580    1.2500   -2.3000 hc        1 OXN      0.036200
     59 H83        -3.5960    0.0850   -0.9820 hc        1 OXN      0.036200
     60 H71        -0.7580    2.4960   -0.5850 hc        1 OXN      0.036200
     61 H72         0.4670    1.5160   -1.4930 hc        1 OXN      0.036200
     62 H73        -0.9420    2.2440   -2.3710 hc        1 OXN      0.036200
     63 H10        -2.6070   -1.9440   -1.2190 ha        1 OXN      0.133000
     64 H11        -2.3150   -3.7390   -2.8770 ha        1 OXN      0.151500
     65 H13         0.4970   -1.2480   -5.0590 ha        1 OXN      0.151500
     66 H14         0.2070    0.5470   -3.3820 ha        1 OXN      0.133000
     67 H161       -1.1120   -5.2910   -4.0350 h1        1 OXN      0.059200
     68 H162       -2.4860   -4.5220   -4.9700 h1        1 OXN      0.059200
     69 H171       -0.6740   -6.5930   -5.9060 h1        1 OXN      0.044200
     70 H172       -0.1840   -5.0630   -6.7880 h1        1 OXN      0.044200
     71 H191       -1.1100   -6.0030   -8.7680 h1        1 OXN      0.041700
     72 H192       -1.7590   -7.4910   -7.9100 h1        1 OXN      0.041700
     73 H201       -3.8120   -5.3810   -8.7460 h1        1 OXN      0.056200
     74 H202       -3.0100   -6.3280  -10.1030 h1        1 OXN      0.056200
     75 H221       -5.5400   -6.8410  -10.0360 h1        1 OXN      0.057200
     76 H222       -5.8060   -8.3730   -9.0480 h1        1 OXN      0.057200
     77 H231       -5.7320   -6.7280   -6.9430 h1        1 OXN      0.046700
     78 H232       -7.2480   -6.7820   -7.9710 h1        1 OXN      0.046700
     79 H251       -6.3450   -3.2490   -7.7220 h1        1 OXN      0.059200
     80 H252       -7.4010   -4.4950   -6.8670 h1        1 OXN      0.059200
     81 H261       -5.1530   -3.2760   -5.7100 h1        1 OXN      0.056200
     82 H262       -4.4070   -4.8060   -6.3950 h1        1 OXN      0.056200
     83 H281       -4.7210   -4.1390   -3.6520 h1        1 OXN      0.059700
     84 H282       -6.0610   -5.2340   -3.0420 h1        1 OXN      0.059700
     85 H291       -4.8140   -7.2200   -3.4780 h1        1 OXN      0.065200
     86 H292       -3.8450   -6.4380   -4.8270 h1        1 OXN      0.065200
     87 H311       -2.2400   -7.7240   -3.2320 h1        1 OXN      0.060700
     88 H312       -1.6090   -6.5610   -1.9490 h1        1 OXN      0.060700
     89 H321       -2.6080   -8.1690   -0.5340 h1        1 OXN      0.043700
     90 H322       -4.0610   -7.0960   -0.8490 h1        1 OXN      0.043700
     91 H341       -4.8390  -10.1300   -0.5670 h1        1 OXN      0.045200
     92 H342       -5.6430   -8.4930   -0.7870 h1        1 OXN      0.045200
     93 H351       -5.4270  -10.5760   -3.0860 h1        1 OXN      0.039700
     94 H352       -6.8400  -10.5250   -1.9130 h1        1 OXN      0.039700
     95 H371       -6.8900  -10.0040   -4.7990 h1        1 OXN      0.042200
     96 H372       -8.3670   -9.6430   -3.7710 h1        1 OXN      0.042200
     97 H381       -6.8830   -7.1900   -4.7870 h1        1 OXN      0.051200
     98 H382       -7.6330   -8.2220   -6.1060 h1        1 OXN      0.051200
     99 H401       -8.3600   -5.4930   -4.7220 h1        1 OXN      0.050700
    100 H402       -9.1890   -6.1300   -6.2290 h1        1 OXN      0.050700
    101 H411      -11.1310   -6.6420   -4.2360 h1        1 OXN      0.041700
    102 H412      -11.1110   -5.1650   -5.3250 h1        1 OXN      0.041700
    103 H431      -12.0200   -5.4750   -2.4210 h1        1 OXN      0.038200
    104 H432      -12.1270   -3.9230   -3.3920 h1        1 OXN      0.038200
    105 H441      -10.3810   -2.8860   -1.8330 h1        1 OXN      0.051200
    106 H442      -11.9130   -3.3840   -0.9450 h1        1 OXN      0.051200
    107 H45        -9.5900   -4.9800   -1.0900 ho        1 OXN      0.416000
@<TRIPOS>BOND
     1    1    2 1   
     2    1    6 1   
     3    1   46 1   
     4    1   47 1   
     5    2    3 1   
     6    2    4 1   
     7    2    5 1   
     8    3   48 1   
     9    3   49 1   
    10    3   50 1   
    11    4   51 1   
    12    4   52 1   
    13    4   53 1   
    14    5   54 1   
    15    5   55 1   
    16    5   56 1   
    17    6    7 1   
    18    6    8 1   
    19    6    9 1   
    20    7   10 ar  
    21    7   14 ar  
    22    8   57 1   
    23    8   58 1   
    24    8   59 1   
    25    9   60 1   
    26    9   61 1   
    27    9   62 1   
    28   10   11 ar  
    29   10   63 1   
    30   11   12 ar  
    31   11   64 1   
    32   12   13 ar  
    33   12   15 1   
    34   13   14 ar  
    35   13   65 1   
    36   14   66 1   
    37   15   16 1   
    38   16   17 1   
    39   16   67 1   
    40   16   68 1   
    41   17   18 1   
    42   17   69 1   
    43   17   70 1   
    44   18   19 1   
    45   19   20 1   
    46   19   71 1   
    47   19   72 1   
    48   20   21 1   
    49   20   73 1   
    50   20   74 1   
    51   21   22 1   
    52   22   23 1   
    53   22   75 1   
    54   22   76 1   
    55   23   24 1   
    56   23   77 1   
    57   23   78 1   
    58   24   25 1   
    59   25   26 1   
    60   25   79 1   
    61   25   80 1   
    62   26   27 1   
    63   26   81 1   
    64   26   82 1   
    65   27   28 1   
    66   28   29 1   
    67   28   83 1   
    68   28   84 1   
    69   29   30 1   
    70   29   85 1   
    71   29   86 1   
    72   30   31 1   
    73   31   32 1   
    74   31   87 1   
    75   31   88 1   
    76   32   33 1   
    77   32   89 1   
    78   32   90 1   
    79   33   34 1   
    80   34   35 1   
    81   34   91 1   
    82   34   92 1   
    83   35   36 1   
    84   35   93 1   
    85   35   94 1   
    86   36   37 1   
    87   37   38 1   
    88   37   95 1   
    89   37   96 1   
    90   38   39 1   
    91   38   97 1   
    92   38   98 1   
    93   39   40 1   
    94   40   41 1   
    95   40   99 1   
    96   40  100 1   
    97   41   42 1   
    98   41  101 1   
    99   41  102 1   
   100   42   43 1   
   101   43   44 1   
   102   43  103 1   
   103   43  104 1   
   104   44   45 1   
   105   44  105 1   
   106   44  106 1   
   107   45  107 1   
@<TRIPOS>SUBSTRUCTURE
     1 OXN         1 TEMP              0 ****  ****    0 ROOT
