@<TRIPOS>MOLECULE
OXN
  107   107     1     0     0
SMALL
bcc


@<TRIPOS>ATOM
      1 C5          0.0750    0.2660    0.3000 c3        1 OXN     -0.058400
      2 C1          1.4820   -0.2290    0.6460 c3        1 OXN     -0.048000
      3 C3          1.3500   -1.1470    1.8650 c3        1 OXN     -0.087433
      4 C4          2.3950    0.9250    1.0380 c3        1 OXN     -0.087433
      5 C2          2.1200   -1.0240   -0.4790 c3        1 OXN     -0.087433
      6 C6         -0.2470    0.8140   -1.0990 c3        1 OXN      0.003300
      7 C9         -0.2320   -0.2640   -2.1510 ca        1 OXN     -0.091300
      8 C8         -1.6790    1.3690   -1.0330 c3        1 OXN     -0.088100
      9 C7          0.6640    1.9820   -1.4480 c3        1 OXN     -0.088100
     10 C10        -1.0240   -1.4080   -1.9820 ca        1 OXN     -0.098500
     11 C11        -1.0710   -2.4120   -2.9470 ca        1 OXN     -0.179500
     12 C12        -0.3140   -2.2720   -4.1160 ca        1 OXN      0.121100
     13 C13         0.4810   -1.1290   -4.3110 ca        1 OXN     -0.179500
     14 C14         0.5130   -0.1420   -3.3330 ca        1 OXN     -0.098500
     15 O15        -0.2670   -3.1970   -5.1410 os        1 OXN     -0.332900
     16 C16        -1.1290   -4.3300   -4.9940 c3        1 OXN      0.120400
     17 C17        -0.9680   -5.1450   -6.2750 c3        1 OXN      0.123400
     18 O18        -2.1870   -5.0080   -7.0000 os        1 OXN     -0.436600
     19 C19        -2.0760   -5.4890   -8.3400 c3        1 OXN      0.124400
     20 C20        -3.4500   -5.3250   -8.9800 c3        1 OXN      0.117400
     21 O21        -4.0540   -6.6170   -9.0090 os        1 OXN     -0.429600
     22 C22        -5.4730   -6.5800   -9.0830 c3        1 OXN      0.129400
     23 C23        -6.1000   -6.2300   -7.7390 c3        1 OXN      0.078400
     24 O24        -6.2750   -4.8110   -7.7140 os        1 OXN     -0.434600
     25 C25        -6.5460   -4.3000   -6.4170 c3        1 OXN      0.126400
     26 C26        -5.3040   -4.3220   -5.5300 c3        1 OXN      0.084400
     27 O27        -5.3800   -5.5130   -4.7460 os        1 OXN     -0.440600
     28 C28        -4.1530   -5.8050   -4.0810 c3        1 OXN      0.121400
     29 C29        -4.4070   -7.0680   -3.2640 c3        1 OXN      0.117400
     30 O30        -3.8820   -6.8210   -1.9600 os        1 OXN     -0.428600
     31 C31        -4.2490   -7.8140   -1.0130 c3        1 OXN      0.128400
     32 C32        -5.6900   -7.6440   -0.5410 c3        1 OXN      0.094400
     33 O33        -6.5000   -8.5120   -1.3320 os        1 OXN     -0.441600
     34 C34        -7.8760   -8.4490   -0.9620 c3        1 OXN      0.091400
     35 C35        -8.6520   -9.3580   -1.9100 c3        1 OXN      0.130400
     36 O36        -8.9810   -8.6920   -3.1200 os        1 OXN     -0.441600
     37 C37        -7.9390   -8.7250   -4.0990 c3        1 OXN      0.103400
     38 C38        -8.0760   -7.4700   -4.9550 c3        1 OXN      0.101400
     39 O39        -8.7450   -7.8150   -6.1670 os        1 OXN     -0.431600
     40 C40        -9.8930   -7.0310   -6.4510 c3        1 OXN      0.128400
     41 C41       -10.9900   -7.2060   -5.4050 c3        1 OXN      0.090400
     42 O42       -10.9460   -6.0450   -4.5770 os        1 OXN     -0.441600
     43 C43       -11.9600   -6.0230   -3.5740 c3        1 OXN      0.088400
     44 C44       -11.3060   -5.5030   -2.2970 c3        1 OXN      0.124400
     45 O45       -10.4570   -6.4690   -1.7120 oh        1 OXN     -0.618800
     46 H51        -0.6380   -0.5830    0.4910 hc        1 OXN      0.038200
     47 H52        -0.1800    1.0770    1.0370 hc        1 OXN      0.038200
     48 H31         2.3590   -1.4790    2.2070 hc        1 OXN      0.034256
     49 H32         0.8490   -0.6070    2.7030 hc        1 OXN      0.034256
     50 H33         0.7490   -2.0520    1.6080 hc        1 OXN      0.034256
     51 H41         1.9270    1.5330    1.8500 hc        1 OXN      0.034256
     52 H42         2.6020    1.5920    0.1700 hc        1 OXN      0.034256
     53 H43         3.3700    0.5280    1.4110 hc        1 OXN      0.034256
     54 H21         1.4510   -1.8660   -0.7820 hc        1 OXN      0.034256
     55 H22         2.2960   -0.3770   -1.3710 hc        1 OXN      0.034256
     56 H23         3.0990   -1.4450   -0.1440 hc        1 OXN      0.034256
     57 H81        -1.7250    2.2240   -0.3160 hc        1 OXN      0.037033
     58 H82        -1.9970    1.7290   -2.0400 hc        1 OXN      0.037033
     59 H83        -2.3910    0.5800   -0.6950 hc        1 OXN      0.037033
     60 H71         0.6900    2.7060   -0.5980 hc        1 OXN      0.037033
     61 H72         1.7050    1.6380   -1.6540 hc        1 OXN      0.037033
     62 H73         0.2810    2.5150   -2.3530 hc        1 OXN      0.037033
     63 H10        -1.6330   -1.5260   -1.0720 ha        1 OXN      0.134500
     64 H11        -1.7000   -3.2960   -2.7770 ha        1 OXN      0.142500
     65 H13         1.0670   -1.0300   -5.2360 ha        1 OXN      0.142500
     66 H14         1.1410    0.7440   -3.5120 ha        1 OXN      0.134500
     67 H161       -0.8080   -4.9290   -4.1030 h1        1 OXN      0.054700
     68 H162       -2.1920   -3.9910   -4.8690 h1        1 OXN      0.054700
     69 H171       -0.8110   -6.2290   -6.0300 h1        1 OXN      0.048200
     70 H172       -0.1030   -4.7660   -6.8810 h1        1 OXN      0.048200
     71 H191       -1.3140   -4.8750   -8.8910 h1        1 OXN      0.042700
     72 H192       -1.7620   -6.5660   -8.3330 h1        1 OXN      0.042700
     73 H201       -4.0780   -4.6010   -8.3950 h1        1 OXN      0.056200
     74 H202       -3.3420   -4.9660  -10.0380 h1        1 OXN      0.056200
     75 H221       -5.8100   -5.8630   -9.8760 h1        1 OXN      0.058700
     76 H222       -5.7510   -7.6320   -9.3650 h1        1 OXN      0.058700
     77 H231       -5.4320   -6.5530   -6.8960 h1        1 OXN      0.058700
     78 H232       -7.1070   -6.7180   -7.6280 h1        1 OXN      0.058700
     79 H251       -6.8590   -3.2390   -6.6080 h1        1 OXN      0.060200
     80 H252       -7.3830   -4.8740   -5.9360 h1        1 OXN      0.060200
     81 H261       -5.2980   -3.4370   -4.8400 h1        1 OXN      0.052200
     82 H262       -4.3680   -4.3240   -6.1530 h1        1 OXN      0.052200
     83 H281       -3.3440   -5.9690   -4.8440 h1        1 OXN      0.045200
     84 H282       -3.8650   -4.9480   -3.4150 h1        1 OXN      0.045200
     85 H291       -5.5080   -7.2870   -3.2010 h1        1 OXN      0.051200
     86 H292       -3.8760   -7.9490   -3.7100 h1        1 OXN      0.051200
     87 H311       -4.0910   -8.8420   -1.4320 h1        1 OXN      0.060200
     88 H312       -3.5480   -7.6330   -0.1530 h1        1 OXN      0.060200
     89 H321       -5.7800   -7.9330    0.5390 h1        1 OXN      0.042700
     90 H322       -6.0290   -6.5820   -0.6750 h1        1 OXN      0.042700
     91 H341       -7.9920   -8.8120    0.0940 h1        1 OXN      0.046700
     92 H342       -8.2480   -7.3920   -1.0370 h1        1 OXN      0.046700
     93 H351       -8.0820  -10.3010   -2.1100 h1        1 OXN      0.060700
     94 H352       -9.6510   -9.5920   -1.4510 h1        1 OXN      0.060700
     95 H371       -6.9330   -8.7430   -3.6020 h1        1 OXN      0.055700
     96 H372       -8.0750   -9.6510   -4.7180 h1        1 OXN      0.055700
     97 H381       -8.6200   -6.6660   -4.3930 h1        1 OXN      0.069700
     98 H382       -7.0550   -7.1000   -5.2550 h1        1 OXN      0.069700
     99 H401       -9.6050   -5.9490   -6.5400 h1        1 OXN      0.059700
    100 H402      -10.2400   -7.4210   -7.4450 h1        1 OXN      0.059700
    101 H411      -10.7980   -8.1200   -4.7790 h1        1 OXN      0.048700
    102 H412      -11.9960   -7.2790   -5.8950 h1        1 OXN      0.048700
    103 H431      -12.3930   -7.0420   -3.4020 h1        1 OXN      0.045700
    104 H432      -12.7640   -5.3220   -3.9200 h1        1 OXN      0.045700
    105 H441      -10.7210   -4.5710   -2.5190 h1        1 OXN      0.049700
    106 H442      -12.0880   -5.2880   -1.5220 h1        1 OXN      0.049700
    107 H45        -9.9030   -6.8320   -2.4200 ho        1 OXN      0.426000
@<TRIPOS>BOND
     1    1    2 1   
     2    1    6 1   
     3    1   46 1   
     4    1   47 1   
     5    2    3 1   
     6    2    4 1   
     7    2    5 1   
     8    3   48 1   
     9    3   49 1   
    10    3   50 1   
    11    4   51 1   
    12    4   52 1   
    13    4   53 1   
    14    5   54 1   
    15    5   55 1   
    16    5   56 1   
    17    6    7 1   
    18    6    8 1   
    19    6    9 1   
    20    7   10 ar  
    21    7   14 ar  
    22    8   57 1   
    23    8   58 1   
    24    8   59 1   
    25    9   60 1   
    26    9   61 1   
    27    9   62 1   
    28   10   11 ar  
    29   10   63 1   
    30   11   12 ar  
    31   11   64 1   
    32   12   13 ar  
    33   12   15 1   
    34   13   14 ar  
    35   13   65 1   
    36   14   66 1   
    37   15   16 1   
    38   16   17 1   
    39   16   67 1   
    40   16   68 1   
    41   17   18 1   
    42   17   69 1   
    43   17   70 1   
    44   18   19 1   
    45   19   20 1   
    46   19   71 1   
    47   19   72 1   
    48   20   21 1   
    49   20   73 1   
    50   20   74 1   
    51   21   22 1   
    52   22   23 1   
    53   22   75 1   
    54   22   76 1   
    55   23   24 1   
    56   23   77 1   
    57   23   78 1   
    58   24   25 1   
    59   25   26 1   
    60   25   79 1   
    61   25   80 1   
    62   26   27 1   
    63   26   81 1   
    64   26   82 1   
    65   27   28 1   
    66   28   29 1   
    67   28   83 1   
    68   28   84 1   
    69   29   30 1   
    70   29   85 1   
    71   29   86 1   
    72   30   31 1   
    73   31   32 1   
    74   31   87 1   
    75   31   88 1   
    76   32   33 1   
    77   32   89 1   
    78   32   90 1   
    79   33   34 1   
    80   34   35 1   
    81   34   91 1   
    82   34   92 1   
    83   35   36 1   
    84   35   93 1   
    85   35   94 1   
    86   36   37 1   
    87   37   38 1   
    88   37   95 1   
    89   37   96 1   
    90   38   39 1   
    91   38   97 1   
    92   38   98 1   
    93   39   40 1   
    94   40   41 1   
    95   40   99 1   
    96   40  100 1   
    97   41   42 1   
    98   41  101 1   
    99   41  102 1   
   100   42   43 1   
   101   43   44 1   
   102   43  103 1   
   103   43  104 1   
   104   44   45 1   
   105   44  105 1   
   106   44  106 1   
   107   45  107 1   
@<TRIPOS>SUBSTRUCTURE
     1 OXN         1 TEMP              0 ****  ****    0 ROOT
