@<TRIPOS>MOLECULE
OXP
   13    12     1     0     0
SMALL
bcc


@<TRIPOS>ATOM
      1 C2          0.0570   -0.6240   -0.0910 c         1 OXP      0.455300
      2 C3         -0.9430   -0.1410    0.8890 ce        1 OXP     -0.212200
      3 C5          0.6070    0.2390    2.8130 c3        1 OXP     -0.061900
      4 O3          0.9080   -1.4770    0.1950 o         1 OXP     -0.584100
      5 C1         -0.1090   -0.0040   -1.4930 c         1 OXP      0.858600
      6 O1         -1.0950   -0.4070   -2.1680 o         1 OXP     -0.812300
      7 O2          0.7220    0.8710   -1.8460 o         1 OXP     -0.812300
      8 C4         -0.7060    0.2600    2.1400 c2        1 OXP     -0.171200
      9 H3         -1.9580   -0.0820    0.4560 ha        1 OXP      0.139000
     10 H51         0.5540   -0.3900    3.7370 hc        1 OXP      0.037033
     11 H52         1.4000   -0.1810    2.1450 hc        1 OXP      0.037033
     12 H53         0.9030    1.2750    3.1140 hc        1 OXP      0.037033
     13 H4         -1.5310    0.6620    2.7530 ha        1 OXP      0.090000
@<TRIPOS>BOND
     1    1    2 1   
     2    1    4 2   
     3    1    5 1   
     4    2    8 2   
     5    2    9 1   
     6    3    8 1   
     7    3   10 1   
     8    3   11 1   
     9    3   12 1   
    10    5    6 1   
    11    5    7 1   
    12    8   13 1   
@<TRIPOS>SUBSTRUCTURE
     1 OXP         1 TEMP              0 ****  ****    0 ROOT
