@<TRIPOS>MOLECULE
OXP
   13    11     1     0     0
SMALL
bcc


@<TRIPOS>ATOM
      1 C2         -0.8150   -0.8310   -0.1370 c1        1 OXP      0.197000
      2 C3          0.6980   -0.8310   -0.1370 c1        1 OXP     -0.193000
      3 C5          0.6160    1.3560    1.0270 c3        1 OXP     -0.184000
      4 O3         -1.4220   -0.8310    0.9150 o         1 OXP     -0.345000
      5 C1         -1.5710   -0.8320   -1.4480 c2        1 OXP      0.328000
      6 O1         -1.8960    0.2570   -1.9880 o         1 OXP     -0.547000
      7 O2         -1.8760   -1.9230   -1.9970 o         1 OXP     -0.547000
      8 C4          1.3720    0.1990    0.4110 c2        1 OXP     -0.167000
      9 H3          1.1860   -1.5770   -0.5350 ha        1 OXP      0.139000
     10 H51         0.0290    1.7540    0.3570 hc        1 OXP      0.076333
     11 H52         0.0810    1.0320    1.7770 hc        1 OXP      0.076333
     12 H53         1.2490    2.0270    1.3450 hc        1 OXP      0.076333
     13 H4          2.3480    0.1990    0.4110 ha        1 OXP      0.090000
@<TRIPOS>BOND
     1    1    4 1   
     2    1    5 1   
     3    2    8 1   
     4    2    9 1   
     5    3    8 1   
     6    3   10 1   
     7    3   11 1   
     8    3   12 1   
     9    5    6 1   
    10    5    7 1   
    11    8   13 1   
@<TRIPOS>SUBSTRUCTURE
     1 OXP         1 TEMP              0 ****  ****    0 ROOT
