@<TRIPOS>MOLECULE
OXP
   13    12     1     0     0
SMALL
bcc


@<TRIPOS>ATOM
      1 C2         -0.0840   -0.5200   -0.0820 c         1 OXP      0.455300
      2 C3          1.3730   -0.3050    0.0780 ce        1 OXP     -0.212200
      3 C5          1.3780    0.2700    2.5110 c3        1 OXP     -0.061900
      4 O3         -0.7460   -1.1970    0.7150 o         1 OXP     -0.584100
      5 C1         -0.6640    0.1320   -1.3530 c         1 OXP      0.858600
      6 O1         -0.3730   -0.4240   -2.4460 o         1 OXP     -0.812300
      7 O2         -1.3510    1.1760   -1.2120 o         1 OXP     -0.812300
      8 C4          2.0080    0.0640    1.1930 c2        1 OXP     -0.171200
      9 H3          1.9200   -0.4280   -0.8740 ha        1 OXP      0.139000
     10 H51         1.5270    1.3260    2.8500 hc        1 OXP      0.037033
     11 H52         1.8430   -0.4080    3.2690 hc        1 OXP      0.037033
     12 H53         0.2790    0.0580    2.4750 hc        1 OXP      0.037033
     13 H4          3.0950    0.2560    1.1680 ha        1 OXP      0.090000
@<TRIPOS>BOND
     1    1    2 1   
     2    1    4 2   
     3    1    5 1   
     4    2    8 2   
     5    2    9 1   
     6    3    8 1   
     7    3   10 1   
     8    3   11 1   
     9    3   12 1   
    10    5    6 1   
    11    5    7 1   
    12    8   13 1   
@<TRIPOS>SUBSTRUCTURE
     1 OXP         1 TEMP              0 ****  ****    0 ROOT
