@<TRIPOS>MOLECULE
OXP
   13    12     1     0     0
SMALL
bcc


@<TRIPOS>ATOM
      1 C2         -0.0130   -0.6210   -0.0850 c         1 OXP      0.455300
      2 C3          1.3920   -0.1710    0.0430 ce        1 OXP     -0.212200
      3 C5          1.3990    0.2660    2.5040 c3        1 OXP     -0.061900
      4 O3         -0.5180   -1.4430    0.6900 o         1 OXP     -0.584100
      5 C1         -0.7450   -0.0090   -1.2950 c         1 OXP      0.858600
      6 O1         -0.4110   -0.4460   -2.4290 o         1 OXP     -0.812300
      7 O2         -1.5910    0.8940   -1.0700 o         1 OXP     -0.812300
      8 C4          2.0020    0.2400    1.1570 c2        1 OXP     -0.171200
      9 H3          1.9140   -0.1470   -0.9310 ha        1 OXP      0.139000
     10 H51         2.0030   -0.3630    3.2060 hc        1 OXP      0.037033
     11 H52         0.3520   -0.1280    2.4890 hc        1 OXP      0.037033
     12 H53         1.3830    1.3120    2.9010 hc        1 OXP      0.037033
     13 H4          3.0390    0.6160    1.1110 ha        1 OXP      0.090000
@<TRIPOS>BOND
     1    1    2 1   
     2    1    4 2   
     3    1    5 1   
     4    2    8 2   
     5    2    9 1   
     6    3    8 1   
     7    3   10 1   
     8    3   11 1   
     9    3   12 1   
    10    5    6 1   
    11    5    7 1   
    12    8   13 1   
@<TRIPOS>SUBSTRUCTURE
     1 OXP         1 TEMP              0 ****  ****    0 ROOT
