@<TRIPOS>MOLECULE
OXQ
   10     9     1     0     0
SMALL
bcc


@<TRIPOS>ATOM
      1 O9         -2.0710    0.5550    1.4480 o         1 OXQ     -0.788300
      2 C6         -0.8120    0.5550    1.4480 c         1 OXQ      0.869300
      3 O8         -0.1820    0.5550    2.5380 o         1 OXQ     -0.788300
      4 C2         -0.0550    0.5550    0.1380 ce        1 OXQ      0.276200
      5 C1          0.3130   -0.5700   -0.5940 cg        1 OXQ      0.297600
      6 O7          0.0420   -1.9060   -0.2480 o         1 OXQ     -0.189000
      7 N3          0.3780    1.6410   -0.5230 n2        1 OXQ     -0.431200
      8 O4          1.0160    1.2170   -1.6630 os        1 OXQ      0.015500
      9 N5          0.9670   -0.1550   -1.6910 n1        1 OXQ     -0.475800
     10 HO7         0.4030   -2.4470   -0.8520 ho        1 OXQ      0.213000
@<TRIPOS>BOND
     1    1    2 1   
     2    2    3 1   
     3    2    4 1   
     4    4    5 1   
     5    4    7 2   
     6    5    9 3   
     7    6   10 1   
     8    7    8 1   
     9    8    9 1   
@<TRIPOS>SUBSTRUCTURE
     1 OXQ         1 TEMP              0 ****  ****    0 ROOT
