@<TRIPOS>MOLECULE
OXQ
   10    10     1     0     0
SMALL
bcc


@<TRIPOS>ATOM
      1 O9          0.8330    1.0270    0.3610 o         1 OXQ     -0.788300
      2 C6          1.3410   -0.0790    0.0610 c         1 OXQ      0.849100
      3 O8          1.3330   -1.1350    0.7380 o         1 OXQ     -0.788300
      4 C2          2.0670   -0.1470   -1.2920 cc        1 OXQ      0.241500
      5 C1          3.5170    0.1450   -1.5420 cc        1 OXQ      0.435300
      6 O7          4.3870    0.5160   -0.5660 oh        1 OXQ     -0.560300
      7 N3          1.5790   -0.4680   -2.4870 nd        1 OXQ     -0.380300
      8 O4          2.5790   -0.3950   -3.3960 os        1 OXQ      0.061600
      9 N5          3.7470   -0.0320   -2.8620 nd        1 OXQ     -0.485300
     10 HO7         5.2600    0.6470   -0.9710 ho        1 OXQ      0.414000
@<TRIPOS>BOND
     1    1    2 1   
     2    2    3 1   
     3    2    4 1   
     4    4    5 1   
     5    4    7 2   
     6    5    6 1   
     7    5    9 2   
     8    6   10 1   
     9    7    8 1   
    10    8    9 1   
@<TRIPOS>SUBSTRUCTURE
     1 OXQ         1 TEMP              0 ****  ****    0 ROOT
