@<TRIPOS>MOLECULE
OXQ
   10    10     1     0     0
SMALL
bcc


@<TRIPOS>ATOM
      1 O9          0.6960   -0.1010    2.4160 o         1 OXQ     -0.799300
      2 C6         -0.1380   -0.1460    1.4850 c         1 OXQ      0.840100
      3 O8         -1.3920   -0.2810    1.6190 o         1 OXQ     -0.799300
      4 C2          0.3380   -0.0340    0.0460 cc        1 OXQ      0.154500
      5 C1         -0.6040   -0.0790   -1.1240 cc        1 OXQ      0.463300
      6 O7         -1.9490   -0.2190   -1.0900 oh        1 OXQ     -0.619300
      7 N3          1.5490    0.1150   -0.4850 nd        1 OXQ     -0.336300
      8 O4          1.4110    0.1590   -1.8230 os        1 OXQ      0.050600
      9 N5          0.1400    0.0470   -2.2440 nd        1 OXQ     -0.446300
     10 HO7        -2.1920   -0.2860   -0.1340 ho        1 OXQ      0.493000
@<TRIPOS>BOND
     1    1    2 1   
     2    2    3 1   
     3    2    4 1   
     4    4    5 1   
     5    4    7 2   
     6    5    6 1   
     7    5    9 2   
     8    6   10 1   
     9    7    8 1   
    10    8    9 1   
@<TRIPOS>SUBSTRUCTURE
     1 OXQ         1 TEMP              0 ****  ****    0 ROOT
