@<TRIPOS>MOLECULE
OXR
   50    49     1     0     0
SMALL
bcc


@<TRIPOS>ATOM
      1 O2         -0.0260   -0.1250   -0.1780 o         1 OXR     -0.535100
      2 C4          1.2120   -0.1230   -0.1530 c         1 OXR      0.570300
      3 C3          1.9580   -0.4960    1.0960 c3        1 OXR     -0.180400
      4 C2          3.2750   -1.1610    0.7840 c3        1 OXR     -0.067400
      5 C1          4.1570   -0.3140   -0.1360 c3        1 OXR     -0.021800
      6 C17         5.3250   -1.1870   -0.5890 c3        1 OXR     -0.085600
      7 C16         4.7060    0.8860    0.6280 c3        1 OXR     -0.085600
      8 C5          2.0220    0.2680   -1.3290 ce        1 OXR     -0.182400
      9 C18         1.2370    0.7720   -2.4820 c3        1 OXR     -0.059900
     10 C6          3.3720    0.1730   -1.3320 cf        1 OXR     -0.016200
     11 C7          4.1940    0.5760   -2.4680 cf        1 OXR     -0.134000
     12 C8          3.9540    0.2290   -3.7430 ce        1 OXR     -0.105000
     13 C9          4.7900    0.6200   -4.8670 ce        1 OXR     -0.063300
     14 C19         5.9770    1.4780   -4.6150 c3        1 OXR     -0.060900
     15 C10         4.4960    0.2190   -6.0910 c1        1 OXR     -0.049900
     16 C11         4.2230   -0.1590   -7.2590 c1        1 OXR     -0.036900
     17 C12         3.9100   -0.5700   -8.4670 ce        1 OXR     -0.116100
     18 C13         4.6610   -0.2470   -9.6730 ce        1 OXR     -0.043200
     19 C20         5.8500    0.6260   -9.5150 c3        1 OXR     -0.067900
     20 C14         4.2640   -0.7480  -10.8580 c2        1 OXR     -0.168200
     21 C15         4.9620   -0.5320  -12.1550 c3        1 OXR      0.167600
     22 O1          4.9010    0.8490  -12.4900 oh        1 OXR     -0.593800
     23 H31         1.3230   -1.1780    1.7210 hc        1 OXR      0.072700
     24 H32         2.1230    0.4440    1.6890 hc        1 OXR      0.072700
     25 H21         3.0840   -2.1520    0.2930 hc        1 OXR      0.050700
     26 H22         3.8280   -1.3600    1.7390 hc        1 OXR      0.050700
     27 H171        5.8360   -1.6240    0.3030 hc        1 OXR      0.039867
     28 H172        6.0690   -0.5860   -1.1640 hc        1 OXR      0.039867
     29 H173        4.9610   -2.0190   -1.2370 hc        1 OXR      0.039867
     30 H161        3.8770    1.5530    0.9630 hc        1 OXR      0.039867
     31 H162        5.2730    0.5380    1.5250 hc        1 OXR      0.039867
     32 H163        5.3970    1.4780   -0.0200 hc        1 OXR      0.039867
     33 H181        0.9200   -0.0850   -3.1300 hc        1 OXR      0.053033
     34 H182        0.3120    1.2910   -2.1260 hc        1 OXR      0.053033
     35 H183        1.8330    1.4860   -3.1030 hc        1 OXR      0.053033
     36 H7          5.0720    1.1930   -2.2020 ha        1 OXR      0.133000
     37 H8          3.0830   -0.4030   -3.9970 ha        1 OXR      0.138000
     38 H191        6.6760    0.9660   -3.9070 hc        1 OXR      0.049700
     39 H192        5.6570    2.4480   -4.1570 hc        1 OXR      0.049700
     40 H193        6.5300    1.6970   -5.5620 hc        1 OXR      0.049700
     41 H10         8.0130    2.1210   -7.3030 ha        1 OXR      0.000500
     42 H11         7.6000    1.7980   -7.7330 ha        1 OXR      0.000500
     43 H12         3.0140   -1.2070   -8.6020 ha        1 OXR      0.141000
     44 H201        5.6080    1.4960   -8.8540 hc        1 OXR      0.051367
     45 H202        6.6860    0.0520   -9.0420 hc        1 OXR      0.051367
     46 H203        6.1970    1.0220  -10.5020 hc        1 OXR      0.051367
     47 H14         3.3670   -1.3860  -10.9220 ha        1 OXR      0.126000
     48 H151        4.4680   -1.1360  -12.9650 h1        1 OXR      0.026200
     49 H152        6.0390   -0.8510  -12.0760 h1        1 OXR      0.026200
     50 HO1         5.3200    0.9370  -13.3540 ho        1 OXR      0.398000
@<TRIPOS>BOND
     1    1    2 2   
     2    2    3 1   
     3    2    8 1   
     4    3    4 1   
     5    3   23 1   
     6    3   24 1   
     7    4    5 1   
     8    4   25 1   
     9    4   26 1   
    10    5    6 1   
    11    5    7 1   
    12    5   10 1   
    13    6   27 1   
    14    6   28 1   
    15    6   29 1   
    16    7   30 1   
    17    7   31 1   
    18    7   32 1   
    19    8    9 1   
    20    8   10 2   
    21    9   33 1   
    22    9   34 1   
    23    9   35 1   
    24   10   11 1   
    25   11   12 2   
    26   11   36 1   
    27   12   13 1   
    28   12   37 1   
    29   13   14 1   
    30   13   15 2   
    31   14   38 1   
    32   14   39 1   
    33   14   40 1   
    34   15   16 2   
    35   16   17 2   
    36   17   18 1   
    37   17   43 1   
    38   18   19 1   
    39   18   20 2   
    40   19   44 1   
    41   19   45 1   
    42   19   46 1   
    43   20   21 1   
    44   20   47 1   
    45   21   22 1   
    46   21   48 1   
    47   21   49 1   
    48   22   50 1   
    49   41   42 1   
@<TRIPOS>SUBSTRUCTURE
     1 OXR         1 TEMP              0 ****  ****    0 ROOT
