@<TRIPOS>MOLECULE
OXR
   50    50     1     0     0
SMALL
bcc


@<TRIPOS>ATOM
      1 O2         24.9510   -8.4410   41.0190 o         1 OXR     -0.537100
      2 C4         24.1370   -9.2280   41.5200 c         1 OXR      0.571300
      3 C3         24.5580  -10.6070   41.9430 c3        1 OXR     -0.180400
      4 C2         23.4380  -11.6060   41.7910 c3        1 OXR     -0.067400
      5 C1         22.1680  -11.1810   42.5300 c3        1 OXR     -0.022800
      6 C17        22.3690  -11.3200   44.0360 c3        1 OXR     -0.085600
      7 C16        21.0430  -12.1180   42.0950 c3        1 OXR     -0.085600
      8 C5         22.7230   -8.8560   41.7530 ce        1 OXR     -0.186400
      9 C18        22.3990   -7.4390   41.4590 c3        1 OXR     -0.057900
     10 C6         21.8120   -9.7490   42.2060 cf        1 OXR     -0.013200
     11 C7         20.4200   -9.4000   42.4670 cf        1 OXR     -0.140000
     12 C8         19.6330   -8.7210   41.6170 ce        1 OXR     -0.109000
     13 C9         18.2360   -8.3900   41.8680 ce        1 OXR     -0.076200
     14 C19        17.5860   -9.0400   43.0320 c3        1 OXR     -0.061900
     15 C10        17.6130   -7.5180   41.0420 cf        1 OXR     -0.119000
     16 C11        16.2490   -7.0600   41.1610 cf        1 OXR     -0.128000
     17 C12        15.6890   -6.2390   40.2530 ce        1 OXR     -0.119000
     18 C13        14.3220   -5.7390   40.3190 ce        1 OXR     -0.050200
     19 C20        13.4930   -6.1560   41.4770 c3        1 OXR     -0.064900
     20 C14        13.8670   -4.9270   39.3440 c2        1 OXR     -0.170200
     21 C15        12.5160   -4.3070   39.2910 c3        1 OXR      0.167600
     22 O1         11.5270   -5.3290   39.2940 oh        1 OXR     -0.595800
     23 H31        24.8900  -10.5490   43.0140 hc        1 OXR      0.072700
     24 H32        25.4450  -10.9300   41.3350 hc        1 OXR      0.072700
     25 H21        23.7730  -12.6030   42.1820 hc        1 OXR      0.050700
     26 H22        23.2000  -11.7350   40.7020 hc        1 OXR      0.050700
     27 H171       23.1770  -10.6360   44.3910 hc        1 OXR      0.039867
     28 H172       21.4270  -11.0680   44.5790 hc        1 OXR      0.039867
     29 H173       22.6520  -12.3710   44.2860 hc        1 OXR      0.039867
     30 H161       21.3530  -13.1780   42.2560 hc        1 OXR      0.039867
     31 H162       20.1170  -11.9260   42.6870 hc        1 OXR      0.039867
     32 H163       20.8120  -11.9720   41.0130 hc        1 OXR      0.039867
     33 H181       22.1390   -7.3250   40.3760 hc        1 OXR      0.051700
     34 H182       21.5360   -7.0800   42.0720 hc        1 OXR      0.051700
     35 H183       23.2840   -6.7870   41.6670 hc        1 OXR      0.051700
     36 H7         20.0350   -9.7590   43.4380 ha        1 OXR      0.133000
     37 H8         20.0370   -8.3750   40.6470 ha        1 OXR      0.131000
     38 H191       17.9490   -8.5720   43.9820 hc        1 OXR      0.045033
     39 H192       16.4740   -8.9490   42.9990 hc        1 OXR      0.045033
     40 H193       17.8390  -10.1300   43.0580 hc        1 OXR      0.045033
     41 H10        18.1790   -7.0940   40.1910 ha        1 OXR      0.123000
     42 H11        15.6730   -7.4040   42.0360 ha        1 OXR      0.129000
     43 H12        16.2750   -5.8990   39.3800 ha        1 OXR      0.122000
     44 H201       13.9720   -5.8260   42.4330 hc        1 OXR      0.048700
     45 H202       12.4650   -5.7200   41.4210 hc        1 OXR      0.048700
     46 H203       13.3950   -7.2700   41.4950 hc        1 OXR      0.048700
     47 H14        14.5210   -4.6550   38.5000 ha        1 OXR      0.124000
     48 H151       12.4130   -3.6890   38.3570 h1        1 OXR      0.025700
     49 H152       12.3620   -3.6350   40.1820 h1        1 OXR      0.025700
     50 HO1        10.6780   -4.8840   39.1890 ho        1 OXR      0.398000
@<TRIPOS>BOND
     1    1    2 2   
     2    2    3 1   
     3    2    8 1   
     4    3    4 1   
     5    3   23 1   
     6    3   24 1   
     7    4    5 1   
     8    4   25 1   
     9    4   26 1   
    10    5    6 1   
    11    5    7 1   
    12    5   10 1   
    13    6   27 1   
    14    6   28 1   
    15    6   29 1   
    16    7   30 1   
    17    7   31 1   
    18    7   32 1   
    19    8    9 1   
    20    8   10 2   
    21    9   33 1   
    22    9   34 1   
    23    9   35 1   
    24   10   11 1   
    25   11   12 2   
    26   11   36 1   
    27   12   13 1   
    28   12   37 1   
    29   13   14 1   
    30   13   15 2   
    31   14   38 1   
    32   14   39 1   
    33   14   40 1   
    34   15   16 1   
    35   15   41 1   
    36   16   17 2   
    37   16   42 1   
    38   17   18 1   
    39   17   43 1   
    40   18   19 1   
    41   18   20 2   
    42   19   44 1   
    43   19   45 1   
    44   19   46 1   
    45   20   21 1   
    46   20   47 1   
    47   21   22 1   
    48   21   48 1   
    49   21   49 1   
    50   22   50 1   
@<TRIPOS>SUBSTRUCTURE
     1 OXR         1 TEMP              0 ****  ****    0 ROOT
