@<TRIPOS>MOLECULE
OXR
   50    45     1     0     0
SMALL
bcc


@<TRIPOS>ATOM
      1 O2         -2.9250   -2.2690    2.7750 o         1 OXR     -0.298000
      2 C4         -1.7240   -2.2570    2.7960 c1        1 OXR      0.261000
      3 C3         -0.9930   -2.2300    4.1150 c2        1 OXR     -0.209000
      4 C2          0.1960   -1.3570    4.0840 c3        1 OXR     -0.146000
      5 C1          1.1990   -1.5950    3.0220 c3        1 OXR     -0.027000
      6 C17         2.3630   -0.5920    3.1460 c3        1 OXR     -0.204500
      7 C16         1.9350   -2.9230    3.2670 c3        1 OXR     -0.204500
      8 C5         -0.9130   -1.9230    1.4790 c2        1 OXR     -0.156000
      9 C18        -1.4860   -2.2950    0.1140 c3        1 OXR     -0.183000
     10 C6          0.5950   -1.5850    1.6200 c2        1 OXR     -0.013000
     11 C7          1.5090   -1.6410    0.3910 c2        1 OXR     -0.130000
     12 C8          1.5000   -0.5920   -0.5400 c1        1 OXR     -0.115000
     13 C9          0.5720    0.6190   -0.3300 c1        1 OXR     -0.080000
     14 C19         0.4750    1.2670    1.0200 c3        1 OXR     -0.179000
     15 C10        -0.1660    1.1090   -1.3810 c1        1 OXR     -0.144000
     16 C11        -0.0660    0.4450   -2.7720 c1        1 OXR     -0.126000
     17 C12        -0.1190    1.2150   -3.9050 c1        1 OXR     -0.126000
     18 C13        -0.2770    2.7510   -3.7910 c1        1 OXR     -0.080000
     19 C20         0.8680    3.6010   -3.2230 c3        1 OXR     -0.179000
     20 C14        -1.4200    3.3430   -4.1900 c1        1 OXR     -0.144000
     21 C15        -2.5440    2.5120   -4.7470 c2        1 OXR      0.008000
     22 O1         -3.5340    3.3590   -5.2800 oh        1 OXR     -0.328000
     23 H31        -0.7120   -3.0810    4.5350 ha        1 OXR      0.113000
     24 H32        -1.6610   -1.9250    4.7670 ha        1 OXR      0.113000
     25 H21         0.6490   -1.4430    4.9460 hc        1 OXR      0.089000
     26 H22        -0.1140   -0.4360    3.9990 hc        1 OXR      0.089000
     27 H171        2.0040    0.3160    3.2540 hc        1 OXR      0.079333
     28 H172        2.9200   -0.8240    3.9370 hc        1 OXR      0.079333
     29 H173        2.9130   -0.6300    2.3390 hc        1 OXR      0.079333
     30 H161        2.1740   -2.9940    4.2120 hc        1 OXR      0.079333
     31 H162        2.7440   -2.9510    2.7250 hc        1 OXR      0.079333
     32 H163        1.3460   -3.6760    3.0190 hc        1 OXR      0.079333
     33 H181       -0.7530   -2.4860   -0.5070 hc        1 OXR      0.092667
     34 H182       -2.0580   -3.0960    0.2040 hc        1 OXR      0.092667
     35 H183       -2.0200   -1.5490   -0.2310 hc        1 OXR      0.092667
     36 H7          2.1070   -2.4190    0.2530 ha        1 OXR      0.131000
     37 H8          2.0890   -0.6300   -1.3290 ha        1 OXR      0.129000
     38 H191       -0.1580    0.7750    1.5710 hc        1 OXR      0.085000
     39 H192        1.3640    1.2610    1.4540 hc        1 OXR      0.085000
     40 H193        0.1660    2.1990    0.9160 hc        1 OXR      0.085000
     41 H10        -0.7500    1.8710   -1.2490 ha        1 OXR      0.140000
     42 H11         0.0340   -0.5290   -2.8450 ha        1 OXR      0.125500
     43 H12        -0.0560    0.7940   -4.7860 ha        1 OXR      0.125500
     44 H201        1.0730    4.3300   -3.8440 hc        1 OXR      0.085000
     45 H202        1.6610    3.0410   -3.1050 hc        1 OXR      0.085000
     46 H203        0.5980    3.9770   -2.3510 hc        1 OXR      0.085000
     47 H14        -1.5180    4.3100   -4.1180 ha        1 OXR      0.140000
     48 H151       -2.9320    1.9660   -4.0320 h4        1 OXR      0.072500
     49 H152       -2.1990    1.9280   -5.4540 h4        1 OXR      0.072500
     50 HO1        -3.9590    2.9390   -5.9480 ho        1 OXR      0.200000
@<TRIPOS>BOND
     1    1    2 1   
     2    2    8 1   
     3    3    4 1   
     4    3   23 1   
     5    3   24 1   
     6    4    5 1   
     7    4   25 1   
     8    4   26 1   
     9    5    6 1   
    10    5    7 1   
    11    5   10 1   
    12    6   27 1   
    13    6   28 1   
    14    6   29 1   
    15    7   30 1   
    16    7   31 1   
    17    7   32 1   
    18    8    9 1   
    19    8   10 1   
    20    9   33 1   
    21    9   34 1   
    22    9   35 1   
    23   10   11 1   
    24   11   12 1   
    25   11   36 1   
    26   12   37 1   
    27   13   14 1   
    28   13   15 1   
    29   14   38 1   
    30   14   39 1   
    31   14   40 1   
    32   15   41 1   
    33   16   17 1   
    34   16   42 1   
    35   17   43 1   
    36   18   19 1   
    37   18   20 1   
    38   19   44 1   
    39   19   45 1   
    40   19   46 1   
    41   20   47 1   
    42   21   22 1   
    43   21   48 1   
    44   21   49 1   
    45   22   50 1   
@<TRIPOS>SUBSTRUCTURE
     1 OXR         1 TEMP              0 ****  ****    0 ROOT
