@<TRIPOS>MOLECULE
OXR
   50    50     1     0     0
SMALL
bcc


@<TRIPOS>ATOM
      1 O2          0.9860   -1.7110   -3.3520 o         1 OXR     -0.543100
      2 C4          1.7860   -1.0100   -2.7180 c         1 OXR      0.575300
      3 C3          1.9230   -1.1740   -1.2300 c3        1 OXR     -0.179400
      4 C2          2.6540   -0.0330   -0.5660 c3        1 OXR     -0.069400
      5 C1          3.9600    0.3240   -1.2820 c3        1 OXR     -0.017800
      6 C17         4.9470   -0.8310   -1.1610 c3        1 OXR     -0.087100
      7 C16         4.5490    1.5560   -0.6050 c3        1 OXR     -0.087100
      8 C5          2.6430   -0.0030   -3.3790 ce        1 OXR     -0.187400
      9 C18         2.3060    0.3240   -4.7860 c3        1 OXR     -0.066900
     10 C6          3.6650    0.6050   -2.7330 cf        1 OXR     -0.009200
     11 C7          4.4390    1.6510   -3.4010 cf        1 OXR     -0.124000
     12 C8          5.6650    1.6060   -3.9300 ce        1 OXR     -0.113000
     13 C9          6.6140    0.4990   -3.9490 ce        1 OXR     -0.081200
     14 C19         7.7150    0.6160   -2.9530 c3        1 OXR     -0.060900
     15 C10         6.5950   -0.5200   -4.8270 cf        1 OXR     -0.127000
     16 C11         5.6750   -0.7130   -5.9270 cf        1 OXR     -0.127000
     17 C12         5.2980    0.2600   -6.7720 ce        1 OXR     -0.119000
     18 C13         4.4200    0.0670   -7.9190 ce        1 OXR     -0.086200
     19 C20         3.6570   -1.2040   -7.9860 c3        1 OXR     -0.065900
     20 C14         4.3320    1.0280   -8.8570 c2        1 OXR     -0.159200
     21 C15         3.4730    0.9390  -10.0660 c3        1 OXR      0.162600
     22 O1          3.6640    2.1320  -10.8170 oh        1 OXR     -0.600800
     23 H31         0.8980   -1.2790   -0.7830 hc        1 OXR      0.073200
     24 H32         2.4620   -2.1420   -1.0440 hc        1 OXR      0.073200
     25 H21         2.8830   -0.3080    0.4970 hc        1 OXR      0.048700
     26 H22         1.9940    0.8740   -0.5450 hc        1 OXR      0.048700
     27 H171        5.9090   -0.5710   -1.6660 hc        1 OXR      0.040367
     28 H172        4.5360   -1.7510   -1.6410 hc        1 OXR      0.040367
     29 H173        5.1510   -1.0450   -0.0850 hc        1 OXR      0.040367
     30 H161        5.5300    1.8220   -1.0650 hc        1 OXR      0.040367
     31 H162        4.7060    1.3530    0.4820 hc        1 OXR      0.040367
     32 H163        3.8580    2.4260   -0.7120 hc        1 OXR      0.040367
     33 H181        1.6070   -0.4350   -5.2190 hc        1 OXR      0.054367
     34 H182        3.2310    0.3580   -5.4180 hc        1 OXR      0.054367
     35 H183        1.8130    1.3280   -4.8340 hc        1 OXR      0.054367
     36 H7          3.8710    2.6010   -3.4700 ha        1 OXR      0.131000
     37 H8          6.0680    2.5240   -4.4030 ha        1 OXR      0.127000
     38 H191        8.5350    1.2480   -3.3790 hc        1 OXR      0.044700
     39 H192        7.3590    1.1010   -2.0110 hc        1 OXR      0.044700
     40 H193        8.1400   -0.3860   -2.6990 hc        1 OXR      0.044700
     41 H10         7.3580   -1.3170   -4.7390 ha        1 OXR      0.126000
     42 H11         5.3260   -1.7530   -6.0620 ha        1 OXR      0.130000
     43 H12         5.6690    1.2910   -6.6260 ha        1 OXR      0.126000
     44 H201        3.1150   -1.3770   -7.0210 hc        1 OXR      0.045700
     45 H202        2.9050   -1.1950   -8.8120 hc        1 OXR      0.045700
     46 H203        4.3540   -2.0630   -8.1570 hc        1 OXR      0.045700
     47 H14         4.9140    1.9620   -8.7750 ha        1 OXR      0.145000
     48 H151        2.3890    0.8450   -9.7780 h1        1 OXR      0.033200
     49 H152        3.7580    0.0490  -10.6930 h1        1 OXR      0.033200
     50 HO1         3.1020    2.0560  -11.5950 ho        1 OXR      0.401000
@<TRIPOS>BOND
     1    1    2 2   
     2    2    3 1   
     3    2    8 1   
     4    3    4 1   
     5    3   23 1   
     6    3   24 1   
     7    4    5 1   
     8    4   25 1   
     9    4   26 1   
    10    5    6 1   
    11    5    7 1   
    12    5   10 1   
    13    6   27 1   
    14    6   28 1   
    15    6   29 1   
    16    7   30 1   
    17    7   31 1   
    18    7   32 1   
    19    8    9 1   
    20    8   10 2   
    21    9   33 1   
    22    9   34 1   
    23    9   35 1   
    24   10   11 1   
    25   11   12 2   
    26   11   36 1   
    27   12   13 1   
    28   12   37 1   
    29   13   14 1   
    30   13   15 2   
    31   14   38 1   
    32   14   39 1   
    33   14   40 1   
    34   15   16 1   
    35   15   41 1   
    36   16   17 2   
    37   16   42 1   
    38   17   18 1   
    39   17   43 1   
    40   18   19 1   
    41   18   20 2   
    42   19   44 1   
    43   19   45 1   
    44   19   46 1   
    45   20   21 1   
    46   20   47 1   
    47   21   22 1   
    48   21   48 1   
    49   21   49 1   
    50   22   50 1   
@<TRIPOS>SUBSTRUCTURE
     1 OXR         1 TEMP              0 ****  ****    0 ROOT
