@<TRIPOS>MOLECULE
OXS
   16    15     1     0     0
SMALL
bcc


@<TRIPOS>ATOM
      1 C1         -0.2430   -0.5450   -0.0560 c         1 OXS      0.933600
      2 C2          1.2460   -0.1130    0.0360 c3        1 OXS     -0.248700
      3 C3          1.6390    0.0850    1.4970 c3        1 OXS     -0.148400
      4 C4          1.9580    1.4960    1.9900 c         1 OXS      0.901600
      5 C5          2.1400   -1.1180   -0.6560 c         1 OXS      0.524100
      6 C6          2.4260   -1.0020   -2.1620 c         1 OXS      0.847600
      7 O1         -0.6710   -1.5230    0.6340 o         1 OXS     -0.883800
      8 O2         -1.0300    0.1220   -0.7950 o         1 OXS     -0.883800
      9 O3          1.9920    2.5110    1.2330 o         1 OXS     -0.903800
     10 O4          2.2140    1.6240    3.2400 o         1 OXS     -0.903800
     11 O5          2.7210   -2.0300   -0.0350 o         1 OXS     -0.653100
     12 O6          3.2720   -0.1390   -2.5540 o         1 OXS     -0.869800
     13 O7          1.8950   -1.8240   -2.9680 o         1 OXS     -0.869800
     14 H2          1.3500    0.8680   -0.5070 hc        1 OXS      0.093700
     15 H31         2.5470   -0.5350    1.7270 hc        1 OXS      0.032200
     16 H32         0.8140   -0.3080    2.1490 hc        1 OXS      0.032200
@<TRIPOS>BOND
     1    1    2 1   
     2    1    7 1   
     3    1    8 1   
     4    2    3 1   
     5    2    5 1   
     6    2   14 1   
     7    3    4 1   
     8    3   15 1   
     9    3   16 1   
    10    4    9 1   
    11    4   10 1   
    12    5    6 1   
    13    5   11 2   
    14    6   12 1   
    15    6   13 1   
@<TRIPOS>SUBSTRUCTURE
     1 OXS         1 TEMP              0 ****  ****    0 ROOT
