@<TRIPOS>MOLECULE
OXS
   16    14     1     0     0
SMALL
bcc


@<TRIPOS>ATOM
      1 C1         -1.6290    0.0180   -0.1220 c1        1 OXS      0.820000
      2 C2         -0.1190    0.1000   -0.1610 c2        1 OXS     -0.192200
      3 C3          0.4210    0.1340    1.2520 c3        1 OXS     -0.144200
      4 C4          0.1230    1.4800    1.8730 c         1 OXS      0.901600
      5 C5          0.4330   -1.1100   -0.8830 ce        1 OXS      0.500300
      6 C6          0.9540   -0.9740   -2.2970 c         1 OXS      0.847600
      7 O1         -2.3220    1.0300   -0.4030 o         1 OXS     -0.852000
      8 O2         -2.1930   -1.0630    0.1920 o         1 OXS     -0.852000
      9 O3          0.8410    2.4760    1.5940 o         1 OXS     -0.903800
     10 O4         -0.8440    1.6060    2.6700 o         1 OXS     -0.903800
     11 O5          0.4580   -2.1900   -0.3280 o         1 OXS     -0.679300
     12 O6          0.1650   -1.0820   -3.2720 o         1 OXS     -0.869800
     13 O7          2.1780   -0.7550   -2.4980 o         1 OXS     -0.869800
     14 H2          0.1510    0.9110   -0.6320 ha        1 OXS      0.133000
     15 H31        -0.0050   -0.5710    1.7800 hc        1 OXS      0.032200
     16 H32         1.3880   -0.0100    1.2350 hc        1 OXS      0.032200
@<TRIPOS>BOND
     1    1    7 2   
     2    1    8 2   
     3    2    3 1   
     4    2    5 2   
     5    2   14 1   
     6    3    4 1   
     7    3   15 1   
     8    3   16 1   
     9    4    9 1   
    10    4   10 1   
    11    5    6 1   
    12    5   11 1   
    13    6   12 1   
    14    6   13 1   
@<TRIPOS>SUBSTRUCTURE
     1 OXS         1 TEMP              0 ****  ****    0 ROOT
