@<TRIPOS>MOLECULE
OXS
   16    15     1     0     0
SMALL
bcc


@<TRIPOS>ATOM
      1 C1          1.2920    0.9870    0.0790 c         1 OXS      0.933600
      2 C2          0.0820    0.0130    0.0910 c3        1 OXS     -0.248700
      3 C3         -0.7440    0.2290    1.3560 c3        1 OXS     -0.148400
      4 C4         -0.7780   -0.8750    2.4120 c         1 OXS      0.901600
      5 C5         -0.7520    0.1780   -1.1600 c         1 OXS      0.524100
      6 C6         -0.4110   -0.6110   -2.4350 c         1 OXS      0.847600
      7 O1          1.1150    2.2320    0.2620 o         1 OXS     -0.883800
      8 O2          2.4590    0.5110   -0.0720 o         1 OXS     -0.883800
      9 O3         -0.2200   -2.0030    2.2640 o         1 OXS     -0.903800
     10 O4         -1.4260   -0.6230    3.4890 o         1 OXS     -0.903800
     11 O5         -1.7690    0.8980   -1.1920 o         1 OXS     -0.653100
     12 O6         -0.7460   -1.8330   -2.5010 o         1 OXS     -0.869800
     13 O7          0.1030   -0.0100   -3.4260 o         1 OXS     -0.869800
     14 H2          0.4890   -1.0370    0.0950 hc        1 OXS      0.093700
     15 H31        -1.8150    0.4200    1.0750 hc        1 OXS      0.032200
     16 H32        -0.3810    1.1590    1.8700 hc        1 OXS      0.032200
@<TRIPOS>BOND
     1    1    2 1   
     2    1    7 1   
     3    1    8 1   
     4    2    3 1   
     5    2    5 1   
     6    2   14 1   
     7    3    4 1   
     8    3   15 1   
     9    3   16 1   
    10    4    9 1   
    11    4   10 1   
    12    5    6 1   
    13    5   11 2   
    14    6   12 1   
    15    6   13 1   
@<TRIPOS>SUBSTRUCTURE
     1 OXS         1 TEMP              0 ****  ****    0 ROOT
