@<TRIPOS>MOLECULE
OXX
   19    18     1     0     0
SMALL
bcc


@<TRIPOS>ATOM
      1 N           1.0910   -0.8000    2.2350 n3        1 OXX     -0.887800
      2 CA         -0.0250   -1.5030    1.6160 c3        1 OXX      0.030500
      3 CB          0.1590   -1.7330    0.1160 c3        1 OXX     -0.121400
      4 CG          0.0750   -0.4710   -0.6890 c         1 OXX      0.653100
      5 OD2        -0.6820    0.4880   -0.5490 o         1 OXX     -0.536000
      6 OD1         1.0140   -0.4350   -1.6980 os        1 OXX     -0.497200
      7 C2          0.9020    0.3340   -2.8410 c         1 OXX      0.541100
      8 O3         -0.1990    0.8090   -3.1090 o         1 OXX     -0.566000
      9 C1          2.2150    0.4000   -3.6660 c         1 OXX      0.913600
     10 O1          2.9810    1.3650   -3.4280 o         1 OXX     -0.797800
     11 O2          2.3720   -0.4940   -4.5330 o         1 OXX     -0.797800
     12 C          -0.3770   -2.8700    2.2910 c         1 OXX      0.885600
     13 O           0.1990   -3.1670    3.3790 o         1 OXX     -0.852800
     14 OXT        -1.2430   -3.6040    1.7360 o         1 OXX     -0.852800
     15 H           1.0710   -1.0120    3.2200 hn        1 OXX      0.330300
     16 H2          1.9520   -1.1730    1.8770 hn        1 OXX      0.330300
     17 HA         -0.9300   -0.8400    1.7560 h1        1 OXX      0.060700
     18 HB2         1.1320   -2.2480   -0.0960 hc        1 OXX      0.081700
     19 HB3        -0.6730   -2.4090   -0.2270 hc        1 OXX      0.081700
@<TRIPOS>BOND
     1    1    2 1   
     2    1   15 1   
     3    1   16 1   
     4    2    3 1   
     5    2   12 1   
     6    2   17 1   
     7    3    4 1   
     8    3   18 1   
     9    3   19 1   
    10    4    5 2   
    11    4    6 1   
    12    6    7 1   
    13    7    8 2   
    14    7    9 1   
    15    9   10 1   
    16    9   11 1   
    17   12   13 1   
    18   12   14 1   
@<TRIPOS>SUBSTRUCTURE
     1 OXX         1 TEMP              0 ****  ****    0 ROOT
