@<TRIPOS>MOLECULE
OXZ
   21    21     1     0     0
SMALL
bcc


@<TRIPOS>ATOM
      1 C6         -0.0250    0.1660   -0.0770 c3        1 OXZ      0.133400
      2 C5          1.4880   -0.0400   -0.0160 c3        1 OXZ      0.146100
      3 C4          1.9810   -0.0810    1.4410 c3        1 OXZ      0.121100
      4 C3          3.5200   -0.0350    1.4620 c3        1 OXZ      0.103100
      5 C2          4.0260    1.1290    0.5930 c3        1 OXZ      0.065800
      6 O6         -0.4720   -0.4050   -1.2950 oh        1 OXZ     -0.593800
      7 O5          2.0610    1.1280   -0.6580 os        1 OXZ     -0.251100
      8 O4          1.5070   -1.2850    2.0160 oh        1 OXZ     -0.593800
      9 O3          3.8880    0.1590    2.8190 oh        1 OXZ     -0.605800
     10 N1          3.4130    1.0880   -0.7440 n7        1 OXZ     -0.539700
     11 H1C1       -0.5000   -0.3700    0.7890 h1        1 OXZ      0.044700
     12 H1C2       -0.2720    1.2600   -0.0370 h1        1 OXZ      0.044700
     13 H2          1.7820   -0.9740   -0.5650 h1        1 OXZ      0.097700
     14 H3          1.5770    0.7990    2.0150 h1        1 OXZ      0.055700
     15 H4          3.9320   -1.0140    1.0920 h1        1 OXZ      0.064700
     16 H5C1        3.8270    2.0890    1.1470 h1        1 OXZ      0.052200
     17 H5C2        5.1350    1.0300    0.4410 h1        1 OXZ      0.052200
     18 HA         -1.3830   -0.1140   -1.4170 ho        1 OXZ      0.402000
     19 HB          1.9000   -1.3360    2.8980 ho        1 OXZ      0.420000
     20 HC          4.8510    0.1740    2.8500 ho        1 OXZ      0.409000
     21 H1          3.6560    1.9530   -1.2290 hn        1 OXZ      0.371800
@<TRIPOS>BOND
     1    1    2 1   
     2    1    6 1   
     3    1   11 1   
     4    1   12 1   
     5    2    3 1   
     6    2    7 1   
     7    2   13 1   
     8    3    4 1   
     9    3    8 1   
    10    3   14 1   
    11    4    5 1   
    12    4    9 1   
    13    4   15 1   
    14    5   10 1   
    15    5   16 1   
    16    5   17 1   
    17    6   18 1   
    18    7   10 1   
    19    8   19 1   
    20    9   20 1   
    21   10   21 1   
@<TRIPOS>SUBSTRUCTURE
     1 OXZ         1 TEMP              0 ****  ****    0 ROOT
