@<TRIPOS>MOLECULE
OXZ
   21    21     1     0     0
SMALL
bcc


@<TRIPOS>ATOM
      1 C6         -0.0210    0.1590   -0.0880 c3        1 OXZ      0.133400
      2 C5          1.4920   -0.0450   -0.0180 c3        1 OXZ      0.146100
      3 C4          1.9770   -0.0780    1.4420 c3        1 OXZ      0.121100
      4 C3          3.5160   -0.0290    1.4700 c3        1 OXZ      0.103100
      5 C2          4.0250    1.1320    0.5980 c3        1 OXZ      0.065800
      6 O6         -0.4610   -0.4190   -1.3050 oh        1 OXZ     -0.593800
      7 O5          2.0660    1.1220   -0.6630 os        1 OXZ     -0.251100
      8 O4          1.5030   -1.2800    2.0200 oh        1 OXZ     -0.593800
      9 O3          3.8770    0.1720    2.8280 oh        1 OXZ     -0.605800
     10 N1          3.4180    1.0840   -0.7420 n3        1 OXZ     -0.539700
     11 H1C1       -0.2700    1.2520   -0.0540 h1        1 OXZ      0.044700
     12 H1C2       -0.4990   -0.3740    0.7780 h1        1 OXZ      0.044700
     13 H2          1.7900   -0.9810   -0.5610 h1        1 OXZ      0.097700
     14 H3          1.5690    0.8050    2.0090 h1        1 OXZ      0.055700
     15 H4          3.9320   -1.0090    1.1060 h1        1 OXZ      0.064700
     16 H5C1        5.1350    1.0350    0.4520 h1        1 OXZ      0.052200
     17 H5C2        3.8210    2.0950    1.1460 h1        1 OXZ      0.052200
     18 HA         -1.3730   -0.1330   -1.4310 ho        1 OXZ      0.402000
     19 HB          1.8920   -1.3260    2.9040 ho        1 OXZ      0.420000
     20 HC          4.8400    0.1900    2.8630 ho        1 OXZ      0.409000
     21 H1          3.6630    1.9460   -1.2300 hn        1 OXZ      0.371800
@<TRIPOS>BOND
     1    1    2 1   
     2    1    6 1   
     3    1   11 1   
     4    1   12 1   
     5    2    3 1   
     6    2    7 1   
     7    2   13 1   
     8    3    4 1   
     9    3    8 1   
    10    3   14 1   
    11    4    5 1   
    12    4    9 1   
    13    4   15 1   
    14    5   10 1   
    15    5   16 1   
    16    5   17 1   
    17    6   18 1   
    18    7   10 1   
    19    8   19 1   
    20    9   20 1   
    21   10   21 1   
@<TRIPOS>SUBSTRUCTURE
     1 OXZ         1 TEMP              0 ****  ****    0 ROOT
