@<TRIPOS>MOLECULE
OXZ
   21    21     1     0     0
SMALL
bcc


@<TRIPOS>ATOM
      1 C6         -0.1120    0.0580    0.0670 c3        1 OXZ      0.136400
      2 C5          1.4070   -0.1220    0.0670 c3        1 OXZ      0.106100
      3 C4          1.9720   -0.1020    1.4940 c3        1 OXZ      0.126100
      4 C3          3.5090   -0.0130    1.4360 c3        1 OXZ      0.103100
      5 C2          3.9380    1.1270    0.4980 c3        1 OXZ      0.065800
      6 O6         -0.6550   -0.1540   -1.2170 oh        1 OXZ     -0.593800
      7 O5          1.9180    1.0250   -0.6600 os        1 OXZ     -0.266100
      8 O4          1.5650   -1.3040    2.1240 oh        1 OXZ     -0.594800
      9 O3          3.9370    0.2460    2.7640 oh        1 OXZ     -0.604800
     10 N1          3.2650    1.0200   -0.8060 n3        1 OXZ     -0.537700
     11 H1C1       -0.3790    1.0820    0.4400 h1        1 OXZ      0.063200
     12 H1C2       -0.5720   -0.7300    0.7220 h1        1 OXZ      0.063200
     13 H2          1.6920   -1.0720   -0.4590 h1        1 OXZ      0.089700
     14 H3          1.5710    0.7820    2.0630 h1        1 OXZ      0.058700
     15 H4          3.9310   -0.9950    1.0840 h1        1 OXZ      0.064700
     16 H5C1        3.7370    2.1040    1.0230 h1        1 OXZ      0.054700
     17 H5C2        5.0410    1.0540    0.2960 h1        1 OXZ      0.054700
     18 HA         -0.2210    0.4670   -1.8160 ho        1 OXZ      0.410000
     19 HB          1.9860   -1.3080    2.9950 ho        1 OXZ      0.421000
     20 HC          4.9010    0.2810    2.7470 ho        1 OXZ      0.409000
     21 H1          3.4610    1.8730   -1.3310 hn        1 OXZ      0.370800
@<TRIPOS>BOND
     1    1    2 1   
     2    1    6 1   
     3    1   11 1   
     4    1   12 1   
     5    2    3 1   
     6    2    7 1   
     7    2   13 1   
     8    3    4 1   
     9    3    8 1   
    10    3   14 1   
    11    4    5 1   
    12    4    9 1   
    13    4   15 1   
    14    5   10 1   
    15    5   16 1   
    16    5   17 1   
    17    6   18 1   
    18    7   10 1   
    19    8   19 1   
    20    9   20 1   
    21   10   21 1   
@<TRIPOS>SUBSTRUCTURE
     1 OXZ         1 TEMP              0 ****  ****    0 ROOT
