@<TRIPOS>MOLECULE
OXZ
   21    21     1     0     0
SMALL
bcc


@<TRIPOS>ATOM
      1 C6         -2.1290   -0.2660   -0.6940 c3        1 OXZ      0.144400
      2 C5         -0.6220   -0.2660   -0.6940 c3        1 OXZ      0.048100
      3 C4         -0.1410   -0.2660    0.7100 c3        1 OXZ      0.128100
      4 C3          1.3200   -0.0870    0.7980 c3        1 OXZ      0.070100
      5 C2          1.7910    1.1000    0.0220 c3        1 OXZ      0.064800
      6 O6         -2.6000   -0.1090   -2.0160 oh        1 OXZ     -0.594800
      7 O5         -0.1430    0.9110   -1.4550 os        1 OXZ     -0.218100
      8 O4         -0.4990   -1.5380    1.3310 oh        1 OXZ     -0.594800
      9 O3          1.6890    0.0870    2.1940 oh        1 OXZ     -0.596800
     10 N1          1.3010    1.0940   -1.3650 n3        1 OXZ     -0.506700
     11 H1C1       -2.4550   -1.1120   -0.3310 h1        1 OXZ      0.064200
     12 H1C2       -2.4550    0.4710   -0.1440 h1        1 OXZ      0.064200
     13 H2         -0.3060   -1.0770   -1.1360 h1        1 OXZ      0.073700
     14 H3         -0.5800    0.4590    1.1950 h1        1 OXZ      0.066700
     15 H4          1.7590   -0.8870    0.4510 h1        1 OXZ      0.051700
     16 H5C1        1.4760    1.9120    0.4650 h1        1 OXZ      0.075700
     17 H5C2        2.7670    1.1040    0.0130 h1        1 OXZ      0.075700
     18 HA         -3.4840   -0.1820   -2.0260 ho        1 OXZ      0.412000
     19 HB         -0.8250   -1.3890    2.1430 ho        1 OXZ      0.422000
     20 HC          2.4150   -0.3930    2.3710 ho        1 OXZ      0.411000
     21 H1          1.7210    0.4330   -1.8320 hn        1 OXZ      0.337800
@<TRIPOS>BOND
     1    1    2 1   
     2    1    6 1   
     3    1   11 1   
     4    1   12 1   
     5    2    3 1   
     6    2    7 1   
     7    2   13 1   
     8    3    4 1   
     9    3    8 1   
    10    3   14 1   
    11    4    5 1   
    12    4    9 1   
    13    4   15 1   
    14    5   10 1   
    15    5   16 1   
    16    5   17 1   
    17    6   18 1   
    18    7   10 1   
    19    8   19 1   
    20    9   20 1   
    21   10   21 1   
@<TRIPOS>SUBSTRUCTURE
     1 OXZ         1 TEMP              0 ****  ****    0 ROOT
