@<TRIPOS>MOLECULE
OXZ
   21    21     1     0     0
SMALL
bcc


@<TRIPOS>ATOM
      1 C6          0.8420    0.3880    2.1010 c3        1 OXZ      0.136400
      2 C5          0.1880   -0.2590    0.8800 c3        1 OXZ      0.106100
      3 C4          0.8920    0.1590   -0.4190 c3        1 OXZ      0.126100
      4 C3          0.0480   -0.2880   -1.6270 c3        1 OXZ      0.103100
      5 C2         -1.4130    0.1610   -1.4480 c3        1 OXZ      0.065800
      6 O6          0.3270   -0.1420    3.3030 oh        1 OXZ     -0.593800
      7 O5         -1.1690    0.2560    0.8680 os        1 OXZ     -0.266100
      8 O4          2.1590   -0.4750   -0.4320 oh        1 OXZ     -0.594800
      9 O3          0.6250    0.3380   -2.7620 oh        1 OXZ     -0.604800
     10 N1         -1.9320   -0.2460   -0.1330 n3        1 OXZ     -0.537700
     11 H1C1        0.6990    1.5010    2.0720 h1        1 OXZ      0.063200
     12 H1C2        1.9360    0.1340    2.1050 h1        1 OXZ      0.063200
     13 H2          0.1770   -1.3770    0.9830 h1        1 OXZ      0.089700
     14 H3          1.0240    1.2760   -0.4520 h1        1 OXZ      0.058700
     15 H4          0.1070   -1.4060   -1.7360 h1        1 OXZ      0.064700
     16 H5C1       -2.0580   -0.3420   -2.2170 h1        1 OXZ      0.054700
     17 H5C2       -1.4580    1.2740   -1.6190 h1        1 OXZ      0.054700
     18 HA         -0.6280    0.0010    3.2900 ho        1 OXZ      0.410000
     19 HB          2.5590   -0.2590   -1.2850 ho        1 OXZ      0.421000
     20 HC          0.1200    0.0480   -3.5310 ho        1 OXZ      0.409000
     21 H1         -2.8400    0.2030   -0.0020 hn        1 OXZ      0.370800
@<TRIPOS>BOND
     1    1    2 1   
     2    1    6 1   
     3    1   11 1   
     4    1   12 1   
     5    2    3 1   
     6    2    7 1   
     7    2   13 1   
     8    3    4 1   
     9    3    8 1   
    10    3   14 1   
    11    4    5 1   
    12    4    9 1   
    13    4   15 1   
    14    5   10 1   
    15    5   16 1   
    16    5   17 1   
    17    6   18 1   
    18    7   10 1   
    19    8   19 1   
    20    9   20 1   
    21   10   21 1   
@<TRIPOS>SUBSTRUCTURE
     1 OXZ         1 TEMP              0 ****  ****    0 ROOT
