@<TRIPOS>MOLECULE
OY0
   47    47     1     0     0
SMALL
bcc


@<TRIPOS>ATOM
      1 CAA        -0.0680   -0.3990    0.5340 c3        1 OY0     -0.102100
      2 CAB         3.7870    2.5940    0.9680 c3        1 OY0     -0.109433
      3 CAC         4.2510    0.9760   -0.8690 c3        1 OY0     -0.109433
      4 CAD         5.8510    1.2140    0.9860 c3        1 OY0     -0.109433
      5 NAE         8.0780   -2.7280    8.8430 n4        1 OY0     -0.800500
      6 OAF         3.9590    0.7710    3.7680 o         1 OY0     -0.380100
      7 OAG         7.4520   -0.2950    9.1480 o         1 OY0     -0.532800
      8 OAH         5.7520   -2.0010    9.5250 o         1 OY0     -0.532800
      9 CAI         6.6740   -0.4490    4.9430 ca        1 OY0     -0.120000
     10 CAJ         4.9780   -2.1600    5.3190 ca        1 OY0     -0.120000
     11 CAK         7.0510   -0.5470    6.2790 ca        1 OY0      0.028500
     12 CAL         5.3730   -2.2400    6.6510 ca        1 OY0      0.028500
     13 CAM         1.3620   -0.0070    0.2520 c3        1 OY0     -0.078400
     14 CAN         2.1180    0.2340    1.5430 c3        1 OY0     -0.086400
     15 CAP         4.1770    0.0580    2.8130 c         1 OY0      0.567100
     16 CAQ         5.6220   -1.2500    4.4600 ca        1 OY0      0.085600
     17 CAR         6.4080   -1.4350    7.1620 ca        1 OY0     -0.471500
     18 CAS         3.6360    0.0990    1.3930 c3        1 OY0     -0.099700
     19 CAT         4.3670    1.2300    0.6300 c3        1 OY0     -0.047000
     20 SAU         6.7330   -1.4030    8.7710 sy        1 OY0      1.465200
     21 HAA        -0.1170   -1.3690    1.0850 hc        1 OY0      0.052700
     22 HAAA       -0.5800    0.3830    1.1460 hc        1 OY0      0.052700
     23 HAB         2.7570    2.6980    0.5480 hc        1 OY0      0.056811
     24 HABA        4.4240    3.3970    0.5210 hc        1 OY0      0.056811
     25 HABB        3.7480    2.7430    2.0740 hc        1 OY0      0.056811
     26 HAC         4.8090    1.7720   -1.4220 hc        1 OY0      0.056811
     27 HACA        3.1870    1.0060   -1.2050 hc        1 OY0      0.056811
     28 HACB        4.6870   -0.0160   -1.1390 hc        1 OY0      0.056811
     29 HAD         6.0170    1.4630    2.0620 hc        1 OY0      0.056811
     30 HADA        6.3850    1.9890    0.3780 hc        1 OY0      0.056811
     31 HADB        6.3100    0.2240    0.7450 hc        1 OY0      0.056811
     32 HNAE        7.7990   -3.4860    9.4730 hn        1 OY0      0.470133
     33 HNAA        8.3000   -3.1470    7.9440 hn        1 OY0      0.470133
     34 HAI         7.1940    0.2770    4.2900 ha        1 OY0      0.189500
     35 HAJ         4.1510   -2.8040    4.9670 ha        1 OY0      0.189500
     36 HAK         7.8560    0.1190    6.6540 ha        1 OY0      0.198000
     37 HAL         4.8310   -2.9370    7.3250 ha        1 OY0      0.198000
     38 HAM         1.3660    0.9320   -0.3650 hc        1 OY0      0.056200
     39 HAN         1.7760   -0.5210    2.3040 hc        1 OY0      0.066200
     40 HANA        1.8640    1.2490    1.9490 hc        1 OY0      0.066200
     41 HNAO        4.7290   -1.9870    2.7720 hn        1 OY0      0.470800
     42 HAS         3.8540   -0.8690    0.8580 hc        1 OY0      0.083700
     43 H23        -0.6250   -0.5130   -0.4280 hc        1 OY0      0.052700
     44 H24         1.8620   -0.8110   -0.3490 hc        1 OY0      0.056200
     45 NAO         5.1810   -1.1150    3.0740 n4        1 OY0     -0.601200
     46 HAE3        8.9460   -2.3340    9.2190 hn        1 OY0      0.470133
     47 HAO2        5.9980   -0.9460    2.4680 hn        1 OY0      0.470800
@<TRIPOS>BOND
     1    1   13 1   
     2    1   21 1   
     3    1   22 1   
     4    1   43 1   
     5    2   19 1   
     6    2   23 1   
     7    2   24 1   
     8    2   25 1   
     9    3   19 1   
    10    3   26 1   
    11    3   27 1   
    12    3   28 1   
    13    4   19 1   
    14    4   29 1   
    15    4   30 1   
    16    4   31 1   
    17    5   20 1   
    18    5   32 1   
    19    5   33 1   
    20    5   46 1   
    21    6   15 2   
    22    7   20 2   
    23    8   20 2   
    24    9   11 ar  
    25    9   16 ar  
    26    9   34 1   
    27   10   12 ar  
    28   10   16 ar  
    29   10   35 1   
    30   11   17 ar  
    31   11   36 1   
    32   12   17 ar  
    33   12   37 1   
    34   13   14 1   
    35   13   38 1   
    36   13   44 1   
    37   14   18 1   
    38   14   39 1   
    39   14   40 1   
    40   15   18 1   
    41   15   45 1   
    42   16   45 1   
    43   17   20 1   
    44   18   19 1   
    45   18   42 1   
    46   41   45 1   
    47   45   47 1   
@<TRIPOS>SUBSTRUCTURE
     1 OY0         1 TEMP              0 ****  ****    0 ROOT
