@<TRIPOS>MOLECULE
OY0
   45    42     1     0     0
SMALL
bcc


@<TRIPOS>ATOM
      1 CAA        -4.4100    1.0690   -1.9820 c3        1 OY0     -0.210000
      2 CAB        -1.1790    2.7190    1.7010 c3        1 OY0     -0.212667
      3 CAC         0.8710    3.0900    0.3780 c3        1 OY0     -0.212667
      4 CAD        -1.2570    4.1340   -0.3220 c3        1 OY0     -0.212667
      5 NAE         3.9060   -5.6180    2.2590 n3        1 OY0     -0.953000
      6 OAF        -0.3400    0.2520    1.2490 o         1 OY0     -0.338000
      7 OAG         4.8360   -4.9520   -0.0140 o         1 OY0     -0.941500
      8 OAH         3.0120   -6.2180   -0.0460 o         1 OY0     -0.941500
      9 CAI         0.5360   -2.6530    0.0490 c1        1 OY0     -0.192000
     10 CAJ         2.5860   -1.4050   -0.0210 c1        1 OY0     -0.222000
     11 CAK         1.2300   -3.7660    0.4990 c1        1 OY0      0.013000
     12 CAL         3.2790   -2.5180    0.4280 c1        1 OY0      0.013000
     13 CAM        -2.9050    1.2100   -1.9590 c3        1 OY0     -0.163000
     14 CAN        -2.4440    1.4660   -0.5420 c3        1 OY0     -0.158000
     15 NAO         0.5220   -0.3660   -0.7730 n         1 OY0     -0.329000
     16 CAP        -0.2610    0.4760    0.0580 c2        1 OY0      0.318000
     17 CAQ         1.2140   -1.4720   -0.2110 c2        1 OY0      0.147000
     18 CAR         2.6010   -3.6990    0.6880 c1        1 OY0     -0.874000
     19 CAS        -0.9500    1.6900   -0.5310 c3        1 OY0     -0.108000
     20 CAT        -0.6290    2.9080    0.3070 c3        1 OY0     -0.045000
     21 SAU         3.6120   -5.1550    0.7110 s6        1 OY0      2.872000
     22 HAA        -4.7080    0.8860   -2.8970 hc        1 OY0      0.075667
     23 HAAA       -4.6780    0.3290   -1.3970 hc        1 OY0      0.075667
     24 HAB        -1.5850    3.5560    2.0080 hc        1 OY0      0.080889
     25 HABA       -0.4520    2.4660    2.3080 hc        1 OY0      0.080889
     26 HABB       -1.8570    2.0120    1.6910 hc        1 OY0      0.080889
     27 HAC         1.2450    3.0760   -0.5280 hc        1 OY0      0.080889
     28 HACA        1.0760    3.9490    0.8020 hc        1 OY0      0.080889
     29 HACB        1.2640    2.3630    0.9050 hc        1 OY0      0.080889
     30 HAD        -1.1680    4.0830   -1.2960 hc        1 OY0      0.080889
     31 HADA       -2.2070    4.1730   -0.0820 hc        1 OY0      0.080889
     32 HADB       -0.8030    4.9380    0.0060 hc        1 OY0      0.080889
     33 HNAE        4.6300   -5.2830    2.7060 hn        1 OY0      0.240500
     34 HNAA        3.3580   -6.2260    2.6660 hn        1 OY0      0.240500
     35 HAI        -0.4300   -2.7000   -0.0840 DU        1 OY0      0.180000
     36 HAJ         3.0640   -0.5730   -0.2050 ha        1 OY0      0.136000
     37 HAK         0.7510   -4.5980    0.6820 ha        1 OY0      0.153000
     38 HAL         4.2460   -2.4710    0.5610 ha        1 OY0      0.154000
     39 HAM        -2.6400    1.9600   -2.5290 hc        1 OY0      0.079000
     40 HAN        -2.8960    2.2590   -0.1900 hc        1 OY0      0.102000
     41 HANA       -2.6620    0.6930    0.0160 hc        1 OY0      0.102000
     42 HNAO        0.5710   -0.2060   -1.6690 hn        1 OY0      0.233000
     43 HAS        -0.6350    1.8310   -1.4440 hc        1 OY0      0.096000
     44 H23        -4.8210    1.9000   -1.6650 hc        1 OY0      0.075667
     45 H24        -2.4950    0.3870   -2.2920 hc        1 OY0      0.079000
@<TRIPOS>BOND
     1    1   13 1   
     2    1   22 1   
     3    1   23 1   
     4    1   44 1   
     5    2   20 1   
     6    2   24 1   
     7    2   25 1   
     8    2   26 1   
     9    3   20 1   
    10    3   27 1   
    11    3   28 1   
    12    3   29 1   
    13    4   20 1   
    14    4   30 1   
    15    4   31 1   
    16    4   32 1   
    17    5   21 1   
    18    5   33 1   
    19    5   34 1   
    20    6   16 1   
    21    7   21 1   
    22    8   21 1   
    23    9   11 1   
    24    9   17 1   
    25   10   17 1   
    26   10   36 1   
    27   11   37 1   
    28   12   18 1   
    29   12   38 1   
    30   13   14 1   
    31   13   39 1   
    32   13   45 1   
    33   14   19 1   
    34   14   40 1   
    35   14   41 1   
    36   15   16 1   
    37   15   17 1   
    38   15   42 1   
    39   16   19 1   
    40   18   21 1   
    41   19   20 1   
    42   19   43 1   
@<TRIPOS>SUBSTRUCTURE
     1 OY0         1 TEMP              0 ****  ****    0 ROOT
