@<TRIPOS>MOLECULE
OY0
   45    45     1     0     0
SMALL
bcc


@<TRIPOS>ATOM
      1 CAA        -5.8720    2.5460    1.2360 c3        1 OY0     -0.095100
      2 CAB        -4.5050   -0.7080   -2.0250 c3        1 OY0     -0.096100
      3 CAC        -5.0600   -1.9970    0.0310 c3        1 OY0     -0.096100
      4 CAD        -2.8730   -2.2970   -1.0560 c3        1 OY0     -0.096100
      5 NAE         5.4090   -0.7030   -0.9560 n3        1 OY0     -1.026700
      6 OAF        -1.7020    0.7660   -1.3550 o         1 OY0     -0.578100
      7 OAG         5.5220    0.1750    1.3360 o         1 OY0     -0.662300
      8 OAH         5.2130    1.7040   -0.5090 o         1 OY0     -0.662300
      9 CAI         1.3580   -0.7230    1.3050 ca        1 OY0     -0.207000
     10 CAJ         1.0430    0.7120   -0.6340 ca        1 OY0     -0.207000
     11 CAK         2.7280   -0.5550    1.1920 ca        1 OY0      0.013000
     12 CAL         2.4200    0.8620   -0.7180 ca        1 OY0      0.013000
     13 CAM        -5.4290    1.1540    0.8600 c3        1 OY0     -0.078400
     14 CAN        -4.0840    1.1780    0.1690 c3        1 OY0     -0.077400
     15 CAP        -1.9220    0.1470   -0.3010 c         1 OY0      0.671100
     16 CAQ         0.4790   -0.0910    0.3830 ca        1 OY0      0.138600
     17 CAR         3.2900    0.2310    0.1790 ca        1 OY0     -0.429500
     18 CAS        -3.3550   -0.1620    0.1650 c3        1 OY0     -0.112700
     19 CAT        -3.9530   -1.2700   -0.7240 c3        1 OY0     -0.042000
     20 SAU         4.9540    0.4430    0.0700 sy        1 OY0      1.533200
     21 HAA        -6.8890    2.5160    1.6960 hc        1 OY0      0.036033
     22 HAAA       -5.1660    3.0020    1.9720 hc        1 OY0      0.036033
     23 HAB        -5.4180   -0.0950   -1.8320 hc        1 OY0      0.041700
     24 HABA       -3.7340   -0.0680   -2.5220 hc        1 OY0      0.041700
     25 HABB       -4.7800   -1.5430   -2.7130 hc        1 OY0      0.041700
     26 HAC        -5.4970   -2.7930   -0.6200 hc        1 OY0      0.041700
     27 HACA       -4.6530   -2.4770    0.9530 hc        1 OY0      0.041700
     28 HACB       -5.8770   -1.2970    0.3250 hc        1 OY0      0.041700
     29 HAD        -2.0990   -1.8540   -1.7300 hc        1 OY0      0.041700
     30 HADA       -2.3800   -2.6630   -0.1240 hc        1 OY0      0.041700
     31 HADB       -3.3290   -3.1720   -1.5790 hc        1 OY0      0.041700
     32 HNAE        5.6770   -1.6120   -0.6780 hn        1 OY0      0.445300
     33 HNAA        5.4730   -0.5670   -1.9330 hn        1 OY0      0.445300
     34 HAI         0.9590   -1.3460    2.1200 ha        1 OY0      0.158000
     35 HAJ         0.3980    1.2290   -1.3650 ha        1 OY0      0.158000
     36 HAK         3.3960   -1.0380    1.9290 ha        1 OY0      0.153500
     37 HAL         2.8410    1.5130   -1.5060 ha        1 OY0      0.153500
     38 HAM        -5.3780    0.5160    1.7810 hc        1 OY0      0.040700
     39 HAN        -4.1990    1.5470   -0.8850 hc        1 OY0      0.058700
     40 HANA       -3.4230    1.9210    0.6970 hc        1 OY0      0.058700
     41 HNAO       -1.1630   -0.8290    1.3320 hn        1 OY0      0.319500
     42 HAS        -3.3490   -0.5530    1.2220 hc        1 OY0      0.055700
     43 H23        -5.9100    3.2040    0.3340 hc        1 OY0      0.036033
     44 H24        -6.1960    0.6990    0.1780 hc        1 OY0      0.040700
     45 NAO        -0.8950   -0.2840    0.5410 n         1 OY0     -0.475100
@<TRIPOS>BOND
     1    1   13 1   
     2    1   21 1   
     3    1   22 1   
     4    1   43 1   
     5    2   19 1   
     6    2   23 1   
     7    2   24 1   
     8    2   25 1   
     9    3   19 1   
    10    3   26 1   
    11    3   27 1   
    12    3   28 1   
    13    4   19 1   
    14    4   29 1   
    15    4   30 1   
    16    4   31 1   
    17    5   20 1   
    18    5   32 1   
    19    5   33 1   
    20    6   15 2   
    21    7   20 2   
    22    8   20 2   
    23    9   11 ar  
    24    9   16 ar  
    25    9   34 1   
    26   10   12 ar  
    27   10   16 ar  
    28   10   35 1   
    29   11   17 ar  
    30   11   36 1   
    31   12   17 ar  
    32   12   37 1   
    33   13   14 1   
    34   13   38 1   
    35   13   44 1   
    36   14   18 1   
    37   14   39 1   
    38   14   40 1   
    39   15   18 1   
    40   15   45 1   
    41   16   45 1   
    42   17   20 1   
    43   18   19 1   
    44   18   42 1   
    45   41   45 1   
@<TRIPOS>SUBSTRUCTURE
     1 OY0         1 TEMP              0 ****  ****    0 ROOT
