@<TRIPOS>MOLECULE
OY0
   46    46     1     0     0
SMALL
bcc


@<TRIPOS>ATOM
      1 CAA         0.1470   -0.9370    0.0850 c3        1 OY0     -0.097100
      2 CAB         3.3360    2.5680    0.8840 c3        1 OY0     -0.099100
      3 CAC         4.4210    1.0220   -0.7370 c3        1 OY0     -0.099100
      4 CAD         5.5820    1.6330    1.3460 c3        1 OY0     -0.099100
      5 NAE         5.7800   -2.9060    9.4110 nz        1 OY0     -0.780500
      6 OAF         3.3920    0.9450    3.7310 o         1 OY0     -0.533100
      7 OAG         6.8690   -0.6010    9.6180 o         1 OY0     -0.579300
      8 OAH         8.2060   -2.4060    8.7610 o         1 OY0     -0.579300
      9 CAI         6.3580   -1.9670    4.9070 ca        1 OY0     -0.219500
     10 CAJ         4.9460   -0.1770    5.7910 ca        1 OY0     -0.219500
     11 CAK         6.8580   -2.1800    6.1640 ca        1 OY0      0.049500
     12 CAL         5.4670   -0.4110    7.0380 ca        1 OY0      0.049500
     13 CAM         1.5460   -0.3790    0.0010 c3        1 OY0     -0.078400
     14 CAN         2.0710   -0.0220    1.3750 c3        1 OY0     -0.079400
     15 CAP         3.9320    0.1660    2.9390 c         1 OY0      0.675100
     16 CAQ         5.3740   -0.9490    4.6650 ca        1 OY0      0.229600
     17 CAR         6.4370   -1.4200    7.2880 ca        1 OY0     -0.652500
     18 CAS         3.5910    0.1110    1.4450 c3        1 OY0     -0.105700
     19 CAT         4.2120    1.3350    0.7410 c3        1 OY0     -0.044000
     20 SAU         7.0770   -1.6150    8.7070 sy        1 OY0      1.516200
     21 HAA         0.1330   -1.8910    0.6660 hc        1 OY0      0.041367
     22 HAAA       -0.5380   -0.2110    0.5850 hc        1 OY0      0.041367
     23 HAB         3.0730    2.7340    1.9580 hc        1 OY0      0.046256
     24 HABA        3.8800    3.4670    0.5060 hc        1 OY0      0.046256
     25 HABB        2.3950    2.4540    0.2930 hc        1 OY0      0.046256
     26 HAC         4.8550    1.9150   -1.2490 hc        1 OY0      0.046256
     27 HACA        5.1260    0.1650   -0.8600 hc        1 OY0      0.046256
     28 HACB        3.4580    0.7660   -1.2370 hc        1 OY0      0.046256
     29 HAD         6.0930    2.4270    0.7480 hc        1 OY0      0.046256
     30 HADA        6.2250    0.7210    1.3350 hc        1 OY0      0.046256
     31 HADB        5.4820    2.0050    2.3950 hc        1 OY0      0.046256
     32 HNAE        6.2490   -3.7720    9.6590 hn        1 OY0      0.447133
     33 HNAA        5.3400   -2.5350   10.2480 hn        1 OY0      0.447133
     34 HAI         6.7280   -2.5820    4.0680 ha        1 OY0      0.186500
     35 HAJ         4.1970    0.6270    5.6610 ha        1 OY0      0.186500
     36 HAK         7.6310   -2.9600    6.3140 ha        1 OY0      0.165500
     37 HAL         5.1360    0.2230    7.8840 ha        1 OY0      0.165500
     38 HAM         1.5340    0.5380   -0.6470 hc        1 OY0      0.046700
     39 HAN         1.5920    0.9270    1.7340 hc        1 OY0      0.058200
     40 HANA        1.7650   -0.8310    2.0960 hc        1 OY0      0.058200
     41 HNAO        5.3110   -1.3490    2.6840 hn        1 OY0      0.338500
     42 HAS         4.0400   -0.8090    0.9720 hc        1 OY0      0.064700
     43 H23        -0.2450   -1.1440   -0.9400 hc        1 OY0      0.041367
     44 H24         2.2210   -1.1290   -0.4880 hc        1 OY0      0.046700
     45 NAO         4.9020   -0.7700    3.3920 ns        1 OY0     -0.453100
     46 HAE3        5.0530   -3.1190    8.7380 hn        1 OY0      0.447133
@<TRIPOS>BOND
     1    1   13 1   
     2    1   21 1   
     3    1   22 1   
     4    1   43 1   
     5    2   19 1   
     6    2   23 1   
     7    2   24 1   
     8    2   25 1   
     9    3   19 1   
    10    3   26 1   
    11    3   27 1   
    12    3   28 1   
    13    4   19 1   
    14    4   29 1   
    15    4   30 1   
    16    4   31 1   
    17    5   20 1   
    18    5   32 1   
    19    5   33 1   
    20    5   46 1   
    21    6   15 2   
    22    7   20 2   
    23    8   20 2   
    24    9   11 ar  
    25    9   16 ar  
    26    9   34 1   
    27   10   12 ar  
    28   10   16 ar  
    29   10   35 1   
    30   11   17 ar  
    31   11   36 1   
    32   12   17 ar  
    33   12   37 1   
    34   13   14 1   
    35   13   38 1   
    36   13   44 1   
    37   14   18 1   
    38   14   39 1   
    39   14   40 1   
    40   15   18 1   
    41   15   45 1   
    42   16   45 1   
    43   17   20 1   
    44   18   19 1   
    45   18   42 1   
    46   41   45 1   
@<TRIPOS>SUBSTRUCTURE
     1 OY0         1 TEMP              0 ****  ****    0 ROOT
