@<TRIPOS>MOLECULE
OY0
   46    46     1     0     0
SMALL
bcc


@<TRIPOS>ATOM
      1 CAA         0.2870   -1.0230   -0.0380 c3        1 OY0     -0.097100
      2 CAB         3.2390    2.6220    1.0200 c3        1 OY0     -0.098767
      3 CAC         4.4360    1.2450   -0.6730 c3        1 OY0     -0.098767
      4 CAD         5.5330    1.8000    1.4590 c3        1 OY0     -0.098767
      5 NAE         7.9690   -0.7900    9.0660 n4        1 OY0     -0.780500
      6 OAF         3.3580    0.8360    3.7670 o         1 OY0     -0.533100
      7 OAG         5.8040   -1.9900    9.7090 o         1 OY0     -0.579300
      8 OAH         7.5770   -3.3010    8.7510 o         1 OY0     -0.579300
      9 CAI         6.4870   -1.9400    4.8240 ca        1 OY0     -0.219000
     10 CAJ         4.7300   -0.5450    5.7990 ca        1 OY0     -0.219000
     11 CAK         6.9030   -2.2790    6.0850 ca        1 OY0      0.050000
     12 CAL         5.1660   -0.9060    7.0480 ca        1 OY0      0.050000
     13 CAM         1.6470   -0.3720   -0.0660 c3        1 OY0     -0.078400
     14 CAN         2.1310   -0.0660    1.3350 c3        1 OY0     -0.079400
     15 CAP         3.9550    0.1420    2.9380 c         1 OY0      0.675100
     16 CAQ         5.3750   -1.0510    4.6270 ca        1 OY0      0.229600
     17 CAR         6.2700   -1.7780    7.2540 ca        1 OY0     -0.652500
     18 CAS         3.6380    0.1560    1.4380 c3        1 OY0     -0.106700
     19 CAT         4.1910    1.4550    0.8170 c3        1 OY0     -0.044000
     20 SAU         6.7010   -2.2380    8.6910 sy        1 OY0      1.516200
     21 HAA        -0.0780   -1.1920   -1.0800 hc        1 OY0      0.041700
     22 HAAA        0.3280   -2.0090    0.4850 hc        1 OY0      0.041700
     23 HAB         2.3140    2.4860    0.4090 hc        1 OY0      0.046033
     24 HABA        3.7310    3.5740    0.7030 hc        1 OY0      0.046033
     25 HABB        2.9540    2.7070    2.0970 hc        1 OY0      0.046033
     26 HAC         5.1920    0.4400   -0.8370 hc        1 OY0      0.046033
     27 HACA        4.8220    2.1910   -1.1250 hc        1 OY0      0.046033
     28 HACB        3.4960    0.9640   -1.2020 hc        1 OY0      0.046033
     29 HAD         5.9990    2.6600    0.9190 hc        1 OY0      0.046033
     30 HADA        5.3980    2.0970    2.5270 hc        1 OY0      0.046033
     31 HADB        6.2320    0.9320    1.4010 hc        1 OY0      0.046033
     32 HNAE        8.8950   -1.1720    9.2370 hn        1 OY0      0.447133
     33 HNAA        7.6810   -0.2810    9.8960 hn        1 OY0      0.447133
     34 HAI         7.0100   -2.3650    3.9510 ha        1 OY0      0.186000
     35 HAJ         3.8640    0.1370    5.7050 ha        1 OY0      0.186000
     36 HAK         7.7520   -2.9810    6.2040 ha        1 OY0      0.165500
     37 HAL         4.6270   -0.5200    7.9360 ha        1 OY0      0.165500
     38 HAM         1.5840    0.5800   -0.6590 hc        1 OY0      0.046200
     39 HAN         1.5890    0.8290    1.7410 hc        1 OY0      0.059700
     40 HANA        1.8670   -0.9340    2.0010 hc        1 OY0      0.059700
     41 HNAO        5.4940   -1.1960    2.6130 hn        1 OY0      0.338500
     42 HAS         4.1500   -0.7060    0.9210 hc        1 OY0      0.065700
     43 H23        -0.4500   -0.3740    0.4930 hc        1 OY0      0.041700
     44 H24         2.3760   -1.0470   -0.5880 hc        1 OY0      0.046200
     45 NAO         4.9840   -0.7500    3.3510 n         1 OY0     -0.453100
     46 HAE3        8.0330   -0.1340    8.2970 hn        1 OY0      0.447133
@<TRIPOS>BOND
     1    1   13 1   
     2    1   21 1   
     3    1   22 1   
     4    1   43 1   
     5    2   19 1   
     6    2   23 1   
     7    2   24 1   
     8    2   25 1   
     9    3   19 1   
    10    3   26 1   
    11    3   27 1   
    12    3   28 1   
    13    4   19 1   
    14    4   29 1   
    15    4   30 1   
    16    4   31 1   
    17    5   20 1   
    18    5   32 1   
    19    5   33 1   
    20    5   46 1   
    21    6   15 2   
    22    7   20 2   
    23    8   20 2   
    24    9   11 ar  
    25    9   16 ar  
    26    9   34 1   
    27   10   12 ar  
    28   10   16 ar  
    29   10   35 1   
    30   11   17 ar  
    31   11   36 1   
    32   12   17 ar  
    33   12   37 1   
    34   13   14 1   
    35   13   38 1   
    36   13   44 1   
    37   14   18 1   
    38   14   39 1   
    39   14   40 1   
    40   15   18 1   
    41   15   45 1   
    42   16   45 1   
    43   17   20 1   
    44   18   19 1   
    45   18   42 1   
    46   41   45 1   
@<TRIPOS>SUBSTRUCTURE
     1 OY0         1 TEMP              0 ****  ****    0 ROOT
