@<TRIPOS>MOLECULE
OYA
   25    24     1     0     0
SMALL
bcc


@<TRIPOS>ATOM
      1 C14        -3.6350    0.0150   -2.0580 c3        1 OYA     -0.093100
      2 C5         -2.1220    0.0150   -2.0580 c3        1 OYA     -0.080400
      3 C6         -1.6170    0.0150   -0.6320 c3        1 OYA     -0.079400
      4 C11        -0.1050   -0.0070   -0.6320 c3        1 OYA     -0.079400
      5 C7          0.4000    0.0120    0.7940 c3        1 OYA     -0.078400
      6 C8          1.9110   -0.0530    0.7950 c3        1 OYA     -0.076400
      7 C9          2.4150   -0.0610    2.2220 c3        1 OYA     -0.204400
      8 C10         3.9270   -0.0080    2.2240 c         1 OYA      0.564900
      9 OAB         4.4990    1.0220    2.5300 o         1 OYA     -0.528100
     10 H141       -3.9600    0.0240   -2.9790 hc        1 OYA      0.033033
     11 H142       -3.9600   -0.7860   -1.6050 hc        1 OYA      0.033033
     12 H143       -3.9600    0.8080   -1.5910 hc        1 OYA      0.033033
     13 H51        -1.7960    0.8120   -2.5180 hc        1 OYA      0.038700
     14 H52        -1.7960   -0.7820   -2.5180 hc        1 OYA      0.038700
     15 H61        -1.9540   -0.7740   -0.1680 hc        1 OYA      0.040200
     16 H62        -1.9310    0.8200   -0.1760 hc        1 OYA      0.040200
     17 H111        0.2090   -0.8170   -1.0770 hc        1 OYA      0.040200
     18 H112        0.2320    0.7770   -1.1070 hc        1 OYA      0.040200
     19 H71         0.1100    0.8360    1.2310 hc        1 OYA      0.042700
     20 H72         0.0400   -0.7560    1.2770 hc        1 OYA      0.042700
     21 H81         2.2020   -0.8680    0.3430 hc        1 OYA      0.043700
     22 H82         2.2710    0.7240    0.3280 hc        1 OYA      0.043700
     23 H91         2.1180   -0.8770    2.6680 hc        1 OYA      0.074200
     24 H92         2.0610    0.7160    2.6960 hc        1 OYA      0.074200
     25 H10         4.4430   -0.8080    2.0110 h4        1 OYA     -0.006800
@<TRIPOS>BOND
     1    1    2 1   
     2    1   10 1   
     3    1   11 1   
     4    1   12 1   
     5    2    3 1   
     6    2   13 1   
     7    2   14 1   
     8    3    4 1   
     9    3   15 1   
    10    3   16 1   
    11    4    5 1   
    12    4   17 1   
    13    4   18 1   
    14    5    6 1   
    15    5   19 1   
    16    5   20 1   
    17    6    7 1   
    18    6   21 1   
    19    6   22 1   
    20    7    8 1   
    21    7   23 1   
    22    7   24 1   
    23    8    9 2   
    24    8   25 1   
@<TRIPOS>SUBSTRUCTURE
     1 OYA         1 TEMP              0 ****  ****    0 ROOT
