@<TRIPOS>MOLECULE
OYA
   25    24     1     0     0
SMALL
bcc


@<TRIPOS>ATOM
      1 C14         0.0090   -0.0140   -0.0050 c3        1 OYA     -0.093100
      2 C5          1.5160   -0.0260    0.0200 c3        1 OYA     -0.080400
      3 C6          2.0480    0.0030    1.4370 c3        1 OYA     -0.079400
      4 C11         3.5620   -0.0090    1.4560 c3        1 OYA     -0.079400
      5 C7          4.0920    0.0200    2.8740 c3        1 OYA     -0.078400
      6 C8          5.6060    0.0080    2.8930 c3        1 OYA     -0.076400
      7 C9          6.1320    0.0390    4.3100 c3        1 OYA     -0.204400
      8 C10         7.6280    0.0010    4.3480 c         1 OYA      0.564900
      9 OAB         8.2880    0.4830    5.2690 o         1 OYA     -0.528100
     10 H141       -0.4010   -0.9030    0.5320 hc        1 OYA      0.033033
     11 H142       -0.3620   -0.0360   -1.0580 hc        1 OYA      0.033033
     12 H143       -0.3860    0.9060    0.4890 hc        1 OYA      0.033033
     13 H51         1.8940   -0.9440   -0.5020 hc        1 OYA      0.038700
     14 H52         1.9090    0.8600   -0.5450 hc        1 OYA      0.038700
     15 H61         1.6570   -0.8830    2.0030 hc        1 OYA      0.040200
     16 H62         1.6730    0.9220    1.9600 hc        1 OYA      0.040200
     17 H111        3.9530    0.8770    0.8900 hc        1 OYA      0.040200
     18 H112        3.9370   -0.9280    0.9330 hc        1 OYA      0.040200
     19 H71         3.7010   -0.8660    3.4410 hc        1 OYA      0.042700
     20 H72         3.7170    0.9390    3.3970 hc        1 OYA      0.042700
     21 H81         5.9800   -0.9110    2.3690 hc        1 OYA      0.043700
     22 H82         5.9950    0.8950    2.3260 hc        1 OYA      0.043700
     23 H91         5.7610    0.9560    4.8410 hc        1 OYA      0.074200
     24 H92         5.7500   -0.8510    4.8810 hc        1 OYA      0.074200
     25 H10         8.1190   -0.5060    3.4860 h4        1 OYA     -0.006800
@<TRIPOS>BOND
     1    1    2 1   
     2    1   10 1   
     3    1   11 1   
     4    1   12 1   
     5    2    3 1   
     6    2   13 1   
     7    2   14 1   
     8    3    4 1   
     9    3   15 1   
    10    3   16 1   
    11    4    5 1   
    12    4   17 1   
    13    4   18 1   
    14    5    6 1   
    15    5   19 1   
    16    5   20 1   
    17    6    7 1   
    18    6   21 1   
    19    6   22 1   
    20    7    8 1   
    21    7   23 1   
    22    7   24 1   
    23    8    9 2   
    24    8   25 1   
@<TRIPOS>SUBSTRUCTURE
     1 OYA         1 TEMP              0 ****  ****    0 ROOT
