@<TRIPOS>MOLECULE
OYA
   25    24     1     0     0
SMALL
bcc


@<TRIPOS>ATOM
      1 C14         4.9550   -0.2560   -0.1170 c3        1 OYA     -0.093100
      2 C5          3.6790    0.5420   -0.0390 c3        1 OYA     -0.080400
      3 C6          2.4610   -0.3580   -0.0210 c3        1 OYA     -0.079400
      4 C11         1.1820    0.4470    0.0570 c3        1 OYA     -0.079400
      5 C7         -0.0330   -0.4550    0.0750 c3        1 OYA     -0.078400
      6 C8         -1.3120    0.3520    0.1530 c3        1 OYA     -0.076400
      7 C9         -2.5250   -0.5520    0.1700 c3        1 OYA     -0.204400
      8 C10        -3.7980    0.2290    0.2730 c         1 OYA      0.564900
      9 OAB        -4.8740   -0.1820   -0.1640 o         1 OYA     -0.528100
     10 H141        5.8380    0.4260   -0.1290 hc        1 OYA      0.033033
     11 H142        5.0480   -0.9370    0.7630 hc        1 OYA      0.033033
     12 H143        4.9760   -0.8780   -1.0440 hc        1 OYA      0.033033
     13 H51         3.6870    1.1780    0.8850 hc        1 OYA      0.038700
     14 H52         3.6150    1.2380   -0.9180 hc        1 OYA      0.038700
     15 H61         2.4500   -0.9940   -0.9450 hc        1 OYA      0.040200
     16 H62         2.5220   -1.0540    0.8580 hc        1 OYA      0.040200
     17 H111        1.1940    1.0830    0.9810 hc        1 OYA      0.040200
     18 H112        1.1220    1.1430   -0.8220 hc        1 OYA      0.040200
     19 H71        -0.0450   -1.0900   -0.8490 hc        1 OYA      0.042700
     20 H72         0.0270   -1.1500    0.9540 hc        1 OYA      0.042700
     21 H81        -1.3000    0.9880    1.0780 hc        1 OYA      0.043700
     22 H82        -1.3720    1.0470   -0.7260 hc        1 OYA      0.043700
     23 H91        -2.5430   -1.1920   -0.7520 hc        1 OYA      0.074200
     24 H92        -2.4740   -1.2460    1.0530 hc        1 OYA      0.074200
     25 H10        -3.7180    1.2150    0.7850 h4        1 OYA     -0.006800
@<TRIPOS>BOND
     1    1    2 1   
     2    1   10 1   
     3    1   11 1   
     4    1   12 1   
     5    2    3 1   
     6    2   13 1   
     7    2   14 1   
     8    3    4 1   
     9    3   15 1   
    10    3   16 1   
    11    4    5 1   
    12    4   17 1   
    13    4   18 1   
    14    5    6 1   
    15    5   19 1   
    16    5   20 1   
    17    6    7 1   
    18    6   21 1   
    19    6   22 1   
    20    7    8 1   
    21    7   23 1   
    22    7   24 1   
    23    8    9 2   
    24    8   25 1   
@<TRIPOS>SUBSTRUCTURE
     1 OYA         1 TEMP              0 ****  ****    0 ROOT
