@<TRIPOS>MOLECULE
OYA
   25    24     1     0     0
SMALL
bcc


@<TRIPOS>ATOM
      1 C14         0.0060   -0.0280    0.0010 c3        1 OYA     -0.093100
      2 C5          1.5130   -0.0530    0.0240 c3        1 OYA     -0.080400
      3 C6          2.0470    0.0040    1.4390 c3        1 OYA     -0.079400
      4 C11         3.5610   -0.0230    1.4570 c3        1 OYA     -0.079400
      5 C7          4.0930    0.0350    2.8730 c3        1 OYA     -0.078400
      6 C8          5.6070    0.0080    2.8900 c3        1 OYA     -0.076400
      7 C9          6.1360    0.0680    4.3060 c3        1 OYA     -0.204400
      8 C10         7.6310    0.0150    4.3420 c         1 OYA      0.564900
      9 OAB         8.2980    0.5150    5.2490 o         1 OYA     -0.528100
     10 H141       -0.4120   -0.9000    0.5590 hc        1 OYA      0.033033
     11 H142       -0.3660   -0.0700   -1.0510 hc        1 OYA      0.033033
     12 H143       -0.3800    0.9070    0.4740 hc        1 OYA      0.033033
     13 H51         1.8820   -0.9870   -0.4780 hc        1 OYA      0.038700
     14 H52         1.9140    0.8160   -0.5620 hc        1 OYA      0.038700
     15 H61         1.6490   -0.8650    2.0260 hc        1 OYA      0.040200
     16 H62         1.6810    0.9380    1.9410 hc        1 OYA      0.040200
     17 H111        3.9590    0.8460    0.8690 hc        1 OYA      0.040200
     18 H112        3.9270   -0.9570    0.9550 hc        1 OYA      0.040200
     19 H71         3.6950   -0.8330    3.4610 hc        1 OYA      0.042700
     20 H72         3.7280    0.9700    3.3740 hc        1 OYA      0.042700
     21 H81         5.9710   -0.9270    2.3880 hc        1 OYA      0.043700
     22 H82         6.0050    0.8770    2.3020 hc        1 OYA      0.043700
     23 H91         5.7740    1.0010    4.8150 hc        1 OYA      0.074200
     24 H92         5.7450   -0.8040    4.8980 hc        1 OYA      0.074200
     25 H10         8.1150   -0.5200    3.4940 h4        1 OYA     -0.006800
@<TRIPOS>BOND
     1    1    2 1   
     2    1   10 1   
     3    1   11 1   
     4    1   12 1   
     5    2    3 1   
     6    2   13 1   
     7    2   14 1   
     8    3    4 1   
     9    3   15 1   
    10    3   16 1   
    11    4    5 1   
    12    4   17 1   
    13    4   18 1   
    14    5    6 1   
    15    5   19 1   
    16    5   20 1   
    17    6    7 1   
    18    6   21 1   
    19    6   22 1   
    20    7    8 1   
    21    7   23 1   
    22    7   24 1   
    23    8    9 2   
    24    8   25 1   
@<TRIPOS>SUBSTRUCTURE
     1 OYA         1 TEMP              0 ****  ****    0 ROOT
