@<TRIPOS>MOLECULE
OYJ
   58    61     1     0     0
SMALL
bcc


@<TRIPOS>ATOM
      1 S1          2.1480    4.7490   -0.1890 s6        1 OYJ      1.475900
      2 C2          0.5910    1.0930   -0.4190 c3        1 OYJ     -0.143700
      3 C3          1.8250    0.8230    0.4540 c3        1 OYJ     -0.144700
      4 N4          1.6810    3.2070    0.0330 n3        1 OYJ     -0.832500
      5 C5         -0.6790    0.5020    0.1880 c         1 OYJ      0.677100
      6 N6         -7.0900   -1.1350    0.5350 n         1 OYJ     -0.260200
      7 C7          2.7970   -0.1460   -0.2170 c         1 OYJ      0.676100
      8 C8          0.4810    2.6310   -0.5290 c3        1 OYJ      0.231800
      9 C9          2.4830    2.2010    0.6910 c3        1 OYJ      0.233800
     10 C10        -7.9870   -1.5280   -0.5000 c         1 OYJ      0.691700
     11 C11        -5.7630   -0.7080    0.2430 ca        1 OYJ      0.034600
     12 N12        -1.8110    0.6050   -0.6050 n         1 OYJ     -0.462100
     13 C13        -5.5110    0.1660   -0.8290 ca        1 OYJ     -0.118000
     14 N14         3.8840   -0.5190    0.5610 n         1 OYJ     -0.467100
     15 C15        -3.1040    0.1560   -0.2940 ca        1 OYJ      0.033600
     16 C16        -4.2040    0.5930   -1.0950 ca        1 OYJ      0.083900
     17 C17         6.9470   -2.5750    0.9180 ca        1 OYJ      0.162900
     18 C18         5.8880   -1.6980    1.2020 ca        1 OYJ     -0.220000
     19 O19         3.5440    4.8460   -0.0330 o         1 OYJ     -0.647300
     20 O20         1.5910    5.2500   -1.3800 o         1 OYJ     -0.647300
     21 C21        -7.4910   -1.1950    1.8610 cc        1 OYJ      0.012600
     22 C22         4.9160   -1.4070    0.2190 ca        1 OYJ      0.097600
     23 O23        -0.6840   -0.0310    1.3120 o         1 OYJ     -0.593100
     24 O24         2.6100   -0.5650   -1.3720 o         1 OYJ     -0.579100
     25 C25        -9.3040   -2.0120   -0.0750 cc        1 OYJ     -0.252200
     26 C26         7.0480   -3.1740   -0.3550 ca        1 OYJ     -0.048600
     27 O27        -7.6380   -1.4460   -1.6920 o         1 OYJ     -0.626500
     28 C28        -4.6790   -1.1550    1.0250 ca        1 OYJ     -0.135000
     29 C29        -3.3840   -0.7300    0.7640 ca        1 OYJ     -0.124000
     30 C30        -8.7310   -1.6390    2.2350 cd        1 OYJ     -0.244000
     31 C31        -9.6560   -2.0640    1.2330 cd        1 OYJ     -0.039000
     32 C32         6.0820   -2.8790   -1.3200 ca        1 OYJ     -0.077000
     33 C33         1.4160    5.5630    1.1140 c3        1 OYJ     -0.364300
     34 F34        -3.9940    1.4350   -2.1400 f         1 OYJ     -0.140900
     35 C36         5.0310   -2.0130   -1.0500 ca        1 OYJ     -0.161000
     36 CL          8.3110   -4.2390   -0.7380 cl        1 OYJ     -0.065400
     37 H331        1.7800    5.2230    2.1130 h1        1 OYJ      0.116367
     38 H332        1.6390    6.6590    1.0580 h1        1 OYJ      0.116367
     39 H333        0.3030    5.4740    1.1300 h1        1 OYJ      0.116367
     40 H2          0.7470    0.6490   -1.4440 hc        1 OYJ      0.123700
     41 H3          1.5020    0.3840    1.4400 hc        1 OYJ      0.116700
     42 H81C        0.3740    2.9390   -1.6070 h1        1 OYJ      0.061200
     43 H82C       -0.4190    3.0060    0.0370 h1        1 OYJ      0.061200
     44 H91C        2.5250    2.4090    1.7980 h1        1 OYJ      0.060200
     45 H92C        3.5350    2.2350    0.2880 h1        1 OYJ      0.060200
     46 H12        -1.7200    1.0730   -1.4830 hn        1 OYJ      0.332500
     47 H21        -6.7500   -0.8510    2.6070 h4        1 OYJ      0.158000
     48 H14         3.9340   -0.1360    1.4800 hn        1 OYJ      0.321500
     49 H25        -9.9680   -2.3230   -0.8940 ha        1 OYJ      0.166000
     50 H13        -6.3260    0.5050   -1.4910 ha        1 OYJ      0.183000
     51 H28        -4.8420   -1.8620    1.8550 ha        1 OYJ      0.146000
     52 H29        -2.5650   -1.1040    1.4040 ha        1 OYJ      0.179000
     53 H18         5.8420   -1.2500    2.2060 ha        1 OYJ      0.150000
     54 H30        -9.0170   -1.6650    3.2940 ha        1 OYJ      0.153000
     55 H36         4.2910   -1.8090   -1.8440 ha        1 OYJ      0.182000
     56 H31       -10.6470   -2.4280    1.5460 ha        1 OYJ      0.143000
     57 H32         6.1530   -3.3420   -2.3180 ha        1 OYJ      0.157000
     58 F35         7.8560   -2.8260    1.8890 f         1 OYJ     -0.124900
@<TRIPOS>BOND
     1    1    4 1   
     2    1   19 2   
     3    1   20 2   
     4    1   33 1   
     5    2    3 1   
     6    2    5 1   
     7    2    8 1   
     8    2   40 1   
     9    3    7 1   
    10    3    9 1   
    11    3   41 1   
    12    4    8 1   
    13    4    9 1   
    14    5   12 1   
    15    5   23 2   
    16    6   10 1   
    17    6   11 1   
    18    6   21 1   
    19    7   14 1   
    20    7   24 2   
    21    8   42 1   
    22    8   43 1   
    23    9   44 1   
    24    9   45 1   
    25   10   25 1   
    26   10   27 2   
    27   11   13 ar  
    28   11   28 ar  
    29   12   15 1   
    30   12   46 1   
    31   13   16 ar  
    32   13   50 1   
    33   14   22 1   
    34   14   48 1   
    35   15   16 ar  
    36   15   29 ar  
    37   16   34 1   
    38   17   18 ar  
    39   17   26 ar  
    40   17   58 1   
    41   18   22 ar  
    42   18   53 1   
    43   21   30 2   
    44   21   47 1   
    45   22   35 ar  
    46   25   31 2   
    47   25   49 1   
    48   26   32 ar  
    49   26   36 1   
    50   28   29 ar  
    51   28   51 1   
    52   29   52 1   
    53   30   31 1   
    54   30   54 1   
    55   31   56 1   
    56   32   35 ar  
    57   32   57 1   
    58   33   37 1   
    59   33   38 1   
    60   33   39 1   
    61   35   55 1   
@<TRIPOS>SUBSTRUCTURE
     1 OYJ         1 TEMP              0 ****  ****    0 ROOT
