@<TRIPOS>MOLECULE
OYJ
   58    55     1     0     0
SMALL
bcc


@<TRIPOS>ATOM
      1 S1         -5.7000   -0.7460   -2.2490 ss        1 OYJ      2.833000
      2 C2         -2.2370   -0.7760   -0.6380 c3        1 OYJ     -0.126000
      3 C3         -1.8470   -0.7680   -2.2540 c3        1 OYJ     -0.139000
      4 N4         -4.0750   -0.6170   -1.9520 n2        1 OYJ     -0.854000
      5 C5         -1.1880    0.0730    0.1490 c2        1 OYJ      0.315000
      6 N6          2.7840    2.7380    4.6020 n         1 OYJ     -0.196000
      7 C7         -0.7120   -1.7830   -2.5060 c2        1 OYJ      0.321000
      8 C8         -3.4360   -0.2850   -0.6120 c3        1 OYJ     -0.007000
      9 C9         -2.9870   -1.0780   -2.8500 c3        1 OYJ      0.002000
     10 C10         3.9720    3.3140    3.9720 c2        1 OYJ      0.330000
     11 C11         1.8060    2.0530    3.8000 c2        1 OYJ      0.039000
     12 N12        -1.1400    0.0040    1.5970 n         1 OYJ     -0.317000
     13 C13         1.9780    0.7110    3.4940 c2        1 OYJ     -0.160000
     14 N14         0.2280   -1.5600   -3.5810 n         1 OYJ     -0.314000
     15 C15        -0.1180    0.7130    2.3170 c2        1 OYJ      0.045000
     16 C16         1.0160    0.0410    2.7530 c2        1 OYJ      0.048000
     17 C17         3.4720   -2.7050   -4.6580 c1        1 OYJ      0.128000
     18 C18         2.3380   -1.9500   -4.3970 c1        1 OYJ     -0.216000
     19 O19        -5.9840   -1.8550   -3.1220 o         1 OYJ     -0.928500
     20 O20        -6.4160   -1.1310   -1.0670 o         1 OYJ     -0.928500
     21 C21         2.5890    2.8560    6.0520 c2        1 OYJ      0.011000
     22 C22         1.2000   -2.5610   -3.8950 c2        1 OYJ      0.097000
     23 O23        -0.3600    0.7320   -0.4580 o         1 OYJ     -0.351000
     24 O24        -0.6740   -2.8210   -1.8730 o         1 OYJ     -0.362000
     25 C25         5.0360    3.9770    4.8230 c2        1 OYJ     -0.234000
     26 C26         3.4670   -4.0700   -4.4160 c1        1 OYJ     -0.123000
     27 O27         4.1090    3.2550    2.7730 o         1 OYJ     -0.353000
     28 C28         0.6700    2.7260    3.3640 c1        1 OYJ     -0.094000
     29 C29        -0.2900    2.0570    2.6230 c1        1 OYJ     -0.128000
     30 C30         3.6460    3.5170    6.9070 c1        1 OYJ     -0.245000
     31 C31         4.8430    4.0970    6.2760 c1        1 OYJ     -0.038000
     32 C32         2.3270   -4.6810   -3.9140 c1        1 OYJ     -0.078000
     33 C33        -6.3300    0.7800   -2.9180 c2        1 OYJ     -0.948000
     34 F34         1.3580   -1.2500    2.7880 f         1 OYJ     -0.105000
     35 F35         4.5930   -2.1040   -5.0640 f         1 OYJ     -0.088000
     36 C36         1.1960   -3.9290   -3.6540 c2        1 OYJ     -0.158000
     37 CL          4.8220   -5.0260   -4.9470 cl        1 OYJ      0.017000
     38 H331       -7.3070    0.7160   -3.0160 ha        1 OYJ      0.158333
     39 H332       -6.1100    1.5210   -2.3100 ha        1 OYJ      0.158333
     40 H333       -5.9250    0.9450   -3.7920 ha        1 OYJ      0.158333
     41 H2         -2.1940   -1.6290   -0.1580 hc        1 OYJ      0.148000
     42 H3         -1.4630    0.0460   -2.6290 hc        1 OYJ      0.138000
     43 H81C       -3.3980    0.6860   -0.4890 h1        1 OYJ      0.114000
     44 H82C       -3.9470   -0.6920    0.1100 h1        1 OYJ      0.114000
     45 H91C       -3.0470   -2.0530   -2.9790 h1        1 OYJ      0.097000
     46 H92C       -3.0500   -0.6190   -3.7190 h1        1 OYJ      0.097000
     47 H12        -1.7430   -0.5150    2.0500 hn        1 OYJ      0.267000
     48 H21         1.7950    2.4710    6.4690 h4        1 OYJ      0.158000
     49 H14         0.2730   -0.7470   -3.9790 hn        1 OYJ      0.239000
     50 H25         5.8270    4.3610    4.4030 ha        1 OYJ      0.165000
     51 H13         2.7680    0.2420    3.7980 ha        1 OYJ      0.155000
     52 H28         0.5490    3.6660    3.5780 ha        1 OYJ      0.171000
     53 H29        -1.0880    2.5300    2.3170 ha        1 OYJ      0.181000
     54 H18         2.3420   -0.9930   -4.5660 ha        1 OYJ      0.153000
     55 H30         3.5160    3.5940    7.8680 ha        1 OYJ      0.153000
     56 H36         0.3980   -4.3580   -3.3020 ha        1 OYJ      0.181000
     57 H31         5.5260    4.5230    6.8250 ha        1 OYJ      0.142000
     58 H32         2.3240   -5.6400   -3.7440 ha        1 OYJ      0.158000
@<TRIPOS>BOND
     1    1   19 1   
     2    1   20 1   
     3    2    3 1   
     4    2    5 1   
     5    2    8 1   
     6    2   41 1   
     7    3    7 1   
     8    3    9 1   
     9    3   42 1   
    10    4    8 1   
    11    4    9 1   
    12    5   12 1   
    13    5   23 1   
    14    6   10 1   
    15    6   11 1   
    16    6   21 1   
    17    7   14 1   
    18    7   24 1   
    19    8   43 1   
    20    8   44 1   
    21    9   45 1   
    22    9   46 1   
    23   10   25 1   
    24   10   27 1   
    25   11   13 1   
    26   11   28 1   
    27   12   15 1   
    28   12   47 1   
    29   13   16 1   
    30   13   51 1   
    31   14   22 1   
    32   14   49 1   
    33   15   16 1   
    34   15   29 1   
    35   16   34 1   
    36   17   26 1   
    37   17   35 1   
    38   18   22 1   
    39   18   54 1   
    40   21   30 1   
    41   21   48 1   
    42   22   36 1   
    43   25   31 1   
    44   25   50 1   
    45   26   37 1   
    46   28   52 1   
    47   29   53 1   
    48   30   55 1   
    49   31   57 1   
    50   32   36 1   
    51   32   58 1   
    52   33   38 1   
    53   33   39 1   
    54   33   40 1   
    55   36   56 1   
@<TRIPOS>SUBSTRUCTURE
     1 OYJ         1 TEMP              0 ****  ****    0 ROOT
