@<TRIPOS>MOLECULE
OYJ
   60    62     1     0     0
SMALL
bcc


@<TRIPOS>ATOM
      1 S1          1.5090   -1.4800   -0.9550 s6        1 OYJ      2.806000
      2 C2          2.1830    0.2230    2.1820 c3        1 OYJ     -0.032000
      3 C3          2.9510   -0.2630    0.9970 c2        1 OYJ     -0.436000
      4 N4          1.0160    0.8750    0.1380 n3        1 OYJ     -0.240000
      5 C5          2.9050    1.3990    2.8160 c2        1 OYJ      0.272000
      6 N6          8.4550    4.5660    3.9890 n         1 OYJ     -0.233000
      7 C7          4.1580   -0.9070    1.1430 c2        1 OYJ      0.283000
      8 C8          0.8350    0.7160    1.5780 c3        1 OYJ     -0.088000
      9 C9          2.1590    0.0340   -0.2440 c3        1 OYJ     -0.573000
     10 C10         9.6390    4.3930    3.1560 c2        1 OYJ      0.253000
     11 C11         7.3920    3.7580    3.9320 c2        1 OYJ      0.222000
     12 N12         4.0110    1.0050    3.8110 n4        1 OYJ     -0.083000
     13 C13         6.2310    3.9910    4.8590 c3        1 OYJ     -0.194000
     14 N14         4.8800   -1.3730   -0.1070 n4        1 OYJ     -0.037000
     15 C15         5.1080    1.9580    3.8800 c2        1 OYJ     -0.173000
     16 C16         5.1310    2.9830    4.8000 c2        1 OYJ      0.179000
     17 C17         8.2540    0.1490   -0.0470 c2        1 OYJ     -0.023000
     18 C18         6.9400   -0.1240    0.3740 c1        1 OYJ     -0.170000
     19 O19         2.6910   -2.1180   -1.4140 o         1 OYJ     -0.948000
     20 O20         0.7390   -2.1670   -0.0250 o         1 OYJ     -0.948000
     21 C21         8.5610    5.6960    4.9740 c3        1 OYJ     -0.051000
     22 C22         6.3590   -1.4420    0.0740 c3        1 OYJ     -0.089000
     23 O23         2.7480    2.5930    2.6420 o         1 OYJ     -0.188000
     24 O24         4.7740   -1.1960    2.2110 o         1 OYJ     -0.477000
     25 C25        10.5530    4.7990    8.0240 c1        1 OYJ      0.577000
     26 C26         8.9200   -0.6850   -0.9540 c2        1 OYJ      0.047000
     27 O27        10.0440    3.2850    2.8340 o         1 OYJ     -0.199000
     28 C28         7.2680    2.6730    2.9800 c2        1 OYJ     -0.227000
     29 C29         6.2040    1.8340    2.9400 c2        1 OYJ      0.025000
     30 C30         9.2440    5.5260    6.2060 c1        1 OYJ     -0.126000
     31 C31         9.9870    4.5480    6.8190 c2        1 OYJ     -0.512000
     32 C32         8.2700   -1.8910   -1.4140 c2        1 OYJ     -0.139000
     33 C33         0.6290   -0.9070   -2.2420 c3        1 OYJ     -0.962000
     34 F34         4.1560    3.1520    5.7080 f         1 OYJ     -0.043000
     35 C36         7.0400   -2.2480   -0.9850 c2        1 OYJ     -0.121000
     36 CL         10.4280   -0.3370   -1.5770 cl        1 OYJ      0.142000
     37 H331        1.1510   -0.1380   -2.8650 h1        1 OYJ      0.184667
     38 H332       -0.3480   -0.4390   -1.9410 h1        1 OYJ      0.184667
     39 H333        0.3500   -1.7280   -2.9590 h1        1 OYJ      0.184667
     40 H2          0.4720    1.6620    2.0570 h1        1 OYJ      0.139500
     41 H3          2.0140   -0.5810    2.9470 hc        1 OYJ      0.152000
     42 H81C        6.1770    1.0250    2.1560 ha        1 OYJ      0.246000
     43 H82C        0.0690   -0.0980    1.7370 h1        1 OYJ      0.139500
     44 H91C        1.1920    1.8350   -0.0950 hn        1 OYJ      0.171000
     45 H92C        2.7940    0.5640   -1.0060 h2        1 OYJ      0.124000
     46 H12         3.5810    0.9110    4.7390 hn        1 OYJ      0.285000
     47 H21         7.5150    6.0720    5.1980 h1        1 OYJ      0.176500
     48 H14         4.6550   -0.7420   -0.8820 hn        1 OYJ      0.267000
     49 H25        10.1160    5.3670    2.8940 h5        1 OYJ      0.207000
     50 H13         6.5940    4.0450    5.9320 hc        1 OYJ      0.195500
     51 H28         5.7610    5.0020    4.6300 hc        1 OYJ      0.195500
     52 H29         8.0800    2.5090    2.2380 ha        1 OYJ      0.218000
     53 H18         6.5440   -2.0060    1.0740 hx        1 OYJ      0.240000
     54 H30         9.0930    6.5500    4.4360 h1        1 OYJ      0.176500
     55 H36         6.5510   -3.1690   -1.3470 ha        1 OYJ      0.184000
     56 H31        10.1830    3.5460    6.3710 ha        1 OYJ      0.173000
     57 H32         8.8150   -2.5190   -2.1450 ha        1 OYJ      0.197000
     58 H122        4.3920    0.0710    3.5260 hn        1 OYJ      0.285000
     59 H142        4.5140   -2.3080   -0.3620 hn        1 OYJ      0.267000
     60 F35         8.8320    1.2990    0.3890 f         1 OYJ     -0.086000
@<TRIPOS>BOND
     1    1    9 1   
     2    1   19 1   
     3    1   20 1   
     4    1   33 1   
     5    2    3 1   
     6    2    5 1   
     7    2    8 1   
     8    2   41 1   
     9    3    7 1   
    10    3    9 1   
    11    4    8 1   
    12    4    9 1   
    13    4   44 1   
    14    5   12 1   
    15    5   23 1   
    16    6   10 1   
    17    6   11 1   
    18    6   21 1   
    19    7   14 1   
    20    7   24 1   
    21    8   40 1   
    22    8   43 1   
    23    9   45 1   
    24   10   27 1   
    25   10   49 1   
    26   11   13 1   
    27   11   28 1   
    28   12   15 1   
    29   12   46 1   
    30   12   58 1   
    31   13   16 1   
    32   13   50 1   
    33   13   51 1   
    34   14   22 1   
    35   14   48 1   
    36   14   59 1   
    37   15   16 1   
    38   15   29 1   
    39   16   34 1   
    40   17   18 1   
    41   17   26 1   
    42   17   60 1   
    43   18   22 1   
    44   21   30 1   
    45   21   47 1   
    46   21   54 1   
    47   22   35 1   
    48   22   53 1   
    49   25   31 1   
    50   26   32 1   
    51   26   36 1   
    52   28   29 1   
    53   28   52 1   
    54   29   42 1   
    55   30   31 1   
    56   31   56 1   
    57   32   35 1   
    58   32   57 1   
    59   33   37 1   
    60   33   38 1   
    61   33   39 1   
    62   35   55 1   
@<TRIPOS>SUBSTRUCTURE
     1 OYJ         1 TEMP              0 ****  ****    0 ROOT
