@<TRIPOS>MOLECULE
OYJ
   58    59     1     0     0
SMALL
bcc


@<TRIPOS>ATOM
      1 S1          0.1590    0.1390   -0.7540 s6        1 OYJ      2.658000
      2 C2          3.7940   -0.4020    2.1880 c3        1 OYJ     -0.198000
      3 C3          3.5420   -0.5520    0.6960 c3        1 OYJ     -0.126000
      4 N4          1.0360   -0.3260    0.6380 n3        1 OYJ     -0.606000
      5 C5          4.7430    0.7440    2.4890 c2        1 OYJ      0.315000
      6 N6          8.4120    5.2290    5.4910 n         1 OYJ     -0.292000
      7 C7          4.6230   -1.4340    0.0590 c2        1 OYJ      0.289000
      8 C8          0.7250    0.0170    1.8690 c1        1 OYJ     -0.100000
      9 C9          2.1770   -1.2130    0.4350 c3        1 OYJ     -0.040000
     10 C10         9.4440    5.2400    6.4300 c2        1 OYJ      0.254000
     11 C11         7.5310    4.1700    5.3330 ca        1 OYJ      0.115000
     12 N12         5.0870    0.9110    3.8220 n         1 OYJ     -0.303000
     13 C13         7.4920    2.9600    5.9990 ca        1 OYJ     -0.233000
     14 N14         5.8940   -0.8860   -0.0150 n         1 OYJ     -0.322000
     15 C15         5.9010    1.9310    4.3000 ca        1 OYJ     -0.027000
     16 C16         6.5490    1.9120    5.5490 ca        1 OYJ      0.089000
     17 C17         7.6260   -1.3640   -3.2650 c2        1 OYJ     -0.013000
     18 C18         7.1080   -0.6850   -2.1260 c1        1 OYJ     -0.102000
     19 O19        -0.0090   -0.9630   -1.6140 o         1 OYJ     -0.901500
     20 O20        -1.0050    0.8060   -0.3140 o         1 OYJ     -0.901500
     21 C21         8.2520    6.3970    4.6280 c3        1 OYJ     -0.072000
     22 C22         6.9260   -1.4410   -0.8690 c3        1 OYJ     -0.016000
     23 O23         5.1750    1.5040    1.5990 o         1 OYJ     -0.376000
     24 O24         4.3720   -2.6040   -0.2890 o         1 OYJ     -0.362000
     25 C25         6.8560    9.0630    6.8610 c1        1 OYJ      0.397000
     26 C26         7.7180   -2.7500   -3.2950 c2        1 OYJ      0.005000
     27 O27         9.6530    4.3330    7.2460 o         1 OYJ     -0.330000
     28 C28         6.3530    4.1660    4.4330 ca        1 OYJ     -0.244000
     29 C29         6.3630    3.1090    3.5490 ca        1 OYJ     -0.047000
     30 C30         7.7590    7.6560    5.1570 c1        1 OYJ     -0.059000
     31 C31         7.3130    7.8740    6.4750 c2        1 OYJ     -0.530000
     32 C32         7.3510   -3.5220   -2.1340 c2        1 OYJ     -0.185000
     33 C33         1.2040    1.2550   -1.4790 c3        1 OYJ     -0.942000
     34 F34         6.4090    0.8510    6.3750 f         1 OYJ     -0.103000
     35 C36         6.9310   -2.9330   -0.9940 c2        1 OYJ     -0.069000
     36 CL          8.2160   -3.6100   -4.6580 cl        1 OYJ      0.045000
     37 H331        2.2050    0.8320   -1.7440 h1        1 OYJ      0.164667
     38 H332        1.3960    2.1640   -0.8570 h1        1 OYJ      0.164667
     39 H333        0.7710    1.6320   -2.4420 h1        1 OYJ      0.164667
     40 H2          2.8120   -0.1990    2.7130 hc        1 OYJ      0.145500
     41 H3          4.2050   -1.3600    2.6020 hc        1 OYJ      0.145500
     42 H81C        3.5740    0.4640    0.2070 hc        1 OYJ      0.133000
     43 H82C       -0.1630    0.6730    1.9950 ha        1 OYJ      0.092000
     44 H91C        2.0780   -2.1050    1.1170 h1        1 OYJ      0.134000
     45 H92C        2.1480   -1.5930   -0.6290 h1        1 OYJ      0.134000
     46 H12         4.7730    0.2390    4.4870 hn        1 OYJ      0.243000
     47 H21         7.5310    6.1350    3.7840 h1        1 OYJ      0.159500
     48 H14         5.9580    0.1130    0.0730 hn        1 OYJ      0.259000
     49 H25        10.0730    6.1600    6.3740 h5        1 OYJ      0.133000
     50 H13         8.1570    2.7020    6.8350 ha        1 OYJ      0.188000
     51 H28         6.9420    2.9850    2.6300 ha        1 OYJ      0.172000
     52 H29         5.4200    4.3750    4.9940 ha        1 OYJ      0.131000
     53 H18         7.9260   -1.1940   -0.3380 h1        1 OYJ      0.175000
     54 H30         9.2510    6.6210    4.1380 h1        1 OYJ      0.159500
     55 H36         6.6140   -3.5240   -0.1200 ha        1 OYJ      0.169000
     56 H31         7.3110    7.0580    7.2360 ha        1 OYJ      0.181000
     57 H32         7.4030   -4.6210   -2.2140 ha        1 OYJ      0.163000
     58 F35         7.9540   -0.6180   -4.3480 f         1 OYJ     -0.079000
@<TRIPOS>BOND
     1    1    4 1   
     2    1   19 1   
     3    1   20 1   
     4    1   33 1   
     5    2    3 1   
     6    2    5 1   
     7    2   40 1   
     8    2   41 1   
     9    3    7 1   
    10    3    9 1   
    11    3   42 1   
    12    4    8 1   
    13    4    9 1   
    14    5   12 1   
    15    5   23 1   
    16    6   10 1   
    17    6   11 1   
    18    6   21 1   
    19    7   14 1   
    20    7   24 1   
    21    8   43 1   
    22    9   44 1   
    23    9   45 1   
    24   10   27 1   
    25   10   49 1   
    26   11   13 1   
    27   11   28 1   
    28   12   15 1   
    29   12   46 1   
    30   13   16 1   
    31   13   50 1   
    32   14   22 1   
    33   14   48 1   
    34   15   16 1   
    35   15   29 1   
    36   16   34 1   
    37   17   18 1   
    38   17   26 1   
    39   17   58 1   
    40   18   22 1   
    41   21   30 1   
    42   21   47 1   
    43   21   54 1   
    44   22   35 1   
    45   22   53 1   
    46   25   31 1   
    47   26   32 1   
    48   26   36 1   
    49   28   29 1   
    50   28   52 1   
    51   29   51 1   
    52   30   31 1   
    53   31   56 1   
    54   32   35 1   
    55   32   57 1   
    56   33   37 1   
    57   33   38 1   
    58   33   39 1   
    59   35   55 1   
@<TRIPOS>SUBSTRUCTURE
     1 OYJ         1 TEMP              0 ****  ****    0 ROOT
