@<TRIPOS>MOLECULE
OYJ
   58    58     1     0     0
SMALL
bcc


@<TRIPOS>ATOM
      1 S1          0.8380   -0.2130   -2.2570 s6        1 OYJ      2.814000
      2 C2          2.4240    0.2110    2.1200 c3        1 OYJ     -0.138000
      3 C3          3.0750   -0.5160    0.9880 c2        1 OYJ     -0.253000
      4 N4          1.3320   -0.2150   -0.6950 n7        1 OYJ     -0.831000
      5 C5          3.3070    1.3970    2.5580 c2        1 OYJ      0.297000
      6 N6          7.7690    5.2540    5.3570 n         1 OYJ     -0.301000
      7 C7          4.3450   -1.1900    1.3630 c2        1 OYJ      0.346000
      8 C8          1.0510    0.6270    1.8850 c1        1 OYJ     -0.045000
      9 C9          2.5540   -0.6680   -0.2600 c2        1 OYJ      0.104000
     10 C10         7.2130    6.5390    5.4120 c2        1 OYJ      0.261000
     11 C11         7.0010    4.1320    5.0940 ca        1 OYJ      0.109000
     12 N12         4.3090    1.1250    3.4730 ns        1 OYJ     -0.299000
     13 C13         7.4350    2.8330    4.8960 ca        1 OYJ     -0.254000
     14 N14         5.3350   -1.3270    0.4010 ns        1 OYJ     -0.324000
     15 C15         5.1960    2.0810    3.9570 ca        1 OYJ     -0.001000
     16 C16         6.4680    1.7910    4.4800 ca        1 OYJ      0.066000
     17 C17         8.9930   -1.6110   -0.0270 c2        1 OYJ     -0.005000
     18 C18         7.7370   -0.9950    0.2400 c1        1 OYJ     -0.090000
     19 O19         1.7720   -0.9170   -3.0430 o         1 OYJ     -0.925500
     20 O20        -0.5040   -0.6230   -2.3250 o         1 OYJ     -0.925500
     21 C21         9.2020    5.1010    5.5760 c3        1 OYJ     -0.071000
     22 C22         6.6440   -1.8210    0.7770 c3        1 OYJ     -0.023000
     23 O23         3.0790    2.5350    2.1100 o         1 OYJ     -0.349000
     24 O24         4.5120   -1.6640    2.5120 o         1 OYJ     -0.403000
     25 C25        10.7270    5.0710    2.1480 c1        1 OYJ      0.401000
     26 C26         9.1140   -2.9940   -0.0860 c2        1 OYJ     -0.004000
     27 O27         6.0260    6.7940    5.1890 o         1 OYJ     -0.305000
     28 C28         5.5220    4.0450    5.0630 ca        1 OYJ     -0.132000
     29 C29         5.0410    3.5430    3.8760 ca        1 OYJ     -0.111000
     30 C30        10.1400    5.0610    4.4650 c1        1 OYJ     -0.062000
     31 C31         9.7990    5.1050    3.1010 c2        1 OYJ     -0.527000
     32 C32         7.9840   -3.8300    0.2350 c2        1 OYJ     -0.182000
     33 C33         0.9060    1.4320   -2.6710 c3        1 OYJ     -0.959000
     34 F34         6.9180    0.5160    4.5390 f         1 OYJ     -0.107000
     35 C36         6.7980   -3.3040    0.6050 c2        1 OYJ     -0.086000
     36 Cl         10.5340   -3.7740   -0.5570 cl        1 OYJ      0.046000
     37 H331        1.6830    2.0350   -2.1380 h1        1 OYJ      0.165000
     38 H332        1.1290    1.5520   -3.7630 h1        1 OYJ      0.165000
     39 H333       -0.0680    1.9550   -2.4910 h1        1 OYJ      0.165000
     40 H2          2.8250    3.5530   -0.0030 ha        1 OYJ      0.001000
     41 H3          2.3220   -0.5420    2.9810 hc        1 OYJ      0.188000
     42 H81C        2.6300    3.3740   -0.6270 ha        1 OYJ      0.001000
     43 H82C        0.6550    1.4220    2.5330 ha        1 OYJ      0.084000
     44 H91C        0.7200    0.0990    0.0590 hn        1 OYJ      0.303000
     45 H92C        3.1260   -1.2250   -1.0400 h4        1 OYJ      0.169000
     46 H12         4.5240    0.1680    3.6760 hn        1 OYJ      0.261000
     47 H21         9.3810    4.1400    6.1570 h1        1 OYJ      0.148000
     48 H14         5.3260   -0.7090   -0.3810 hn        1 OYJ      0.245000
     49 H25         7.9610    7.3230    5.6810 h5        1 OYJ      0.131000
     50 H13         8.4780    2.5100    4.9840 ha        1 OYJ      0.154000
     51 H28         4.9770    4.0330    2.9010 ha        1 OYJ      0.174000
     52 H29         5.1090    3.6780    6.0220 ha        1 OYJ      0.135000
     53 H18         6.7780   -1.6640    1.9220 h1        1 OYJ      0.199000
     54 H30         9.5590    5.9460    6.2460 h1        1 OYJ      0.148000
     55 H36         5.9320   -3.9380    0.8530 ha        1 OYJ      0.162000
     56 H31         8.7350    5.1520    2.7650 ha        1 OYJ      0.187000
     57 H32         8.1220   -4.9220    0.1610 ha        1 OYJ      0.162000
     58 F35        10.0420   -0.8030   -0.3130 f         1 OYJ     -0.077000
@<TRIPOS>BOND
     1    1    4 1   
     2    1   19 1   
     3    1   20 1   
     4    1   33 1   
     5    2    3 1   
     6    2    5 1   
     7    2    8 1   
     8    2   41 1   
     9    3    7 1   
    10    3    9 1   
    11    4    9 1   
    12    4   44 1   
    13    5   12 1   
    14    5   23 1   
    15    6   10 1   
    16    6   11 1   
    17    6   21 1   
    18    7   14 1   
    19    7   24 1   
    20    8   43 1   
    21    9   45 1   
    22   10   27 1   
    23   10   49 1   
    24   11   13 1   
    25   11   28 1   
    26   12   15 1   
    27   12   46 1   
    28   13   16 1   
    29   13   50 1   
    30   14   22 1   
    31   14   48 1   
    32   15   16 1   
    33   15   29 1   
    34   16   34 1   
    35   17   18 1   
    36   17   26 1   
    37   17   58 1   
    38   18   22 1   
    39   21   30 1   
    40   21   47 1   
    41   21   54 1   
    42   22   35 1   
    43   22   53 1   
    44   25   31 1   
    45   26   32 1   
    46   26   36 1   
    47   28   29 1   
    48   28   52 1   
    49   29   51 1   
    50   30   31 1   
    51   31   56 1   
    52   32   35 1   
    53   32   57 1   
    54   33   37 1   
    55   33   38 1   
    56   33   39 1   
    57   35   55 1   
    58   40   42 1   
@<TRIPOS>SUBSTRUCTURE
     1 OYJ         1 TEMP              0 ****  ****    0 ROOT
