@<TRIPOS>MOLECULE
OYP
   59    59     1     0     0
SMALL
bcc


@<TRIPOS>ATOM
      1 C1          0.4820   -0.6820    0.5420 ca        1 OYP     -0.116500
      2 O1         -2.8330   -0.6100    6.4840 o         1 OYP     -0.848800
      3 C2          0.6850    0.5950    0.0030 ca        1 OYP     -0.126300
      4 O2         -0.8240   -1.5780    6.3800 o         1 OYP     -0.848800
      5 C3          0.6080    1.7120    0.8370 ca        1 OYP     -0.116500
      6 O3          1.7090    1.9100   -1.6930 os        1 OYP     -0.406600
      7 C4          0.3270    1.5560    2.1930 ca        1 OYP     -0.141500
      8 C5          0.1130    0.2850    2.7390 ca        1 OYP     -0.030300
      9 C6          0.1960   -0.8340    1.8940 ca        1 OYP     -0.141500
     10 C7         -0.1860    0.1070    4.1850 c3        1 OYP     -0.043100
     11 C8         -1.5990   -0.3720    4.4360 c3        1 OYP     -0.191400
     12 C9         -1.7590   -0.8880    5.8800 c         1 OYP      0.907600
     13 C10         0.9400    0.7250   -1.4590 c3        1 OYP      0.184700
     14 C11         1.9740    2.0870   -3.0870 c3        1 OYP      0.214500
     15 C12         2.7320    3.2960   -3.2620 c1        1 OYP     -0.129100
     16 C13         3.3640    4.3000   -3.4200 c1        1 OYP     -0.124100
     17 C14         4.1230    5.4970   -3.6260 c3        1 OYP      0.004700
     18 C15         4.2100    6.3410   -2.3650 c3        1 OYP     -0.077400
     19 C16         5.0210    7.5950   -2.6140 c3        1 OYP     -0.079400
     20 C17         5.1120    8.4420   -1.3630 c3        1 OYP     -0.080400
     21 C18         5.9220    9.6970   -1.6070 c3        1 OYP     -0.078400
     22 C19         6.0120   10.5440   -0.3550 c3        1 OYP     -0.079400
     23 C20         6.8230   11.7990   -0.5980 c3        1 OYP     -0.078400
     24 C21         6.9120   12.6460    0.6530 c3        1 OYP     -0.079400
     25 C22         7.7230   13.9020    0.4120 c3        1 OYP     -0.079400
     26 C23         7.8140   14.7480    1.6560 c3        1 OYP     -0.092100
     27 H1          0.5470   -1.5670   -0.1060 ha        1 OYP      0.123500
     28 H3          0.7800    2.7140    0.4160 ha        1 OYP      0.123500
     29 H4          0.2670    2.4420    2.8430 ha        1 OYP      0.137000
     30 H6          0.0280   -1.8360    2.3190 ha        1 OYP      0.137000
     31 H7          0.5210   -0.6520    4.6260 hc        1 OYP      0.060200
     32 H7A        -0.0210    1.0720    4.7340 hc        1 OYP      0.060200
     33 H8         -2.3320    0.4510    4.2530 hc        1 OYP      0.024700
     34 H8A        -1.8470   -1.2180    3.7450 hc        1 OYP      0.024700
     35 H10         1.5070   -0.1650   -1.8490 h1        1 OYP      0.025200
     36 H10A       -0.0350    0.8050   -2.0170 h1        1 OYP      0.025200
     37 H11         0.9990    2.1550   -3.6490 h1        1 OYP      0.039700
     38 H11A        2.5570    1.2030   -3.4730 h1        1 OYP      0.039700
     39 H14         5.1620    5.2260   -3.9680 hc        1 OYP      0.052200
     40 H14A        3.6500    6.1020   -4.4500 hc        1 OYP      0.052200
     41 H15         3.1780    6.6170   -2.0250 hc        1 OYP      0.054200
     42 H15A        4.6810    5.7410   -1.5430 hc        1 OYP      0.054200
     43 H16         4.5500    8.1920   -3.4390 hc        1 OYP      0.036200
     44 H16A        6.0530    7.3160   -2.9550 hc        1 OYP      0.036200
     45 H17         5.5820    7.8450   -0.5370 hc        1 OYP      0.044200
     46 H17A        4.0800    8.7210   -1.0220 hc        1 OYP      0.044200
     47 H18         5.4520   10.2940   -2.4320 hc        1 OYP      0.036700
     48 H18A        6.9540    9.4180   -1.9470 hc        1 OYP      0.036700
     49 H19         4.9800   10.8230   -0.0150 hc        1 OYP      0.042200
     50 H19A        6.4820    9.9470    0.4700 hc        1 OYP      0.042200
     51 H20         6.3540   12.3960   -1.4240 hc        1 OYP      0.037200
     52 H20A        7.8550   11.5200   -0.9380 hc        1 OYP      0.037200
     53 H21         7.3810   12.0490    1.4790 hc        1 OYP      0.040700
     54 H21A        5.8800   12.9250    0.9930 hc        1 OYP      0.040700
     55 H22         7.2530   14.4970   -0.4150 hc        1 OYP      0.036700
     56 H22A        8.7550   13.6210    0.0710 hc        1 OYP      0.036700
     57 H23         6.7970   15.0590    1.9970 hc        1 OYP      0.031700
     58 H23A        8.4150   15.6680    1.4570 hc        1 OYP      0.031700
     59 H23B        8.3020   14.1800    2.4850 hc        1 OYP      0.031700
@<TRIPOS>BOND
     1    1    3 ar  
     2    1    9 ar  
     3    1   27 1   
     4    2   12 1   
     5    3    5 ar  
     6    3   13 1   
     7    4   12 1   
     8    5    7 ar  
     9    5   28 1   
    10    6   13 1   
    11    6   14 1   
    12    7    8 ar  
    13    7   29 1   
    14    8    9 ar  
    15    8   10 1   
    16    9   30 1   
    17   10   11 1   
    18   10   31 1   
    19   10   32 1   
    20   11   12 1   
    21   11   33 1   
    22   11   34 1   
    23   13   35 1   
    24   13   36 1   
    25   14   15 1   
    26   14   37 1   
    27   14   38 1   
    28   15   16 3   
    29   16   17 1   
    30   17   18 1   
    31   17   39 1   
    32   17   40 1   
    33   18   19 1   
    34   18   41 1   
    35   18   42 1   
    36   19   20 1   
    37   19   43 1   
    38   19   44 1   
    39   20   21 1   
    40   20   45 1   
    41   20   46 1   
    42   21   22 1   
    43   21   47 1   
    44   21   48 1   
    45   22   23 1   
    46   22   49 1   
    47   22   50 1   
    48   23   24 1   
    49   23   51 1   
    50   23   52 1   
    51   24   25 1   
    52   24   53 1   
    53   24   54 1   
    54   25   26 1   
    55   25   55 1   
    56   25   56 1   
    57   26   57 1   
    58   26   58 1   
    59   26   59 1   
@<TRIPOS>SUBSTRUCTURE
     1 OYP         1 TEMP              0 ****  ****    0 ROOT
