@<TRIPOS>MOLECULE
OYP
   59    59     1     0     0
SMALL
bcc


@<TRIPOS>ATOM
      1 C1         -5.2810    1.5300   -0.5650 ca        1 OYP     -0.116500
      2 O1         -8.4770   -4.3800    0.5050 o         1 OYP     -0.848800
      3 C2         -4.0320    1.6100    0.0640 ca        1 OYP     -0.126300
      4 O2         -8.0750   -3.7340   -1.5950 o         1 OYP     -0.848800
      5 C3         -3.3850    0.4360    0.4560 ca        1 OYP     -0.116500
      6 O3         -2.0200    2.8410    0.3630 os        1 OYP     -0.406600
      7 C4         -3.9810   -0.8030    0.2250 ca        1 OYP     -0.141500
      8 C5         -5.2330   -0.8910   -0.3950 ca        1 OYP     -0.030300
      9 C6         -5.8750    0.2930   -0.7890 ca        1 OYP     -0.141500
     10 C7         -5.8760   -2.2080   -0.6470 c3        1 OYP     -0.043100
     11 C8         -7.1160   -2.4250    0.1930 c3        1 OYP     -0.191400
     12 C9         -7.9470   -3.6070   -0.3420 c         1 OYP      0.907600
     13 C10        -3.4470    2.9540    0.3330 c3        1 OYP      0.184700
     14 C11        -1.4070    4.1060    0.6270 c3        1 OYP      0.214500
     15 C12         0.0190    3.9290    0.6590 c1        1 OYP     -0.129100
     16 C13         1.2080    3.7940    0.6870 c1        1 OYP     -0.124100
     17 C14         2.6320    3.6510    0.7250 c3        1 OYP      0.004700
     18 C15         3.0730    2.2410    0.3650 c3        1 OYP     -0.077400
     19 C16         4.5810    2.1210    0.4130 c3        1 OYP     -0.079400
     20 C17         5.0280    0.7200    0.0560 c3        1 OYP     -0.080400
     21 C18         6.5360    0.5960    0.1030 c3        1 OYP     -0.078400
     22 C19         6.9820   -0.8060   -0.2550 c3        1 OYP     -0.079400
     23 C20         8.4900   -0.9310   -0.2080 c3        1 OYP     -0.078400
     24 C21         8.9360   -2.3330   -0.5650 c3        1 OYP     -0.079400
     25 C22        10.4430   -2.4610   -0.5190 c3        1 OYP     -0.079400
     26 C23        10.8910   -3.8550   -0.8750 c3        1 OYP     -0.092100
     27 H1         -5.7940    2.4500   -0.8820 ha        1 OYP      0.123500
     28 H3         -2.3990    0.4970    0.9390 ha        1 OYP      0.123500
     29 H4         -3.4650   -1.7230    0.5380 ha        1 OYP      0.137000
     30 H6         -6.8600    0.2290   -1.2760 ha        1 OYP      0.137000
     31 H7         -6.1760   -2.2800   -1.7310 hc        1 OYP      0.060200
     32 H7A        -5.1470   -3.0380   -0.4490 hc        1 OYP      0.060200
     33 H8         -6.8390   -2.6190    1.2590 hc        1 OYP      0.024700
     34 H8A        -7.7650   -1.5140    0.1640 hc        1 OYP      0.024700
     35 H10        -3.7420    3.6880   -0.4660 h1        1 OYP      0.025200
     36 H10A       -3.8040    3.3390    1.3290 h1        1 OYP      0.025200
     37 H11        -1.6910    4.8360   -0.1840 h1        1 OYP      0.039700
     38 H11A       -1.7720    4.5000    1.6190 h1        1 OYP      0.039700
     39 H14         3.1010    4.3840    0.0100 hc        1 OYP      0.052200
     40 H14A        3.0060    3.9070    1.7570 hc        1 OYP      0.052200
     41 H15         2.6100    1.5090    1.0770 hc        1 OYP      0.054200
     42 H15A        2.7040    1.9840   -0.6620 hc        1 OYP      0.054200
     43 H16         5.0410    2.8560   -0.2980 hc        1 OYP      0.036200
     44 H16A        4.9470    2.3820    1.4410 hc        1 OYP      0.036200
     45 H17         4.5670   -0.0150    0.7670 hc        1 OYP      0.044200
     46 H17A        4.6600    0.4590   -0.9720 hc        1 OYP      0.044200
     47 H18         6.9970    1.3300   -0.6090 hc        1 OYP      0.036700
     48 H18A        6.9030    0.8570    1.1310 hc        1 OYP      0.036700
     49 H19         6.5210   -1.5400    0.4570 hc        1 OYP      0.041700
     50 H19A        6.6140   -1.0670   -1.2820 hc        1 OYP      0.041700
     51 H20         8.9510   -0.1970   -0.9200 hc        1 OYP      0.037700
     52 H20A        8.8570   -0.6700    0.8200 hc        1 OYP      0.037700
     53 H21         8.4750   -3.0670    0.1470 hc        1 OYP      0.040700
     54 H21A        8.5680   -2.5940   -1.5930 hc        1 OYP      0.040700
     55 H22        10.9020   -1.7250   -1.2310 hc        1 OYP      0.036700
     56 H22A       10.8090   -2.1980    0.5080 hc        1 OYP      0.036700
     57 H23        10.4630   -4.6000   -0.1610 hc        1 OYP      0.031700
     58 H23A       10.5570   -4.1260   -1.9050 hc        1 OYP      0.031700
     59 H23B       12.0050   -3.9280   -0.8350 hc        1 OYP      0.031700
@<TRIPOS>BOND
     1    1    3 ar  
     2    1    9 ar  
     3    1   27 1   
     4    2   12 1   
     5    3    5 ar  
     6    3   13 1   
     7    4   12 1   
     8    5    7 ar  
     9    5   28 1   
    10    6   13 1   
    11    6   14 1   
    12    7    8 ar  
    13    7   29 1   
    14    8    9 ar  
    15    8   10 1   
    16    9   30 1   
    17   10   11 1   
    18   10   31 1   
    19   10   32 1   
    20   11   12 1   
    21   11   33 1   
    22   11   34 1   
    23   13   35 1   
    24   13   36 1   
    25   14   15 1   
    26   14   37 1   
    27   14   38 1   
    28   15   16 3   
    29   16   17 1   
    30   17   18 1   
    31   17   39 1   
    32   17   40 1   
    33   18   19 1   
    34   18   41 1   
    35   18   42 1   
    36   19   20 1   
    37   19   43 1   
    38   19   44 1   
    39   20   21 1   
    40   20   45 1   
    41   20   46 1   
    42   21   22 1   
    43   21   47 1   
    44   21   48 1   
    45   22   23 1   
    46   22   49 1   
    47   22   50 1   
    48   23   24 1   
    49   23   51 1   
    50   23   52 1   
    51   24   25 1   
    52   24   53 1   
    53   24   54 1   
    54   25   26 1   
    55   25   55 1   
    56   25   56 1   
    57   26   57 1   
    58   26   58 1   
    59   26   59 1   
@<TRIPOS>SUBSTRUCTURE
     1 OYP         1 TEMP              0 ****  ****    0 ROOT
