@<TRIPOS>MOLECULE
OYP
   59    55     1     0     0
SMALL
bcc


@<TRIPOS>ATOM
      1 C1         -5.5710   -3.1610   -0.4130 c1        1 OYP     -0.120500
      2 O1         -7.8950    1.5800   -4.2720 o         1 OYP     -0.585000
      3 C2         -4.6360   -4.0270   -0.9570 c1        1 OYP     -0.141000
      4 O2         -6.5750    0.7210   -5.7820 o         1 OYP     -0.585000
      5 C3         -4.4080   -4.0310   -2.3240 c1        1 OYP     -0.121000
      6 O3         -2.8600   -4.1900    0.6230 os        1 OYP     -0.276000
      7 C4         -5.1140   -3.1690   -3.1460 c1        1 OYP     -0.146000
      8 C5         -6.0510   -2.3020   -2.6010 c1        1 OYP     -0.033000
      9 C6         -6.2780   -2.2980   -1.2360 c1        1 OYP     -0.120500
     10 C7         -6.8720   -1.4190   -3.5040 c3        1 OYP     -0.120000
     11 C8         -6.2820   -0.0290   -3.5200 c3        1 OYP     -0.225000
     12 C9         -6.9630    0.7940   -4.5850 c2        1 OYP      0.331000
     13 C10        -3.7590   -4.9520   -0.1490 c3        1 OYP      0.027000
     14 C11        -1.6570   -4.8540    0.9160 c3        1 OYP      0.106000
     15 C12        -0.4850   -3.9610    0.5530 c1        1 OYP     -0.243000
     16 C13         0.4410   -3.2560    0.2650 c1        1 OYP     -0.098000
     17 C14         1.6190   -2.3600   -0.1010 c2        1 OYP     -0.069000
     18 C15         1.9140   -1.4070    1.0540 c3        1 OYP     -0.146000
     19 C16         2.4750   -0.0980    0.5050 c3        1 OYP     -0.183000
     20 C17         3.1450    0.6780    1.6300 c3        1 OYP     -0.138000
     21 C18         3.5530    2.0570    1.1250 c3        1 OYP     -0.182000
     22 C19         4.4740    2.7160    2.1380 c3        1 OYP     -0.147000
     23 C20         4.9800    4.0350    1.5800 c3        1 OYP     -0.161000
     24 C21         5.9740    4.6510    2.5550 c3        1 OYP     -0.155000
     25 C22         6.3980    6.0220    2.0490 c3        1 OYP     -0.161000
     26 C23         7.4120    6.6270    3.0120 c3        1 OYP     -0.208000
     27 H1         -6.0000   -3.1830    0.4660 ha        1 OYP      0.133000
     28 H3         -3.8860   -4.7090   -2.7990 ha        1 OYP      0.113000
     29 H4         -4.9530   -3.1710   -4.1100 ha        1 OYP      0.129000
     30 H6         -6.9700   -1.7200   -0.8580 ha        1 OYP      0.133000
     31 H7         -6.8680   -1.7860   -4.4100 hc        1 OYP      0.097500
     32 H7A        -7.7910   -1.3800   -3.1720 hc        1 OYP      0.097500
     33 H8         -6.4150    0.3910   -2.6500 hc        1 OYP      0.066000
     34 H8A        -5.3270   -0.0830   -3.7130 hc        1 OYP      0.066000
     35 H10        -4.3170   -5.4970    0.4430 h1        1 OYP      0.080000
     36 H10A       -3.2570   -5.5350   -0.7520 h1        1 OYP      0.080000
     37 H11        -1.6080   -5.6840    0.4000 h1        1 OYP      0.086500
     38 H11A       -1.6250   -5.0610    1.8680 h1        1 OYP      0.086500
     39 H14         2.4060   -2.9120   -0.2770 ha        1 OYP      0.108500
     40 H14A        1.3980   -1.8420   -0.9030 ha        1 OYP      0.108500
     41 H15         1.0850   -1.2260    1.5480 hc        1 OYP      0.076000
     42 H15A        2.5700   -1.8160    1.6550 hc        1 OYP      0.076000
     43 H16         1.7460    0.4360    0.1280 hc        1 OYP      0.109000
     44 H16A        3.1290   -0.2920   -0.1910 hc        1 OYP      0.109000
     45 H17         3.9370    0.1960    1.9310 hc        1 OYP      0.059000
     46 H17A        2.5200    0.7760    2.3770 hc        1 OYP      0.059000
     47 H18         2.7530    2.6090    1.0020 hc        1 OYP      0.114500
     48 H18A        4.0220    1.9660    0.2680 hc        1 OYP      0.114500
     49 H19         3.9810    2.8810    2.9680 hc        1 OYP      0.063500
     50 H19A        5.2290    2.1300    2.3200 hc        1 OYP      0.063500
     51 H20         4.2230    4.6490    1.4530 hc        1 OYP      0.087500
     52 H20A        5.4190    3.8780    0.7230 hc        1 OYP      0.087500
     53 H21         6.7610    4.0710    2.6270 hc        1 OYP      0.071500
     54 H21A        5.5550    4.7430    3.4320 hc        1 OYP      0.071500
     55 H22         5.6160    6.6040    1.9910 hc        1 OYP      0.079000
     56 H22A        6.8040    5.9310    1.1620 hc        1 OYP      0.079000
     57 H23         7.6440    7.5330    2.7150 hc        1 OYP      0.065000
     58 H23A        8.2160    6.0720    3.0290 hc        1 OYP      0.065000
     59 H23B        7.0230    6.6670    3.9130 hc        1 OYP      0.065000
@<TRIPOS>BOND
     1    1    9 1   
     2    1   27 1   
     3    2   12 1   
     4    3    5 1   
     5    3   13 1   
     6    4   12 1   
     7    5   28 1   
     8    6   13 1   
     9    6   14 1   
    10    7    8 1   
    11    7   29 1   
    12    8   10 1   
    13    9   30 1   
    14   10   11 1   
    15   10   31 1   
    16   10   32 1   
    17   11   12 1   
    18   11   33 1   
    19   11   34 1   
    20   13   35 1   
    21   13   36 1   
    22   14   15 1   
    23   14   37 1   
    24   14   38 1   
    25   15   16 1   
    26   17   18 1   
    27   17   39 1   
    28   17   40 1   
    29   18   19 1   
    30   18   41 1   
    31   18   42 1   
    32   19   20 1   
    33   19   43 1   
    34   19   44 1   
    35   20   21 1   
    36   20   45 1   
    37   20   46 1   
    38   21   22 1   
    39   21   47 1   
    40   21   48 1   
    41   22   23 1   
    42   22   49 1   
    43   22   50 1   
    44   23   24 1   
    45   23   51 1   
    46   23   52 1   
    47   24   25 1   
    48   24   53 1   
    49   24   54 1   
    50   25   26 1   
    51   25   55 1   
    52   25   56 1   
    53   26   57 1   
    54   26   58 1   
    55   26   59 1   
@<TRIPOS>SUBSTRUCTURE
     1 OYP         1 TEMP              0 ****  ****    0 ROOT
