@<TRIPOS>MOLECULE
OYP
   59    59     1     0     0
SMALL
bcc


@<TRIPOS>ATOM
      1 C1          0.6510   -0.7020    0.6190 ca        1 OYP     -0.116500
      2 O1         -2.9460   -0.6670    6.3950 o         1 OYP     -0.848800
      3 C2          0.7700    0.5630    0.0290 ca        1 OYP     -0.126300
      4 O2         -0.8560   -1.4560    6.4280 o         1 OYP     -0.848800
      5 C3          0.5560    1.7040    0.8050 ca        1 OYP     -0.116500
      6 O3          1.7640    1.8870   -1.6780 os        1 OYP     -0.406600
      7 C4          0.2230    1.5830    2.1530 ca        1 OYP     -0.141500
      8 C5          0.0930    0.3230    2.7480 ca        1 OYP     -0.030300
      9 C6          0.3130   -0.8200    1.9620 ca        1 OYP     -0.141500
     10 C7         -0.2610    0.1820    4.1860 c3        1 OYP     -0.043100
     11 C8         -1.6370   -0.4100    4.3960 c3        1 OYP     -0.191400
     12 C9         -1.8230   -0.8750    5.8540 c         1 OYP      0.907600
     13 C10         1.0840    0.6520   -1.4250 c3        1 OYP      0.184700
     14 C11         2.0820    2.0260   -3.0650 c3        1 OYP      0.214500
     15 C12         2.7480    3.2860   -3.2600 c1        1 OYP     -0.129100
     16 C13         3.3040    4.3310   -3.4350 c1        1 OYP     -0.124100
     17 C14         3.9690    5.5780   -3.6620 c3        1 OYP      0.004700
     18 C15         4.1930    6.3480   -2.3710 c3        1 OYP     -0.077400
     19 C16         4.8980    7.6600   -2.6430 c3        1 OYP     -0.079400
     20 C17         5.1240    8.4330   -1.3610 c3        1 OYP     -0.080400
     21 C18         5.8290    9.7450   -1.6290 c3        1 OYP     -0.078400
     22 C19         6.0540   10.5190   -0.3470 c3        1 OYP     -0.080400
     23 C20         6.7590   11.8310   -0.6130 c3        1 OYP     -0.078400
     24 C21         6.9840   12.6040    0.6680 c3        1 OYP     -0.079400
     25 C22         7.6890   13.9170    0.4050 c3        1 OYP     -0.079400
     26 C23         7.9150   14.6900    1.6780 c3        1 OYP     -0.092100
     27 H1          0.8240   -1.6050    0.0160 ha        1 OYP      0.123500
     28 H3          0.6620    2.6980    0.3460 ha        1 OYP      0.123500
     29 H4          0.0560    2.4870    2.7570 ha        1 OYP      0.137000
     30 H6          0.2110   -1.8130    2.4250 ha        1 OYP      0.137000
     31 H7          0.4870   -0.4910    4.6940 hc        1 OYP      0.060200
     32 H7A        -0.2060    1.1800    4.6950 hc        1 OYP      0.060200
     33 H8         -2.4290    0.3370    4.1410 hc        1 OYP      0.024700
     34 H8A        -1.7770   -1.3020    3.7350 hc        1 OYP      0.024700
     35 H10         1.7410   -0.2020   -1.7470 h1        1 OYP      0.025200
     36 H10A        0.1340    0.6270   -2.0280 h1        1 OYP      0.025200
     37 H11         1.1330    1.9900   -3.6730 h1        1 OYP      0.039700
     38 H11A        2.7530    1.1780   -3.3820 h1        1 OYP      0.039700
     39 H14         4.9610    5.3870   -4.1600 hc        1 OYP      0.052200
     40 H14A        3.3570    6.2050   -4.3700 hc        1 OYP      0.052200
     41 H15         3.2060    6.5430   -1.8740 hc        1 OYP      0.054700
     42 H15A        4.8030    5.7280   -1.6640 hc        1 OYP      0.054700
     43 H16         4.2860    8.2770   -3.3520 hc        1 OYP      0.036200
     44 H16A        5.8830    7.4620   -3.1420 hc        1 OYP      0.036200
     45 H17         5.7350    7.8150   -0.6520 hc        1 OYP      0.044200
     46 H17A        4.1380    8.6300   -0.8630 hc        1 OYP      0.044200
     47 H18         5.2180   10.3640   -2.3380 hc        1 OYP      0.036700
     48 H18A        6.8150    9.5490   -2.1270 hc        1 OYP      0.036700
     49 H19         5.0690   10.7150    0.1510 hc        1 OYP      0.041700
     50 H19A        6.6650    9.9000    0.3620 hc        1 OYP      0.041700
     51 H20         6.1480   12.4490   -1.3230 hc        1 OYP      0.037700
     52 H20A        7.7450   11.6340   -1.1120 hc        1 OYP      0.037700
     53 H21         7.5950   11.9860    1.3780 hc        1 OYP      0.040700
     54 H21A        5.9990   12.8010    1.1670 hc        1 OYP      0.040700
     55 H22         7.0780   14.5330   -0.3060 hc        1 OYP      0.036700
     56 H22A        8.6740   13.7190   -0.0950 hc        1 OYP      0.036700
     57 H23         6.9430   14.9180    2.1780 hc        1 OYP      0.031700
     58 H23A        8.4360   15.6540    1.4620 hc        1 OYP      0.031700
     59 H23B        8.5440   14.1010    2.3900 hc        1 OYP      0.031700
@<TRIPOS>BOND
     1    1    3 ar  
     2    1    9 ar  
     3    1   27 1   
     4    2   12 1   
     5    3    5 ar  
     6    3   13 1   
     7    4   12 1   
     8    5    7 ar  
     9    5   28 1   
    10    6   13 1   
    11    6   14 1   
    12    7    8 ar  
    13    7   29 1   
    14    8    9 ar  
    15    8   10 1   
    16    9   30 1   
    17   10   11 1   
    18   10   31 1   
    19   10   32 1   
    20   11   12 1   
    21   11   33 1   
    22   11   34 1   
    23   13   35 1   
    24   13   36 1   
    25   14   15 1   
    26   14   37 1   
    27   14   38 1   
    28   15   16 3   
    29   16   17 1   
    30   17   18 1   
    31   17   39 1   
    32   17   40 1   
    33   18   19 1   
    34   18   41 1   
    35   18   42 1   
    36   19   20 1   
    37   19   43 1   
    38   19   44 1   
    39   20   21 1   
    40   20   45 1   
    41   20   46 1   
    42   21   22 1   
    43   21   47 1   
    44   21   48 1   
    45   22   23 1   
    46   22   49 1   
    47   22   50 1   
    48   23   24 1   
    49   23   51 1   
    50   23   52 1   
    51   24   25 1   
    52   24   53 1   
    53   24   54 1   
    54   25   26 1   
    55   25   55 1   
    56   25   56 1   
    57   26   57 1   
    58   26   58 1   
    59   26   59 1   
@<TRIPOS>SUBSTRUCTURE
     1 OYP         1 TEMP              0 ****  ****    0 ROOT
