@<TRIPOS>MOLECULE
OYQ
   39    36     1     0     0
SMALL
bcc


@<TRIPOS>ATOM
      1 CAA        -5.5690   -1.4670   -0.8390 c3        1 OYQ     -0.211000
      2 CAB        -4.4300    1.1980   -2.3400 c3        1 OYQ     -0.210000
      3 NAC         6.7710   -0.5860    2.9640 n3        1 OYQ     -0.953000
      4 OAD         0.2660   -0.1290   -1.0710 o         1 OYQ     -0.334000
      5 OAE         7.1180    0.4480    0.6660 o         1 OYQ     -0.941000
      6 OAF         6.6290   -1.7170    0.6900 o         1 OYQ     -0.941000
      7 CAG         2.8180    1.4930    1.4560 c1        1 OYQ     -0.221000
      8 CAH         2.3440   -0.7340    0.6960 c1        1 OYQ     -0.192000
      9 CAI         4.1580    1.1640    1.5820 c1        1 OYQ      0.013000
     10 CAJ         3.6850   -1.0620    0.8220 c1        1 OYQ      0.013000
     11 CAK        -4.3380   -1.1770   -1.6670 c3        1 OYQ     -0.159000
     12 CAL        -1.7380    0.7380   -0.1630 c3        1 OYQ     -0.187000
     13 CAM        -2.3270    0.2440   -1.4640 c3        1 OYQ     -0.156000
     14 NAN         0.5270    0.8530    0.9710 n         1 OYQ     -0.328000
     15 CAO        -0.2520    0.4660   -0.1480 c2        1 OYQ      0.311000
     16 CAP         1.9100    0.5440    1.0130 c2        1 OYQ      0.146000
     17 CAQ         4.5920   -0.1130    1.2650 c1        1 OYQ     -0.873000
     18 CAR        -3.8360    0.2160   -1.3550 c3        1 OYQ     -0.105000
     19 SAS         6.3180   -0.5010    1.3880 s6        1 OYQ      2.872000
     20 HAA        -5.4100   -1.1950    0.0890 hc        1 OYQ      0.074333
     21 HAAA       -5.7660   -2.4260   -0.8700 hc        1 OYQ      0.074333
     22 HAB        -4.1260    2.1030   -2.1210 hc        1 OYQ      0.076333
     23 HABA       -5.4080    1.1600   -2.2890 hc        1 OYQ      0.076333
     24 HABB       -4.1410    0.9660   -3.2470 hc        1 OYQ      0.076333
     25 HNAC        7.0330    0.1700    3.4050 hn        1 OYQ      0.240500
     26 HNAA        6.7830   -1.3930    3.3930 hn        1 OYQ      0.240500
     27 HAG         2.5130    2.3930    1.6800 ha        1 OYQ      0.136000
     28 HAH         1.7050   -1.4030    0.3840 DU        1 OYQ      0.180000
     29 HAI         4.7980    1.8330    1.8950 ha        1 OYQ      0.154000
     30 HAJ         3.9900   -1.9620    0.5990 ha        1 OYQ      0.153000
     31 HAK        -3.6410   -1.8300   -1.4550 hc        1 OYQ      0.082500
     32 HAL        -1.8950    1.7000   -0.0790 hc        1 OYQ      0.116500
     33 HALA       -2.1620    0.2710    0.5850 hc        1 OYQ      0.116500
     34 HAM        -1.9970   -0.6580   -1.6490 hc        1 OYQ      0.088000
     35 HAMA       -2.0630    0.8440   -2.1900 hc        1 OYQ      0.088000
     36 HNAN        0.1370    1.2940    1.6680 hn        1 OYQ      0.234000
     37 HAR        -4.1020    0.4620   -0.4490 hc        1 OYQ      0.088000
     38 H19        -6.3310   -0.9660   -1.2000 hc        1 OYQ      0.074333
     39 H20        -4.5620   -1.2380   -2.6170 hc        1 OYQ      0.082500
@<TRIPOS>BOND
     1    1   11 1   
     2    1   20 1   
     3    1   21 1   
     4    1   38 1   
     5    2   18 1   
     6    2   22 1   
     7    2   23 1   
     8    2   24 1   
     9    3   19 1   
    10    3   25 1   
    11    3   26 1   
    12    4   15 1   
    13    5   19 1   
    14    6   19 1   
    15    7   16 1   
    16    7   27 1   
    17    8   10 1   
    18    8   16 1   
    19    9   17 1   
    20    9   29 1   
    21   10   30 1   
    22   11   18 1   
    23   11   31 1   
    24   11   39 1   
    25   12   13 1   
    26   12   15 1   
    27   12   32 1   
    28   12   33 1   
    29   13   18 1   
    30   13   34 1   
    31   13   35 1   
    32   14   15 1   
    33   14   16 1   
    34   14   36 1   
    35   17   19 1   
    36   18   37 1   
@<TRIPOS>SUBSTRUCTURE
     1 OYQ         1 TEMP              0 ****  ****    0 ROOT
