@<TRIPOS>MOLECULE
OYQ
   40    40     1     0     0
SMALL
bcc


@<TRIPOS>ATOM
      1 CAA        -0.1030   -0.2710    0.1330 c3        1 OYQ     -0.095100
      2 CAB         1.4030    1.1720    2.4760 c3        1 OYQ     -0.095100
      3 NAC        12.6800   -2.1300    3.6640 n4        1 OYQ     -0.780500
      4 OAD         6.2410    0.2700    1.3930 o         1 OYQ     -0.526100
      5 OAE        12.6360   -0.5330    5.6640 o         1 OYQ     -0.578800
      6 OAF        12.9410    0.4060    3.4710 o         1 OYQ     -0.578800
      7 CAG         8.7240    0.0250    2.6960 ca        1 OYQ     -0.218000
      8 CAH         8.4110   -0.8560    4.9550 ca        1 OYQ     -0.218000
      9 CAI        10.0800    0.0150    2.9030 ca        1 OYQ      0.049500
     10 CAJ         9.7700   -0.8600    5.1310 ca        1 OYQ      0.049500
     11 CAK         1.3070    0.2600    0.1480 c3        1 OYQ     -0.076400
     12 CAM         3.4690    0.2790    1.3760 c3        1 OYQ     -0.075400
     13 NAN         6.4640   -0.4180    3.5890 n         1 OYQ     -0.459100
     14 CAO         5.6920   -0.0560    2.4500 c         1 OYQ      0.671100
     15 CAP         7.8280   -0.4110    3.7200 ca        1 OYQ      0.230600
     16 CAQ        10.6680   -0.4310    4.1180 ca        1 OYQ     -0.648500
     17 CAR         1.9600    0.1370    1.5210 c3        1 OYQ     -0.065700
     18 SAS        12.2170   -0.3590    4.3610 sy        1 OYQ      1.515200
     19 HAA        -0.1290   -1.3410    0.4510 hc        1 OYQ      0.039367
     20 HAAA       -0.7610    0.3150    0.8180 hc        1 OYQ      0.039367
     21 HAB         1.8070    1.0190    3.5060 hc        1 OYQ      0.038700
     22 HABA        0.2890    1.0930    2.5260 hc        1 OYQ      0.038700
     23 HABB        1.6670    2.2030    2.1400 hc        1 OYQ      0.038700
     24 HNAC       13.1220   -2.6870    4.3900 hn        1 OYQ      0.447467
     25 HNAA       13.3360   -2.0400    2.8930 hn        1 OYQ      0.447467
     26 HAG         8.3290    0.3880    1.7280 ha        1 OYQ      0.186500
     27 HAH         7.7590   -1.1920    5.7800 ha        1 OYQ      0.186500
     28 HAI        10.7470    0.3870    2.1000 ha        1 OYQ      0.166000
     29 HAJ        10.1880   -1.1910    6.1020 ha        1 OYQ      0.166000
     30 HAK         1.3120    1.3360   -0.1670 hc        1 OYQ      0.044700
     31 HAL         3.9080    0.5900    3.4820 hc        1 OYQ      0.082200
     32 HALA        3.8960   -1.1510    2.9540 hc        1 OYQ      0.082200
     33 HAM         3.7270    1.3360    1.1050 hc        1 OYQ      0.063700
     34 HAMA        3.8320   -0.3740    0.5380 hc        1 OYQ      0.063700
     35 HNAN        5.9420   -0.7080    4.3930 hn        1 OYQ      0.337500
     36 HAR         1.7340   -0.8890    1.9300 hc        1 OYQ      0.047700
     37 H19        -0.5250   -0.2010   -0.9000 hc        1 OYQ      0.039367
     38 H20         1.9170   -0.3090   -0.6030 hc        1 OYQ      0.044700
     39 HAC3       11.8650   -2.6320    3.3300 hn        1 OYQ      0.447467
     40 CAL         4.1920   -0.1110    2.6500 c3        1 OYQ     -0.148400
@<TRIPOS>BOND
     1    1   11 1   
     2    1   19 1   
     3    1   20 1   
     4    1   37 1   
     5    2   17 1   
     6    2   21 1   
     7    2   22 1   
     8    2   23 1   
     9    3   18 1   
    10    3   24 1   
    11    3   25 1   
    12    3   39 1   
    13    4   14 2   
    14    5   18 2   
    15    6   18 2   
    16    7    9 ar  
    17    7   15 ar  
    18    7   26 1   
    19    8   10 ar  
    20    8   15 ar  
    21    8   27 1   
    22    9   16 ar  
    23    9   28 1   
    24   10   16 ar  
    25   10   29 1   
    26   11   17 1   
    27   11   30 1   
    28   11   38 1   
    29   12   17 1   
    30   12   33 1   
    31   12   34 1   
    32   12   40 1   
    33   13   14 1   
    34   13   15 1   
    35   13   35 1   
    36   14   40 1   
    37   16   18 1   
    38   17   36 1   
    39   31   40 1   
    40   32   40 1   
@<TRIPOS>SUBSTRUCTURE
     1 OYQ         1 TEMP              0 ****  ****    0 ROOT
