@<TRIPOS>MOLECULE
OYQ
   40    40     1     0     0
SMALL
bcc


@<TRIPOS>ATOM
      1 CAA         0.0800    0.1290   -0.0980 c3        1 OYQ     -0.095100
      2 CAB         1.4290    1.1330    2.5490 c3        1 OYQ     -0.095100
      3 NAC        12.5640    0.4060    5.3070 nz        1 OYQ     -0.780500
      4 OAD         6.3300    0.3770    1.6290 o         1 OYQ     -0.526100
      5 OAE        12.4570   -2.1320    5.6200 o         1 OYQ     -0.578800
      6 OAF        12.9080   -1.2800    3.4170 o         1 OYQ     -0.578800
      7 CAG         8.7310   -0.3940    2.8790 ca        1 OYQ     -0.218000
      8 CAH         8.2690   -1.3310    5.0900 ca        1 OYQ     -0.218000
      9 CAI        10.0730   -0.5550    3.1150 ca        1 OYQ      0.049500
     10 CAJ         9.6160   -1.4750    5.2990 ca        1 OYQ      0.049500
     11 CAK         1.4850    0.6360    0.0970 c3        1 OYQ     -0.076400
     12 CAM         3.5640    0.4250    1.4450 c3        1 OYQ     -0.075400
     13 NAN         6.4140   -0.6590    3.6940 ns        1 OYQ     -0.459100
     14 CAO         5.7150   -0.1140    2.5800 c         1 OYQ      0.671100
     15 CAP         7.7680   -0.7800    3.8630 ca        1 OYQ      0.230600
     16 CAQ        10.5800   -1.0920    4.3290 ca        1 OYQ     -0.648500
     17 CAR         2.0490    0.2730    1.4670 c3        1 OYQ     -0.065700
     18 SAS        12.1160   -1.3400    4.5430 sy        1 OYQ      1.515200
     19 HAA         0.0360   -0.9800    0.0300 hc        1 OYQ      0.039033
     20 HAAA       -0.2750    0.3780   -1.1280 hc        1 OYQ      0.039033
     21 HAB         1.7110    2.2050    2.4120 hc        1 OYQ      0.038033
     22 HABA        0.3160    1.0550    2.5140 hc        1 OYQ      0.038033
     23 HABB        1.7690    0.8020    3.5600 hc        1 OYQ      0.038033
     24 HNAC       11.7550    1.0130    5.3700 hn        1 OYQ      0.447467
     25 HNAA       13.2640    0.8680    4.7320 hn        1 OYQ      0.447467
     26 HAG         8.4000    0.0280    1.9110 ha        1 OYQ      0.186500
     27 HAH         7.5650   -1.6540    5.8750 ha        1 OYQ      0.186500
     28 HAI        10.7930   -0.2730    2.3210 ha        1 OYQ      0.166000
     29 HAJ         9.9710   -1.9220    6.2480 ha        1 OYQ      0.166000
     30 HAK         1.5080    1.7500   -0.0280 hc        1 OYQ      0.045200
     31 HAL         3.8930   -1.2590    2.7760 hc        1 OYQ      0.082200
     32 HALA        3.8680    0.3640    3.5950 hc        1 OYQ      0.082200
     33 HAM         3.8370    1.5110    1.3770 hc        1 OYQ      0.064200
     34 HAMA        3.9810   -0.0770    0.5300 hc        1 OYQ      0.064200
     35 HNAN        5.8410   -1.0020    4.4400 hn        1 OYQ      0.337500
     36 HAR         1.8000   -0.8050    1.6770 hc        1 OYQ      0.048700
     37 H19        -0.6220    0.5950    0.6340 hc        1 OYQ      0.039033
     38 H20         2.1430    0.1990   -0.7010 hc        1 OYQ      0.045200
     39 HAC3       12.9500    0.2910    6.2400 hn        1 OYQ      0.447467
     40 CAL         4.2060   -0.1840    2.6750 c3        1 OYQ     -0.148400
@<TRIPOS>BOND
     1    1   11 1   
     2    1   19 1   
     3    1   20 1   
     4    1   37 1   
     5    2   17 1   
     6    2   21 1   
     7    2   22 1   
     8    2   23 1   
     9    3   18 1   
    10    3   24 1   
    11    3   25 1   
    12    3   39 1   
    13    4   14 2   
    14    5   18 2   
    15    6   18 2   
    16    7    9 ar  
    17    7   15 ar  
    18    7   26 1   
    19    8   10 ar  
    20    8   15 ar  
    21    8   27 1   
    22    9   16 ar  
    23    9   28 1   
    24   10   16 ar  
    25   10   29 1   
    26   11   17 1   
    27   11   30 1   
    28   11   38 1   
    29   12   17 1   
    30   12   33 1   
    31   12   34 1   
    32   12   40 1   
    33   13   14 1   
    34   13   15 1   
    35   13   35 1   
    36   14   40 1   
    37   16   18 1   
    38   17   36 1   
    39   31   40 1   
    40   32   40 1   
@<TRIPOS>SUBSTRUCTURE
     1 OYQ         1 TEMP              0 ****  ****    0 ROOT
