@<TRIPOS>MOLECULE
OYQ
   39    39     1     0     0
SMALL
bcc


@<TRIPOS>ATOM
      1 CAA         8.0680    0.6150    0.6640 c3        1 OYQ     -0.093100
      2 CAB         6.1040   -0.8450   -1.2870 c3        1 OYQ     -0.092100
      3 NAC        -5.4140    0.1510   -1.3760 n3        1 OYQ     -1.026700
      4 OAD         1.6880    1.2540   -0.1160 o         1 OYQ     -0.571100
      5 OAE        -5.2710    1.1800    0.8490 o         1 OYQ     -0.661800
      6 OAF        -5.6010   -1.2060    0.6640 o         1 OYQ     -0.661800
      7 CAG        -1.0820    0.6610    0.0890 ca        1 OYQ     -0.206500
      8 CAH        -1.4230   -1.7480    0.0380 ca        1 OYQ     -0.206500
      9 CAI        -2.4590    0.8310    0.1210 ca        1 OYQ      0.013000
     10 CAJ        -2.7920   -1.5440    0.0690 ca        1 OYQ      0.013000
     11 CAK         6.7300    1.0950    0.1640 c3        1 OYQ     -0.077400
     12 CAM         4.3310    0.5150   -0.1560 c3        1 OYQ     -0.073400
     13 NAN         0.8400   -0.8960    0.0090 n         1 OYQ     -0.479100
     14 CAO         1.8840    0.0300   -0.0580 c         1 OYQ      0.666100
     15 CAP        -0.5320   -0.6410    0.0420 ca        1 OYQ      0.139600
     16 CAQ        -3.3410   -0.2550    0.1040 ca        1 OYQ     -0.428500
     17 CAR         5.7430   -0.0470   -0.0520 c3        1 OYQ     -0.065700
     18 SAS        -5.0050   -0.0260    0.1650 sy        1 OYQ      1.533200
     19 HAA         7.9530    0.0440    1.6170 hc        1 OYQ      0.034033
     20 HAAA        8.5620   -0.0500   -0.0850 hc        1 OYQ      0.034033
     21 HAB         5.4250   -1.7250   -1.4000 hc        1 OYQ      0.034367
     22 HABA        6.0180   -0.2130   -2.2040 hc        1 OYQ      0.034367
     23 HABB        7.1530   -1.2210   -1.2150 hc        1 OYQ      0.034367
     24 HNAC       -5.4550    1.0260   -1.8330 hn        1 OYQ      0.445300
     25 HNAA       -5.6730   -0.6000   -1.9640 hn        1 OYQ      0.445300
     26 HAG        -0.4290    1.5490    0.1050 ha        1 OYQ      0.158000
     27 HAH        -1.0350   -2.7770    0.0150 ha        1 OYQ      0.158000
     28 HAI        -2.8710    1.8550    0.1820 ha        1 OYQ      0.153500
     29 HAJ        -3.4710   -2.4160    0.0840 ha        1 OYQ      0.153500
     30 HAK         6.3010    1.8170    0.9090 hc        1 OYQ      0.043200
     31 HAL         3.3780   -1.2770   -0.9250 hc        1 OYQ      0.067700
     32 HALA        3.4270   -1.1590    0.8870 hc        1 OYQ      0.067700
     33 HAM         4.2110    1.0680   -1.1240 hc        1 OYQ      0.061200
     34 HAMA        4.1580    1.2600    0.6670 hc        1 OYQ      0.061200
     35 HNAN        1.0990   -1.8590    0.0330 hn        1 OYQ      0.318500
     36 HAR         5.7910   -0.7300    0.8430 hc        1 OYQ      0.045700
     37 H19         8.7400    1.4860    0.8550 hc        1 OYQ      0.034033
     38 H20         6.8630    1.6540   -0.7990 hc        1 OYQ      0.043200
     39 CAL         3.2810   -0.5710   -0.0580 c3        1 OYQ     -0.152400
@<TRIPOS>BOND
     1    1   11 1   
     2    1   19 1   
     3    1   20 1   
     4    1   37 1   
     5    2   17 1   
     6    2   21 1   
     7    2   22 1   
     8    2   23 1   
     9    3   18 1   
    10    3   24 1   
    11    3   25 1   
    12    4   14 2   
    13    5   18 2   
    14    6   18 2   
    15    7    9 ar  
    16    7   15 ar  
    17    7   26 1   
    18    8   10 ar  
    19    8   15 ar  
    20    8   27 1   
    21    9   16 ar  
    22    9   28 1   
    23   10   16 ar  
    24   10   29 1   
    25   11   17 1   
    26   11   30 1   
    27   11   38 1   
    28   12   17 1   
    29   12   33 1   
    30   12   34 1   
    31   12   39 1   
    32   13   14 1   
    33   13   15 1   
    34   13   35 1   
    35   14   39 1   
    36   16   18 1   
    37   17   36 1   
    38   31   39 1   
    39   32   39 1   
@<TRIPOS>SUBSTRUCTURE
     1 OYQ         1 TEMP              0 ****  ****    0 ROOT
