@<TRIPOS>MOLECULE
OYQ
   41    41     1     0     0
SMALL
bcc


@<TRIPOS>ATOM
      1 CAA         0.4470    0.8100   -0.0740 c3        1 OYQ     -0.100100
      2 CAB         1.2760    0.1340    2.8910 c3        1 OYQ     -0.106100
      3 NAC        12.3950   -2.2750    4.1550 n4        1 OYQ     -0.801500
      4 OAD         6.1580   -2.2710    3.0790 o         1 OYQ     -0.387100
      5 OAE        12.4800    0.0120    5.2360 o         1 OYQ     -0.531800
      6 OAF        12.8540   -0.1670    2.8320 o         1 OYQ     -0.531800
      7 CAG         8.6200   -0.2660    2.1810 ca        1 OYQ     -0.117500
      8 CAH         8.2470   -0.0790    4.5840 ca        1 OYQ     -0.117500
      9 CAI         9.9850   -0.4110    2.4170 ca        1 OYQ      0.028000
     10 CAJ         9.6160   -0.2260    4.7940 ca        1 OYQ      0.028000
     11 CAK         1.7540    1.0870    0.6250 c3        1 OYQ     -0.076400
     12 CAM         3.6000    0.0770    1.9520 c3        1 OYQ     -0.097400
     13 NAN         6.3110    0.0700    3.0340 n4        1 OYQ     -0.590200
     14 CAO         5.5020   -1.2540    2.9810 c         1 OYQ      0.565100
     15 CAP         7.7450   -0.0960    3.2690 ca        1 OYQ      0.082600
     16 CAQ        10.5110   -0.3940    3.7220 ca        1 OYQ     -0.466500
     17 CAR         2.1070   -0.0010    1.6340 c3        1 OYQ     -0.061700
     18 SAS        12.1360   -0.4160    3.9760 sy        1 OYQ      1.463200
     19 HAA         0.4800   -0.1700   -0.6080 hc        1 OYQ      0.051367
     20 HAAA       -0.4010    0.7870    0.6520 hc        1 OYQ      0.051367
     21 HAB         1.4420   -0.7320    3.5760 hc        1 OYQ      0.050033
     22 HABA        1.5220    1.0780    3.4350 hc        1 OYQ      0.050033
     23 HABB        0.1890    0.1590    2.6270 hc        1 OYQ      0.050033
     24 HNAC       13.0550   -2.6130    3.4480 hn        1 OYQ      0.472133
     25 HNAA       11.5460   -2.8270    4.0630 hn        1 OYQ      0.472133
     26 HAG         8.2540   -0.2820    1.1380 ha        1 OYQ      0.190500
     27 HAH         7.5840    0.0570    5.4580 ha        1 OYQ      0.190500
     28 HAI        10.6670   -0.5150    1.5470 ha        1 OYQ      0.199000
     29 HAJ        10.0010   -0.1800    5.8350 ha        1 OYQ      0.199000
     30 HAK         2.5680    1.1600   -0.1450 hc        1 OYQ      0.043200
     31 HAL         3.6230   -2.0470    2.4230 hc        1 OYQ      0.139700
     32 HALA        3.5910   -0.9530    3.8740 hc        1 OYQ      0.139700
     33 HAM         4.1710    0.0460    0.9850 hc        1 OYQ      0.046200
     34 HAMA        3.8030    1.0610    2.4530 hc        1 OYQ      0.046200
     35 HNAN        6.1650    0.5540    2.1350 hn        1 OYQ      0.477300
     36 HAR         1.8960   -1.0040    1.1640 hc        1 OYQ      0.069700
     37 H19         0.2410    1.6130   -0.8240 hc        1 OYQ      0.051367
     38 H20         1.7000    2.0770    1.1500 hc        1 OYQ      0.043200
     39 HAC3       12.8020   -2.4930    5.0690 hn        1 OYQ      0.472133
     40 HAN2        5.9060    0.6550    3.7770 hn        1 OYQ      0.477300
     41 CAL         4.0230   -1.0730    2.8380 c3        1 OYQ     -0.162400
@<TRIPOS>BOND
     1    1   11 1   
     2    1   19 1   
     3    1   20 1   
     4    1   37 1   
     5    2   17 1   
     6    2   21 1   
     7    2   22 1   
     8    2   23 1   
     9    3   18 1   
    10    3   24 1   
    11    3   25 1   
    12    3   39 1   
    13    4   14 2   
    14    5   18 2   
    15    6   18 2   
    16    7    9 ar  
    17    7   15 ar  
    18    7   26 1   
    19    8   10 ar  
    20    8   15 ar  
    21    8   27 1   
    22    9   16 ar  
    23    9   28 1   
    24   10   16 ar  
    25   10   29 1   
    26   11   17 1   
    27   11   30 1   
    28   11   38 1   
    29   12   17 1   
    30   12   33 1   
    31   12   34 1   
    32   12   41 1   
    33   13   14 1   
    34   13   15 1   
    35   13   35 1   
    36   13   40 1   
    37   14   41 1   
    38   16   18 1   
    39   17   36 1   
    40   31   41 1   
    41   32   41 1   
@<TRIPOS>SUBSTRUCTURE
     1 OYQ         1 TEMP              0 ****  ****    0 ROOT
