@<TRIPOS>MOLECULE
OYS
   35    33     1     0     0
SMALL
bcc


@<TRIPOS>ATOM
      1 NAA         1.4030    0.5140    0.1170 n3        1 OYS     -0.955000
      2 OAB         2.4040    5.7560    0.6020 o         1 OYS     -0.222000
      3 OAC         1.4100    0.8790   -2.3340 o         1 OYS     -0.983000
      4 OAD         2.0390    2.6620   -0.9210 o         1 OYS     -0.983000
      5 CAE         6.7850    9.5490   -1.3650 c1        1 OYS     -0.035000
      6 CAF         6.7750    8.1760   -0.8840 c3        1 OYS     -0.190000
      7 CAG         6.3360   10.6420   -0.5920 c2        1 OYS     -0.548000
      8 CAH         5.9900    7.8590    0.3340 c2        1 OYS     -0.134000
      9 CAI         6.4050   11.8840   -1.0700 c1        1 OYS      0.416000
     10 CAJ         5.4070    0.4970    0.6990 c2        1 OYS     -0.188000
     11 CAK         0.2960    4.3640   -2.6920 c1        1 OYS     -0.310000
     12 CAL         4.5080    0.6160   -0.2250 c1        1 OYS      0.052000
     13 CAM        -0.3720    3.9590   -3.6060 c1        1 OYS      0.086000
     14 CAN         4.3180    6.4010   -0.7940 c3        1 OYS     -0.136000
     15 CAP         2.9390    5.8700   -0.4960 c2        1 OYS      0.319000
     16 CAQ         4.9050    7.0820    0.3880 c2        1 OYS     -0.209000
     17 CAR         1.0440    4.7680   -1.5790 c2        1 OYS      0.384000
     18 CAS         3.6260    0.7160   -1.1800 c2        1 OYS     -0.917000
     19 SAT         2.0540    1.2420   -1.1340 s6        1 OYS      2.898000
     20 HNAA       -0.9680    3.5970   -4.4170 ha        1 OYS      0.267000
     21 HNAB        1.4260    0.8640    1.0440 hn        1 OYS      0.260000
     22 HAG         5.9260   10.5050    0.4340 ha        1 OYS      0.172000
     23 HAH         6.3660    8.3230    1.2640 ha        1 OYS      0.142000
     24 HAI         4.3910    6.9000    1.3480 ha        1 OYS      0.155000
     25 HAJ         6.0990    1.3140    0.9620 ha        1 OYS      0.177500
     26 HAK         0.6580    4.5180   -0.5550 h4        1 OYS      0.238000
     27 HAL         5.5330   -0.4330    1.2790 ha        1 OYS      0.177500
     28 HAM         3.9630    0.3970   -2.1960 h4        1 OYS      0.215000
     29 HAN         4.9640    5.5260   -1.0920 hc        1 OYS      0.136000
     30 HANA        4.2750    7.1110   -1.6680 hc        1 OYS      0.136000
     31 HAE         6.4610    7.5260   -1.7510 hc        1 OYS      0.139500
     32 HAA3        0.9240   -0.3530    0.0560 hn        1 OYS      0.260000
     33 NAO         2.1750    5.4500   -1.6680 n         1 OYS     -0.225000
     34 HAF         7.8670    7.9300   -0.6960 hc        1 OYS      0.139500
     35 HNAO        2.5840    5.6480   -2.5650 hn        1 OYS      0.268000
@<TRIPOS>BOND
     1    1   19 1   
     2    1   21 1   
     3    1   32 1   
     4    2   15 1   
     5    3   19 1   
     6    4   19 1   
     7    5    6 1   
     8    5    7 1   
     9    6    8 1   
    10    6   31 1   
    11    6   34 1   
    12    7    9 1   
    13    7   22 1   
    14    8   16 1   
    15    8   23 1   
    16   10   12 1   
    17   10   25 1   
    18   10   27 1   
    19   11   13 1   
    20   11   17 1   
    21   12   18 1   
    22   13   20 1   
    23   14   15 1   
    24   14   16 1   
    25   14   29 1   
    26   14   30 1   
    27   15   33 1   
    28   16   24 1   
    29   17   26 1   
    30   17   33 1   
    31   18   19 1   
    32   18   28 1   
    33   33   35 1   
@<TRIPOS>SUBSTRUCTURE
     1 OYS         1 TEMP              0 ****  ****    0 ROOT
