@<TRIPOS>MOLECULE
OYS
   35    33     1     0     0
SMALL
bcc


@<TRIPOS>ATOM
      1 NAA        -0.0080    0.7760    0.4070 n8        1 OYS     -0.954000
      2 OAB         4.7740    5.2060    0.0580 o         1 OYS     -0.210000
      3 OAC         0.6710    1.0490   -1.9660 o         1 OYS     -0.985000
      4 OAD         2.0920    1.8760   -0.2830 o         1 OYS     -0.985000
      5 CAE         5.9510   11.1550   -1.1980 c1        1 OYS      0.003000
      6 CAF         6.5970    9.8790   -1.3880 c3        1 OYS     -0.149000
      7 CAG         5.5490   11.7800   -0.0770 c1        1 OYS     -0.194000
      8 CAH         6.6010    8.9390   -0.2390 c2        1 OYS     -0.130000
      9 CAI         5.1410   12.4900    0.8230 c1        1 OYS     -0.104000
     10 CAJ         3.1240   -1.8230    1.3720 c2        1 OYS     -0.187000
     11 CAK         2.2060    3.6640   -2.8090 c1        1 OYS     -0.351000
     12 CAL         2.5110   -1.2180    0.4040 c1        1 OYS      0.059000
     13 CAM         1.4280    3.0990   -3.5370 c1        1 OYS      0.147000
     14 CAN         5.4220    7.0760   -1.3980 c3        1 OYS     -0.136000
     15 CAP         4.6900    5.8200   -1.0000 c2        1 OYS      0.306000
     16 CAQ         6.0860    7.7070   -0.2290 c2        1 OYS     -0.210000
     17 CAR         3.0680    4.1870   -1.8480 c2        1 OYS      0.330000
     18 CAS         1.9040   -0.6340   -0.5920 c2        1 OYS     -0.920000
     19 SAT         1.1730    0.8520   -0.6520 s6        1 OYS      2.894000
     20 HNAA        0.7280    2.5610   -4.1450 ha        1 OYS      0.277000
     21 HNAB        0.0650    1.1050    1.3390 hn        1 OYS      0.258000
     22 HAG         4.7790   13.1280    1.5910 ha        1 OYS      0.237000
     23 HAH         7.0760    9.3340    0.6790 ha        1 OYS      0.151000
     24 HAI         6.1460    7.0840    0.6810 ha        1 OYS      0.158000
     25 HAJ         4.2000   -1.6820    1.5660 ha        1 OYS      0.178000
     26 HAK         3.1390    3.6280   -0.8620 h4        1 OYS      0.278000
     27 HAL         2.6040   -2.5120    2.0580 ha        1 OYS      0.178000
     28 HAM         1.8820   -1.1960   -1.5550 h4        1 OYS      0.211000
     29 HAN         6.1940    6.7950   -2.1710 hc        1 OYS      0.136000
     30 HANA        4.7030    7.8010   -1.8740 hc        1 OYS      0.136000
     31 HAE         6.1510    9.4050   -2.3090 hc        1 OYS      0.145000
     32 HAA3       -0.9010    0.3920    0.2120 hn        1 OYS      0.258000
     33 NAO         3.7920    5.2820   -2.0220 ns        1 OYS     -0.241000
     34 HAF         7.6700   10.1350   -1.6610 hc        1 OYS      0.145000
     35 HNAO        3.7430    5.7950   -2.8850 hn        1 OYS      0.267000
@<TRIPOS>BOND
     1    1   19 1   
     2    1   21 1   
     3    1   32 1   
     4    2   15 1   
     5    3   19 1   
     6    4   19 1   
     7    5    6 1   
     8    5    7 1   
     9    6    8 1   
    10    6   31 1   
    11    6   34 1   
    12    7    9 1   
    13    8   16 1   
    14    8   23 1   
    15    9   22 1   
    16   10   12 1   
    17   10   25 1   
    18   10   27 1   
    19   11   13 1   
    20   11   17 1   
    21   12   18 1   
    22   13   20 1   
    23   14   15 1   
    24   14   16 1   
    25   14   29 1   
    26   14   30 1   
    27   15   33 1   
    28   16   24 1   
    29   17   26 1   
    30   17   33 1   
    31   18   19 1   
    32   18   28 1   
    33   33   35 1   
@<TRIPOS>SUBSTRUCTURE
     1 OYS         1 TEMP              0 ****  ****    0 ROOT
