@<TRIPOS>MOLECULE
OYS
   34    35     1     0     0
SMALL
bcc


@<TRIPOS>ATOM
      1 NAA        -5.1640    0.9220    0.1640 n3        1 OYS     -1.026700
      2 OAB         1.6130    0.3860    2.9360 o         1 OYS     -0.577100
      3 OAC        -4.8830   -1.3840    0.9620 o         1 OYS     -0.662300
      4 OAD        -4.6560   -0.9080   -1.3960 o         1 OYS     -0.662300
      5 CAE         5.3930   -0.7060   -1.8450 ca        1 OYS     -0.120000
      6 CAF         4.8850    0.5930   -1.8800 ca        1 OYS     -0.124500
      7 CAG         5.2960   -1.4580   -0.6740 ca        1 OYS     -0.124500
      8 CAH         4.2780    1.1370   -0.7500 ca        1 OYS     -0.125500
      9 CAI         4.6920   -0.9150    0.4590 ca        1 OYS     -0.125500
     10 CAJ        -0.8940    0.0420    1.6350 ca        1 OYS     -0.206000
     11 CAK        -0.6480    0.3880   -0.7610 ca        1 OYS     -0.206000
     12 CAL        -2.2430   -0.2140    1.4350 ca        1 OYS      0.012500
     13 CAM        -1.9990    0.1300   -0.9260 ca        1 OYS      0.012500
     14 CAN         3.5490    0.9710    1.6400 c3        1 OYS     -0.112100
     15 CAP         2.0750    0.6250    1.8070 c         1 OYS      0.670100
     16 CAQ         4.1760    0.3860    0.4270 ca        1 OYS     -0.105300
     17 CAR        -0.0640    0.3560    0.5340 ca        1 OYS      0.139600
     18 CAS        -2.8270   -0.1690    0.1640 ca        1 OYS     -0.428500
     19 SAT        -4.4590   -0.5020   -0.0560 sy        1 OYS      1.533200
     20 HNAA       -5.3330    1.5670   -0.5640 hn        1 OYS      0.445300
     21 HNAB       -5.4950    1.2370    1.0400 hn        1 OYS      0.445300
     22 HAF         4.9650    1.1900   -2.8010 ha        1 OYS      0.138000
     23 HAG         5.6980   -2.4820   -0.6420 ha        1 OYS      0.138000
     24 HAH         3.8900    2.1670   -0.7790 ha        1 OYS      0.137000
     25 HAI         4.6210   -1.5100    1.3830 ha        1 OYS      0.137000
     26 HAJ        -0.4810   -0.0080    2.6560 ha        1 OYS      0.158500
     27 HAK        -0.0330    0.6130   -1.6460 ha        1 OYS      0.158500
     28 HAL        -2.8720   -0.4810    2.3050 ha        1 OYS      0.153500
     29 HAM        -2.4330    0.1410   -1.9420 ha        1 OYS      0.153500
     30 HAN         3.6300    2.0920    1.6240 hc        1 OYS      0.088200
     31 HANA        4.0770    0.6060    2.5640 hc        1 OYS      0.088200
     32 NAO         1.2980    0.6410    0.6520 n         1 OYS     -0.469100
     33 HAE         5.8710   -1.1350   -2.7370 ha        1 OYS      0.138000
     34 HNAO        1.7840    0.7960   -0.2070 hn        1 OYS      0.328500
@<TRIPOS>BOND
     1    1   19 1   
     2    1   20 1   
     3    1   21 1   
     4    2   15 2   
     5    3   19 2   
     6    4   19 2   
     7    5    6 ar  
     8    5    7 ar  
     9    5   33 1   
    10    6    8 ar  
    11    6   22 1   
    12    7    9 ar  
    13    7   23 1   
    14    8   16 ar  
    15    8   24 1   
    16    9   16 ar  
    17    9   25 1   
    18   10   12 ar  
    19   10   17 ar  
    20   10   26 1   
    21   11   13 ar  
    22   11   17 ar  
    23   11   27 1   
    24   12   18 ar  
    25   12   28 1   
    26   13   18 ar  
    27   13   29 1   
    28   14   15 1   
    29   14   16 1   
    30   14   30 1   
    31   14   31 1   
    32   15   32 1   
    33   17   32 1   
    34   18   19 1   
    35   32   34 1   
@<TRIPOS>SUBSTRUCTURE
     1 OYS         1 TEMP              0 ****  ****    0 ROOT
