@<TRIPOS>MOLECULE
OYS
   36    35     1     0     0
SMALL
bcc


@<TRIPOS>ATOM
      1 NAA        -1.3980    1.4110   -0.5340 n4        1 OYS     -0.501000
      2 OAB         3.5030    4.8490   -0.4260 o         1 OYS     -0.277000
      3 OAC         0.7510    2.3380    0.5370 o         1 OYS     -0.865000
      4 OAD         0.2310    0.0220    0.8510 o         1 OYS     -0.865000
      5 CAE         7.0240    9.5410    1.7540 c1        1 OYS      0.038000
      6 CAF         5.8570    8.8990    1.3350 c3        1 OYS     -0.103000
      7 CAG         8.2750   10.0190    1.7040 c2        1 OYS     -0.097000
      8 CAH         5.8840    8.1560    0.0500 c2        1 OYS     -0.225000
      9 CAI         9.4430    9.5760    2.1240 c1        1 OYS      0.079000
     10 CAJ         2.5070    2.6660   -1.9660 c2        1 OYS     -0.359000
     11 CAK         3.6740    2.6100   -4.1460 c2        1 OYS     -0.577000
     12 CAL         1.9100    1.4140   -2.2200 c2        1 OYS      0.241000
     13 CAM         4.8220    2.1890   -4.6550 c1        1 OYS      0.370000
     14 CAN         5.0610    6.3880   -1.4740 c3        1 OYS     -0.165000
     15 CAP         4.1590    5.1630   -1.4240 c2        1 OYS      0.311000
     16 CAQ         5.0870    7.1050   -0.1740 c2        1 OYS     -0.099000
     17 CAR         3.4140    3.2390   -2.8480 c2        1 OYS      0.313000
     18 CAS         1.0380    0.7550   -1.3840 c2        1 OYS     -1.229000
     19 SAT         0.4590    1.0930    0.0160 s6        1 OYS      2.866000
     20 HNAA       -1.5280    1.2940   -1.5320 hn        1 OYS      0.241667
     21 HNAB       -2.0140    0.7580   -0.0560 hn        1 OYS      0.241667
     22 HAG         8.3440   11.0790    1.2700 ha        1 OYS      0.320000
     23 HAH         6.5740    8.5380   -0.7200 ha        1 OYS      0.145000
     24 HAI         4.3940    6.7230    0.6000 ha        1 OYS      0.169000
     25 HAJ         2.2650    3.1820   -1.0140 ha        1 OYS      0.207000
     26 HAK         2.7700    2.4690   -4.7870 ha        1 OYS      0.236000
     27 HAL         2.1880    0.8930   -3.1630 ha        1 OYS      0.148000
     28 HAM         0.7780   -0.2590   -1.7790 h4        1 OYS      0.222000
     29 HAN         6.1040    6.0700   -1.7570 hc        1 OYS      0.140500
     30 HANA        4.6840    7.0820   -2.2770 hc        1 OYS      0.140500
     31 HAE         5.5100    8.2380    2.2040 hc        1 OYS      0.226500
     32 HAA3       -1.6830    2.3530   -0.2830 hn        1 OYS      0.241667
     33 NAO         4.1240    4.3970   -2.6110 n         1 OYS     -0.315000
     34 HAF         5.0410    9.7090    1.3040 hc        1 OYS      0.226500
     35 HNAO       10.3400    9.3360    2.6660 ha        1 OYS      0.296000
     36 HAO2        4.6810    4.7360   -3.3720 hn        1 OYS      0.257000
@<TRIPOS>BOND
     1    1   19 1   
     2    1   20 1   
     3    1   21 1   
     4    1   32 1   
     5    2   15 1   
     6    3   19 1   
     7    4   19 1   
     8    5    6 1   
     9    5    7 1   
    10    6    8 1   
    11    6   31 1   
    12    6   34 1   
    13    7    9 1   
    14    7   22 1   
    15    8   16 1   
    16    8   23 1   
    17    9   35 1   
    18   10   12 1   
    19   10   17 1   
    20   10   25 1   
    21   11   13 1   
    22   11   17 1   
    23   11   26 1   
    24   12   18 1   
    25   12   27 1   
    26   14   15 1   
    27   14   16 1   
    28   14   29 1   
    29   14   30 1   
    30   15   33 1   
    31   16   24 1   
    32   17   33 1   
    33   18   19 1   
    34   18   28 1   
    35   33   36 1   
@<TRIPOS>SUBSTRUCTURE
     1 OYS         1 TEMP              0 ****  ****    0 ROOT
