@<TRIPOS>MOLECULE
OYS
   34    29     1     0     0
SMALL
bcc


@<TRIPOS>ATOM
      1 NAA        -2.5960    4.3600    3.6070 n3        1 OYS     -1.026700
      2 OAB         0.1340   -1.0300    0.2340 o         1 OYS     -0.578100
      3 OAC        -1.3450    5.9980    2.1150 o         1 OYS     -0.662300
      4 OAD        -3.3800    5.4280    1.4340 o         1 OYS     -0.662300
      5 CAE         2.1990   -5.6000   -0.7740 c1        1 OYS     -0.053000
      6 CAF         2.9940   -4.5260   -0.4080 c1        1 OYS     -0.053000
      7 CAG         0.9400   -5.3790   -1.3100 c1        1 OYS     -0.053000
      8 CAH         2.5310   -3.2300   -0.5770 c1        1 OYS     -0.053000
      9 CAI         0.4760   -4.0830   -1.4790 c1        1 OYS     -0.079500
     10 CAJ        -1.7470    1.9110   -0.6130 c1        1 OYS     -0.161500
     11 CAK         0.3550    2.2050    0.5080 c1        1 OYS     -0.053000
     12 CAL        -2.3100    2.8950    0.1860 c1        1 OYS      0.069500
     13 CAM        -0.2090    3.1890    1.3060 c1        1 OYS     -0.053000
     14 CAN         1.1120   -1.6820   -1.8200 c3        1 OYS     -0.146300
     15 NAO         0.1850    0.6300   -1.3320 n         1 OYS     -0.482700
     16 CAP         0.4340   -0.6960   -0.8950 c         1 OYS      0.670100
     17 CAQ         1.2720   -3.0090   -1.1120 c1        1 OYS     -0.070100
     18 CAR        -0.4150    1.5660   -0.4510 c1        1 OYS      0.152200
     19 CAS        -1.5410    3.5330    1.1450 c1        1 OYS     -0.471200
     20 SAT        -2.2300    4.8670    2.0880 s6        1 OYS      1.575900
     21 HNAA       -3.4250    4.0190    3.7880 hn        1 OYS      0.445300
     22 HNAB       -1.9720    4.4220    4.2720 hn        1 OYS      0.445300
     23 HAE         2.5250   -6.5120   -0.6550 ha        1 OYS      0.090333
     24 HAF         3.8810   -4.6810   -0.0310 ha        1 OYS      0.090333
     25 HAG         0.3790   -6.1350   -1.5680 ha        1 OYS      0.090333
     26 HAH         3.0910   -2.4740   -0.3190 ha        1 OYS      0.090333
     27 HAI        -0.4100   -3.9280   -1.8560 ha        1 OYS      0.075500
     28 HAJ        -2.2900    1.4610   -1.2880 ha        1 OYS      0.079500
     29 HAK         1.2930    1.9630    0.6220 ha        1 OYS      0.090333
     30 HAL        -3.2490    3.1370    0.0720 ha        1 OYS      0.096500
     31 HAM         0.3340    3.6390    1.9820 ha        1 OYS      0.090333
     32 HAN         0.5670   -1.8040   -2.6220 hc        1 OYS      0.089200
     33 HANA        1.9930   -1.3390   -2.0720 hc        1 OYS      0.089200
     34 HNAO        0.4240    0.8850   -2.1750 hn        1 OYS      0.328500
@<TRIPOS>BOND
     1    1   20 1   
     2    1   21 1   
     3    1   22 1   
     4    2   16 2   
     5    3   20 2   
     6    4   20 2   
     7    5    7 3   
     8    5   23 1   
     9    6    8 3   
    10    6   24 1   
    11    7   25 1   
    12    8   26 1   
    13    9   17 3   
    14    9   27 1   
    15   10   18 3   
    16   10   28 1   
    17   11   13 3   
    18   11   29 1   
    19   12   19 3   
    20   12   30 1   
    21   13   31 1   
    22   14   16 1   
    23   14   17 1   
    24   14   32 1   
    25   14   33 1   
    26   15   16 1   
    27   15   18 1   
    28   15   34 1   
    29   19   20 1   
@<TRIPOS>SUBSTRUCTURE
     1 OYS         1 TEMP              0 ****  ****    0 ROOT
