@<TRIPOS>MOLECULE
OZ2
  116   115     1     0     0
SMALL
bcc


@<TRIPOS>ATOM
      1 P           0.7800   -3.0290   -1.2860 p5        1 OZ2      1.431800
      2 C1          4.0780   -0.4630   -2.9260 c         1 OZ2      0.649100
      3 O1          5.0270   -1.0160   -3.4910 o         1 OZ2     -0.580000
      4 C2          3.0480    0.4660   -3.4800 c3        1 OZ2     -0.141400
      5 C3          3.3940    0.9190   -4.8810 c3        1 OZ2     -0.069400
      6 C4          2.2860    1.7810   -5.4470 c3        1 OZ2     -0.090400
      7 C5          2.5680    2.1570   -6.8850 c3        1 OZ2     -0.074400
      8 C6          1.4620    3.0220   -7.4520 c3        1 OZ2     -0.080400
      9 C7          1.7430    3.4030   -8.8900 c3        1 OZ2     -0.076400
     10 C8          0.6310    4.2620   -9.4550 c3        1 OZ2     -0.052200
     11 C9          0.8830    4.6600  -10.8590 c2        1 OZ2     -0.163200
     12 C10         0.0570    5.4340  -11.5730 c2        1 OZ2     -0.186200
     13 C11        -1.2110    5.9870  -11.0440 c3        1 OZ2     -0.047200
     14 C12        -1.9500    6.8180  -12.0720 c3        1 OZ2     -0.076400
     15 C13        -3.2400    7.3690  -11.5050 c3        1 OZ2     -0.080400
     16 C14        -3.9810    8.2000  -12.5310 c3        1 OZ2     -0.078400
     17 C15        -5.2720    8.7510  -11.9640 c3        1 OZ2     -0.079400
     18 C16        -6.0120    9.5820  -12.9890 c3        1 OZ2     -0.078400
     19 C17        -7.3040   10.1330  -12.4230 c3        1 OZ2     -0.080400
     20 C18        -8.0450   10.9620  -13.4400 c3        1 OZ2     -0.092100
     21 C1B         3.6810   -0.8100    2.3480 c         1 OZ2      0.642100
     22 O1B         4.0420   -1.7910    3.0060 o         1 OZ2     -0.572000
     23 C1G         4.6610   -1.7530   -1.0130 c3        1 OZ2      0.144400
     24 O1G         3.8940   -0.6930   -1.5900 os        1 OZ2     -0.400900
     25 C2B         3.1190    0.4850    2.8510 c3        1 OZ2     -0.132400
     26 C2G         4.0720   -2.0840    0.3570 c3        1 OZ2      0.129100
     27 O2G         3.7920   -0.8240    0.9920 os        1 OZ2     -0.398900
     28 C3B         3.6080    0.7930    4.2490 c3        1 OZ2     -0.078400
     29 C3G         2.8250   -2.9800    0.3300 c3        1 OZ2      0.160400
     30 O3G         1.6940   -2.3100   -0.1160 os        1 OZ2     -0.555200
     31 C4B         2.9260    2.0270    4.8000 c3        1 OZ2     -0.077400
     32 C5B         3.4260    2.3460    6.1940 c3        1 OZ2     -0.051200
     33 C6B         2.7790    3.5520    6.7610 c2        1 OZ2     -0.164200
     34 C7B         3.0920    4.0720    7.9540 c2        1 OZ2     -0.185200
     35 C8B         4.1270    3.5060    8.8500 c3        1 OZ2     -0.047200
     36 C9B         4.2300    4.2630   10.1580 c3        1 OZ2     -0.076400
     37 CB0         5.2930    3.6620   11.0540 c3        1 OZ2     -0.080400
     38 CB1         5.3990    4.4160   12.3620 c3        1 OZ2     -0.078400
     39 CB2         6.4600    3.8170   13.2600 c3        1 OZ2     -0.080400
     40 CB3         6.5700    4.5640   14.5630 c3        1 OZ2     -0.092100
     41 CG1        -0.0020   -1.7000   -3.3800 c3        1 OZ2      0.200400
     42 CG2        -0.6200   -0.3170   -3.0990 c3        1 OZ2      0.076100
     43 OG2        -0.6320    0.3970   -4.3320 oh        1 OZ2     -0.623800
     44 CG3        -2.0350   -0.4470   -2.5310 c3        1 OZ2      0.071400
     45 OG3        -2.5310    0.8330   -2.1650 oh        1 OZ2     -0.631800
     46 OP1        -0.6400   -2.8320   -0.9340 o         1 OZ2     -0.830000
     47 OP2         1.4230   -4.3080   -1.6360 o         1 OZ2     -0.830000
     48 OP3         1.0620   -1.9520   -2.5190 os        1 OZ2     -0.576200
     49 H2          2.9380    1.3440   -2.7910 hc        1 OZ2      0.100200
     50 H2A         2.0650   -0.0930   -3.4720 hc        1 OZ2      0.100200
     51 H3          4.3590    1.4890   -4.8710 hc        1 OZ2      0.045200
     52 H3A         3.5520    0.0180   -5.5320 hc        1 OZ2      0.045200
     53 H4          1.3080    1.2290   -5.3790 hc        1 OZ2      0.053700
     54 H4A         2.1820    2.7120   -4.8290 hc        1 OZ2      0.053700
     55 H5          3.5450    2.7050   -6.9490 hc        1 OZ2      0.035700
     56 H5A         2.6700    1.2260   -7.5030 hc        1 OZ2      0.035700
     57 H6          0.4870    2.4690   -7.3910 hc        1 OZ2      0.041200
     58 H6A         1.3550    3.9500   -6.8310 hc        1 OZ2      0.041200
     59 H7          2.7160    3.9580   -8.9490 hc        1 OZ2      0.039200
     60 H7A         1.8530    2.4740   -9.5100 hc        1 OZ2      0.039200
     61 H8         -0.3430    3.7020   -9.3950 hc        1 OZ2      0.048700
     62 H8A         0.5090    5.1840   -8.8220 hc        1 OZ2      0.048700
     63 H9          1.8130    4.2770  -11.3100 ha        1 OZ2      0.120000
     64 H10         0.3000    5.6940  -12.6160 ha        1 OZ2      0.116000
     65 H11        -1.8710    5.1440  -10.6970 hc        1 OZ2      0.048700
     66 H11A       -0.9940    6.6170  -10.1370 hc        1 OZ2      0.048700
     67 H12        -2.1730    6.1890  -12.9740 hc        1 OZ2      0.038700
     68 H12A       -1.2970    7.6640  -12.4130 hc        1 OZ2      0.038700
     69 H13        -3.8930    6.5220  -11.1650 hc        1 OZ2      0.041200
     70 H13A       -3.0170    7.9970  -10.6030 hc        1 OZ2      0.041200
     71 H14        -4.2040    7.5720  -13.4330 hc        1 OZ2      0.038200
     72 H14A       -3.3280    9.0470  -12.8710 hc        1 OZ2      0.038200
     73 H15        -5.0480    9.3780  -11.0610 hc        1 OZ2      0.040200
     74 H15A       -5.9240    7.9040  -11.6240 hc        1 OZ2      0.040200
     75 H16        -5.3600   10.4290  -13.3290 hc        1 OZ2      0.038200
     76 H16A       -6.2360    8.9550  -13.8920 hc        1 OZ2      0.038200
     77 H17        -7.0780   10.7590  -11.5190 hc        1 OZ2      0.039200
     78 H17A       -7.9540    9.2850  -12.0820 hc        1 OZ2      0.039200
     79 H18        -8.9930   11.3580  -13.0020 hc        1 OZ2      0.031033
     80 H18A       -8.3000   10.3490  -14.3380 hc        1 OZ2      0.031033
     81 H18B       -7.4220   11.8270  -13.7730 hc        1 OZ2      0.031033
     82 H1G         5.7210   -1.3990   -0.9130 h1        1 OZ2      0.053700
     83 H1GA        4.6210   -2.6590   -1.6730 h1        1 OZ2      0.053700
     84 H2B         1.9990    0.3820    2.8370 hc        1 OZ2      0.081700
     85 H2BA        3.3910    1.3110    2.1420 hc        1 OZ2      0.081700
     86 H2G         4.8680   -2.6250    0.9480 h1        1 OZ2      0.055700
     87 H3B         3.4100   -0.0880    4.9150 hc        1 OZ2      0.052700
     88 H3BA        4.7190    0.9490    4.2320 hc        1 OZ2      0.052700
     89 H3G         3.0410   -3.8830   -0.3100 h1        1 OZ2      0.052700
     90 H3GA        2.6470   -3.3020    1.3990 h1        1 OZ2      0.052700
     91 H4B         1.8170    1.8640    4.8250 hc        1 OZ2      0.042200
     92 H4BA        3.1180    2.9000    4.1210 hc        1 OZ2      0.042200
     93 H5B         3.2350    1.4680    6.8710 hc        1 OZ2      0.049200
     94 H5BA        4.5410    2.4950    6.1690 hc        1 OZ2      0.049200
     95 H6B         1.9990    4.0200    6.1390 ha        1 OZ2      0.122000
     96 H7B         2.5730    4.9710    8.3220 ha        1 OZ2      0.118000
     97 H8B         3.8920    2.4260    9.0580 hc        1 OZ2      0.048200
     98 H8BA        5.1230    3.5220    8.3270 hc        1 OZ2      0.048200
     99 H9B         3.2400    4.2430   10.6840 hc        1 OZ2      0.039200
    100 H9BA        4.4750    5.3380    9.9530 hc        1 OZ2      0.039200
    101 HB0         5.0480    2.5870   11.2590 hc        1 OZ2      0.040200
    102 HB0A        6.2830    3.6810   10.5280 hc        1 OZ2      0.040200
    103 HB1         5.6440    5.4920   12.1580 hc        1 OZ2      0.038200
    104 HB1A        4.4080    4.3970   12.8890 hc        1 OZ2      0.038200
    105 HB2         6.2150    2.7410   13.4610 hc        1 OZ2      0.039200
    106 HB2A        7.4500    3.8350   12.7300 hc        1 OZ2      0.039200
    107 HB3         7.3580    4.1060   15.2090 hc        1 OZ2      0.030700
    108 HB3A        5.6000    4.5360   15.1170 hc        1 OZ2      0.030700
    109 HB3B        6.8390    5.6330   14.3840 hc        1 OZ2      0.030700
    110 HG1        -0.7900   -2.4950   -3.2750 h1        1 OZ2      0.038200
    111 HG1A        0.4010   -1.7030   -4.4330 h1        1 OZ2      0.038200
    112 HG2         0.0280    0.2510   -2.3710 h1        1 OZ2      0.048700
    113 HOG2       -1.2430    1.1350   -4.2110 ho        1 OZ2      0.398000
    114 HG3        -2.0360   -1.1540   -1.6560 h1        1 OZ2      0.086700
    115 HG3A       -2.7430   -0.8090   -3.3210 h1        1 OZ2      0.086700
    116 HOG3       -2.0750    1.0850   -1.3550 ho        1 OZ2      0.397000
@<TRIPOS>BOND
     1    1   30 1   
     2    1   46 1   
     3    1   47 1   
     4    1   48 1   
     5    2    3 2   
     6    2    4 1   
     7    2   24 1   
     8    4    5 1   
     9    4   49 1   
    10    4   50 1   
    11    5    6 1   
    12    5   51 1   
    13    5   52 1   
    14    6    7 1   
    15    6   53 1   
    16    6   54 1   
    17    7    8 1   
    18    7   55 1   
    19    7   56 1   
    20    8    9 1   
    21    8   57 1   
    22    8   58 1   
    23    9   10 1   
    24    9   59 1   
    25    9   60 1   
    26   10   11 1   
    27   10   61 1   
    28   10   62 1   
    29   11   12 2   
    30   11   63 1   
    31   12   13 1   
    32   12   64 1   
    33   13   14 1   
    34   13   65 1   
    35   13   66 1   
    36   14   15 1   
    37   14   67 1   
    38   14   68 1   
    39   15   16 1   
    40   15   69 1   
    41   15   70 1   
    42   16   17 1   
    43   16   71 1   
    44   16   72 1   
    45   17   18 1   
    46   17   73 1   
    47   17   74 1   
    48   18   19 1   
    49   18   75 1   
    50   18   76 1   
    51   19   20 1   
    52   19   77 1   
    53   19   78 1   
    54   20   79 1   
    55   20   80 1   
    56   20   81 1   
    57   21   22 2   
    58   21   25 1   
    59   21   27 1   
    60   23   24 1   
    61   23   26 1   
    62   23   82 1   
    63   23   83 1   
    64   25   28 1   
    65   25   84 1   
    66   25   85 1   
    67   26   27 1   
    68   26   29 1   
    69   26   86 1   
    70   28   31 1   
    71   28   87 1   
    72   28   88 1   
    73   29   30 1   
    74   29   89 1   
    75   29   90 1   
    76   31   32 1   
    77   31   91 1   
    78   31   92 1   
    79   32   33 1   
    80   32   93 1   
    81   32   94 1   
    82   33   34 2   
    83   33   95 1   
    84   34   35 1   
    85   34   96 1   
    86   35   36 1   
    87   35   97 1   
    88   35   98 1   
    89   36   37 1   
    90   36   99 1   
    91   36  100 1   
    92   37   38 1   
    93   37  101 1   
    94   37  102 1   
    95   38   39 1   
    96   38  103 1   
    97   38  104 1   
    98   39   40 1   
    99   39  105 1   
   100   39  106 1   
   101   40  107 1   
   102   40  108 1   
   103   40  109 1   
   104   41   42 1   
   105   41   48 1   
   106   41  110 1   
   107   41  111 1   
   108   42   43 1   
   109   42   44 1   
   110   42  112 1   
   111   43  113 1   
   112   44   45 1   
   113   44  114 1   
   114   44  115 1   
   115   45  116 1   
@<TRIPOS>SUBSTRUCTURE
     1 OZ2         1 TEMP              0 ****  ****    0 ROOT
