@<TRIPOS>MOLECULE
OZ2
  116   115     1     0     0
SMALL
bcc


@<TRIPOS>ATOM
      1 P           0.7510   -2.9660   -1.2810 p5        1 OZ2      1.431800
      2 C1          4.0740   -0.4330   -2.9200 c         1 OZ2      0.649100
      3 O1          5.0180   -0.9940   -3.4870 o         1 OZ2     -0.580000
      4 C2          3.0530    0.5070   -3.4720 c3        1 OZ2     -0.141400
      5 C3          3.4010    0.9570   -4.8730 c3        1 OZ2     -0.069400
      6 C4          2.3000    1.8280   -5.4390 c3        1 OZ2     -0.090400
      7 C5          2.5840    2.2010   -6.8780 c3        1 OZ2     -0.074400
      8 C6          1.4820    3.0710   -7.4450 c3        1 OZ2     -0.080400
      9 C7          1.7660    3.4500   -8.8830 c3        1 OZ2     -0.076400
     10 C8          0.6560    4.3100   -9.4510 c3        1 OZ2     -0.052200
     11 C9          0.9100    4.7070  -10.8550 c2        1 OZ2     -0.164200
     12 C10         0.0710    5.4540  -11.5810 c2        1 OZ2     -0.185200
     13 C11        -1.2180    5.9730  -11.0680 c3        1 OZ2     -0.047200
     14 C12        -1.9560    6.8010  -12.1000 c3        1 OZ2     -0.076400
     15 C13        -3.2690    7.3170  -11.5500 c3        1 OZ2     -0.080400
     16 C14        -4.0090    8.1440  -12.5790 c3        1 OZ2     -0.078400
     17 C15        -5.3220    8.6590  -12.0290 c3        1 OZ2     -0.079400
     18 C16        -6.0620    9.4860  -13.0580 c3        1 OZ2     -0.078400
     19 C17        -7.3750   10.0020  -12.5090 c3        1 OZ2     -0.080400
     20 C18        -8.1170   10.8260  -13.5290 c3        1 OZ2     -0.092100
     21 C1B         3.6820   -0.7850    2.3550 c         1 OZ2      0.642100
     22 O1B         4.0330   -1.7720    3.0090 o         1 OZ2     -0.572000
     23 C1G         4.6460   -1.7310   -1.0100 c3        1 OZ2      0.144400
     24 O1G         3.8890   -0.6620   -1.5850 os        1 OZ2     -0.400900
     25 C2B         3.1350    0.5150    2.8620 c3        1 OZ2     -0.132400
     26 C2G         4.0550   -2.0590    0.3600 c3        1 OZ2      0.129100
     27 O2G         3.7900   -0.7970    0.9980 os        1 OZ2     -0.398900
     28 C3B         3.6270    0.8120    4.2610 c3        1 OZ2     -0.078400
     29 C3G         2.7990   -2.9410    0.3330 c3        1 OZ2      0.160400
     30 O3G         1.6740   -2.2590   -0.1110 os        1 OZ2     -0.555200
     31 C4B         2.9620    2.0530    4.8160 c3        1 OZ2     -0.077400
     32 C5B         3.4630    2.3600    6.2120 c3        1 OZ2     -0.051200
     33 C6B         2.8330    3.5730    6.7830 c2        1 OZ2     -0.164200
     34 C7B         3.1440    4.0780    7.9820 c2        1 OZ2     -0.185200
     35 C8B         4.1610    3.4860    8.8830 c3        1 OZ2     -0.047200
     36 C9B         4.2710    4.2350   10.1950 c3        1 OZ2     -0.076400
     37 CB0         5.3140    3.6080   11.0960 c3        1 OZ2     -0.080400
     38 CB1         5.4260    4.3540   12.4080 c3        1 OZ2     -0.078400
     39 CB2         6.4690    3.7290   13.3100 c3        1 OZ2     -0.080400
     40 CB3         6.5850    4.4670   14.6180 c3        1 OZ2     -0.092100
     41 CG1        -0.0200   -1.6290   -3.3730 c3        1 OZ2      0.200400
     42 CG2        -0.6250   -0.2390   -3.0900 c3        1 OZ2      0.076100
     43 OG2        -0.6320    0.4760   -4.3230 oh        1 OZ2     -0.623800
     44 CG3        -2.0390   -0.3560   -2.5200 c3        1 OZ2      0.071400
     45 OG3        -2.5230    0.9290   -2.1530 oh        1 OZ2     -0.631800
     46 OP1        -0.6670   -2.7560   -0.9260 o         1 OZ2     -0.830000
     47 OP2         1.3810   -4.2520   -1.6330 o         1 OZ2     -0.830000
     48 OP3         1.0420   -1.8910   -2.5130 os        1 OZ2     -0.576200
     49 H2          2.0640   -0.0430   -3.4630 hc        1 OZ2      0.100200
     50 H2A         2.9520    1.3860   -2.7830 hc        1 OZ2      0.100200
     51 H3          3.5510    0.0550   -5.5240 hc        1 OZ2      0.045200
     52 H3A         4.3710    1.5200   -4.8640 hc        1 OZ2      0.045200
     53 H4          1.3180    1.2830   -5.3700 hc        1 OZ2      0.053700
     54 H4A         2.2030    2.7590   -4.8210 hc        1 OZ2      0.053700
     55 H5          3.5630    2.7440   -6.9420 hc        1 OZ2      0.035700
     56 H5A         2.6810    1.2690   -7.4950 hc        1 OZ2      0.035700
     57 H6          0.5050    2.5220   -7.3850 hc        1 OZ2      0.041200
     58 H6A         1.3790    3.9990   -6.8250 hc        1 OZ2      0.041200
     59 H7          2.7390    4.0040   -8.9420 hc        1 OZ2      0.039200
     60 H7A         1.8750    2.5210   -9.5020 hc        1 OZ2      0.039200
     61 H8         -0.3190    3.7520   -9.3910 hc        1 OZ2      0.048700
     62 H8A         0.5350    5.2330   -8.8190 hc        1 OZ2      0.048700
     63 H9          1.8560    4.3480  -11.2940 ha        1 OZ2      0.120000
     64 H10         0.3170    5.7160  -12.6230 ha        1 OZ2      0.116000
     65 H11        -1.8650    5.1120  -10.7440 hc        1 OZ2      0.048700
     66 H11A       -1.0320    6.5960  -10.1500 hc        1 OZ2      0.048700
     67 H12        -2.1500    6.1790  -13.0130 hc        1 OZ2      0.038700
     68 H12A       -1.3150    7.6650  -12.4180 hc        1 OZ2      0.038700
     69 H13        -3.9090    6.4520  -11.2310 hc        1 OZ2      0.041200
     70 H13A       -3.0750    7.9380  -10.6360 hc        1 OZ2      0.041200
     71 H14        -4.2020    7.5220  -13.4930 hc        1 OZ2      0.038200
     72 H14A       -3.3690    9.0090  -12.8970 hc        1 OZ2      0.038200
     73 H15        -5.9610    7.7930  -11.7110 hc        1 OZ2      0.040200
     74 H15A       -5.1280    9.2800  -11.1150 hc        1 OZ2      0.040200
     75 H16        -6.2550    8.8650  -13.9720 hc        1 OZ2      0.038200
     76 H16A       -5.4230   10.3510  -13.3760 hc        1 OZ2      0.038200
     77 H17        -8.0130    9.1340  -12.1900 hc        1 OZ2      0.039200
     78 H17A       -7.1800   10.6210  -11.5940 hc        1 OZ2      0.039200
     79 H18        -7.5070   11.7080  -13.8410 hc        1 OZ2      0.031033
     80 H18A       -8.3420   10.2180  -14.4390 hc        1 OZ2      0.031033
     81 H18B       -9.0810   11.1950  -13.1040 hc        1 OZ2      0.031033
     82 H1G         4.5970   -2.6350   -1.6710 h1        1 OZ2      0.053700
     83 H1GA        5.7090   -1.3880   -0.9100 h1        1 OZ2      0.053700
     84 H2B         2.0140    0.4270    2.8460 hc        1 OZ2      0.081700
     85 H2BA        3.4180    1.3400    2.1560 hc        1 OZ2      0.081700
     86 H2G         4.8460   -2.6100    0.9490 h1        1 OZ2      0.055700
     87 H3B         4.7400    0.9520    4.2470 hc        1 OZ2      0.053200
     88 H3BA        3.4150   -0.0690    4.9250 hc        1 OZ2      0.053200
     89 H3G         3.0050   -3.8450   -0.3080 h1        1 OZ2      0.052700
     90 H3GA        2.6180   -3.2620    1.4020 h1        1 OZ2      0.052700
     91 H4B         3.1670    2.9250    4.1410 hc        1 OZ2      0.042200
     92 H4BA        1.8490    1.9060    4.8390 hc        1 OZ2      0.042200
     93 H5B         4.5800    2.4930    6.1900 hc        1 OZ2      0.049200
     94 H5BA        3.2580    1.4810    6.8850 hc        1 OZ2      0.049200
     95 H6B         2.0660    4.0590    6.1570 ha        1 OZ2      0.122000
     96 H7B         2.6380    4.9840    8.3530 ha        1 OZ2      0.118000
     97 H8B         3.9020    2.4100    9.0850 hc        1 OZ2      0.048200
     98 H8BA        5.1610    3.4840    8.3670 hc        1 OZ2      0.048200
     99 H9B         4.5390    5.3060    9.9970 hc        1 OZ2      0.039200
    100 H9BA        3.2760    4.2330   10.7140 hc        1 OZ2      0.039200
    101 HB0         6.3090    3.6090   10.5770 hc        1 OZ2      0.040200
    102 HB0A        5.0450    2.5370   11.2940 hc        1 OZ2      0.040200
    103 HB1         4.4320    4.3530   12.9280 hc        1 OZ2      0.038200
    104 HB1A        5.6950    5.4250   12.2110 hc        1 OZ2      0.038200
    105 HB2         7.4630    3.7290   12.7880 hc        1 OZ2      0.039200
    106 HB2A        6.2000    2.6570   13.5050 hc        1 OZ2      0.039200
    107 HB3         5.6110    4.4570   15.1650 hc        1 OZ2      0.030700
    108 HB3A        7.3580    3.9900   15.2670 hc        1 OZ2      0.030700
    109 HB3B        6.8770    5.5320   14.4460 hc        1 OZ2      0.030700
    110 HG1        -0.8160   -2.4160   -3.2680 h1        1 OZ2      0.038200
    111 HG1A        0.3820   -1.6340   -4.4260 h1        1 OZ2      0.038200
    112 HG2         0.0300    0.3220   -2.3630 h1        1 OZ2      0.048700
    113 HOG2       -1.2350    1.2190   -4.2000 ho        1 OZ2      0.398000
    114 HG3        -2.0460   -1.0640   -1.6450 h1        1 OZ2      0.086700
    115 HG3A       -2.7520   -0.7110   -3.3100 h1        1 OZ2      0.086700
    116 HOG3       -2.0630    1.1750   -1.3430 ho        1 OZ2      0.397000
@<TRIPOS>BOND
     1    1   30 1   
     2    1   46 1   
     3    1   47 1   
     4    1   48 1   
     5    2    3 2   
     6    2    4 1   
     7    2   24 1   
     8    4    5 1   
     9    4   49 1   
    10    4   50 1   
    11    5    6 1   
    12    5   51 1   
    13    5   52 1   
    14    6    7 1   
    15    6   53 1   
    16    6   54 1   
    17    7    8 1   
    18    7   55 1   
    19    7   56 1   
    20    8    9 1   
    21    8   57 1   
    22    8   58 1   
    23    9   10 1   
    24    9   59 1   
    25    9   60 1   
    26   10   11 1   
    27   10   61 1   
    28   10   62 1   
    29   11   12 2   
    30   11   63 1   
    31   12   13 1   
    32   12   64 1   
    33   13   14 1   
    34   13   65 1   
    35   13   66 1   
    36   14   15 1   
    37   14   67 1   
    38   14   68 1   
    39   15   16 1   
    40   15   69 1   
    41   15   70 1   
    42   16   17 1   
    43   16   71 1   
    44   16   72 1   
    45   17   18 1   
    46   17   73 1   
    47   17   74 1   
    48   18   19 1   
    49   18   75 1   
    50   18   76 1   
    51   19   20 1   
    52   19   77 1   
    53   19   78 1   
    54   20   79 1   
    55   20   80 1   
    56   20   81 1   
    57   21   22 2   
    58   21   25 1   
    59   21   27 1   
    60   23   24 1   
    61   23   26 1   
    62   23   82 1   
    63   23   83 1   
    64   25   28 1   
    65   25   84 1   
    66   25   85 1   
    67   26   27 1   
    68   26   29 1   
    69   26   86 1   
    70   28   31 1   
    71   28   87 1   
    72   28   88 1   
    73   29   30 1   
    74   29   89 1   
    75   29   90 1   
    76   31   32 1   
    77   31   91 1   
    78   31   92 1   
    79   32   33 1   
    80   32   93 1   
    81   32   94 1   
    82   33   34 2   
    83   33   95 1   
    84   34   35 1   
    85   34   96 1   
    86   35   36 1   
    87   35   97 1   
    88   35   98 1   
    89   36   37 1   
    90   36   99 1   
    91   36  100 1   
    92   37   38 1   
    93   37  101 1   
    94   37  102 1   
    95   38   39 1   
    96   38  103 1   
    97   38  104 1   
    98   39   40 1   
    99   39  105 1   
   100   39  106 1   
   101   40  107 1   
   102   40  108 1   
   103   40  109 1   
   104   41   42 1   
   105   41   48 1   
   106   41  110 1   
   107   41  111 1   
   108   42   43 1   
   109   42   44 1   
   110   42  112 1   
   111   43  113 1   
   112   44   45 1   
   113   44  114 1   
   114   44  115 1   
   115   45  116 1   
@<TRIPOS>SUBSTRUCTURE
     1 OZ2         1 TEMP              0 ****  ****    0 ROOT
