@<TRIPOS>MOLECULE
OZ2
  116   110     1     0     0
SMALL
bcc


@<TRIPOS>ATOM
      1 P          -8.0560    4.0810   -1.4220 p3        1 OZ2      2.545000
      2 C1         -1.0240    4.7770   -1.1370 c1        1 OZ2      0.318000
      3 O1         -1.2260    5.5150   -2.0900 o         1 OZ2     -0.362000
      4 C2          0.3120    4.8610   -0.3660 c3        1 OZ2     -0.165000
      5 C3          1.4740    4.9570   -1.3640 c3        1 OZ2     -0.155000
      6 C4          2.7850    5.1880   -0.6020 c3        1 OZ2     -0.157000
      7 C5          3.9640    4.5400   -1.3870 c3        1 OZ2     -0.157000
      8 C6          5.2450    4.6220   -0.5480 c3        1 OZ2     -0.158000
      9 C7          6.1990    3.4520   -0.9370 c3        1 OZ2     -0.156000
     10 C8          7.5340    3.5760   -0.1300 c3        1 OZ2     -0.133000
     11 C9          8.6930    2.9290   -0.9420 c2        1 OZ2     -0.163000
     12 C10         9.7900    2.3900   -0.2790 c1        1 OZ2     -0.177000
     13 C11         9.8570    2.4340    1.2590 c2        1 OZ2     -0.131000
     14 C12        11.1960    1.8500    1.7340 c3        1 OZ2     -0.155000
     15 C13        11.1600    1.6590    3.2620 c3        1 OZ2     -0.159000
     16 C14        12.4400    0.9600    3.7160 c3        1 OZ2     -0.157000
     17 C15        12.4660    0.8700    5.2760 c3        1 OZ2     -0.158000
     18 C16        13.6940   -0.0210    5.7320 c3        1 OZ2     -0.158000
     19 C17        13.8260    0.0310    7.2590 c3        1 OZ2     -0.159000
     20 C18        15.0060   -0.8790    7.7120 c3        1 OZ2     -0.210000
     21 C1B        -4.3480    0.7750   -0.4870 c1        1 OZ2      0.331000
     22 O1B        -4.7260    0.6960   -1.6380 o         1 OZ2     -0.394000
     23 C1G        -3.3110    4.2540   -0.5500 c3        1 OZ2     -0.032000
     24 O1G        -1.9760    3.7540   -0.8100 o         1 OZ2     -0.282000
     25 C2B        -4.2910   -0.4910    0.3970 c3        1 OZ2     -0.146000
     26 C2G        -4.3200    3.1400   -0.7610 c3        1 OZ2     -0.021000
     27 O2G        -3.9950    2.0510    0.0650 o         1 OZ2     -0.262000
     28 C3B        -4.3200   -1.7620   -0.5070 c3        1 OZ2     -0.189000
     29 C3G        -5.7170    3.6460   -0.4100 c3        1 OZ2      0.043000
     30 O3G        -6.5110    3.6580   -1.5590 os        1 OZ2     -0.738000
     31 C4B        -4.4660   -3.0170    0.3740 c3        1 OZ2     -0.140000
     32 C5B        -4.7800   -4.2440   -0.5210 c3        1 OZ2     -0.143000
     33 C6B        -4.0510   -5.4920    0.0400 c2        1 OZ2     -0.153000
     34 C7B        -4.5070   -6.7770   -0.2850 c1        1 OZ2     -0.190000
     35 C8B        -5.7240   -6.9530   -1.1950 c2        1 OZ2     -0.132000
     36 C9B        -5.7770   -8.4150   -1.7100 c3        1 OZ2     -0.151000
     37 CB0        -7.1100   -9.0380   -1.3340 c3        1 OZ2     -0.160000
     38 CB1        -7.1160  -10.5260   -1.7400 c3        1 OZ2     -0.157000
     39 CB2        -8.2990  -11.2250   -1.0840 c3        1 OZ2     -0.160000
     40 CB3        -8.3180  -12.6910   -1.4990 c3        1 OZ2     -0.209000
     41 CG1       -10.1720    4.1530   -2.9280 c3        1 OZ2      0.004000
     42 CG2       -10.5760    4.3250   -4.3840 c3        1 OZ2     -0.033000
     43 OG2       -10.0370    3.2790   -5.1450 oh        1 OZ2     -0.368000
     44 CG3       -12.0830    4.3040   -4.4940 c3        1 OZ2     -0.017000
     45 OG3       -12.4630    4.1010   -5.8640 oh        1 OZ2     -0.346000
     46 OP1        -8.1460    5.5040   -0.9450 o         1 OZ2     -1.145500
     47 OP2        -8.7390    3.1760   -0.4300 o         1 OZ2     -1.145500
     48 OP3        -8.7710    3.9480   -2.8490 o         1 OZ2     -0.730000
     49 H2          0.4220    4.0510    0.1910 hc        1 OZ2      0.127500
     50 H2A         0.3080    5.6510    0.2060 hc        1 OZ2      0.127500
     51 H3          1.5350    4.1250   -1.8740 hc        1 OZ2      0.093000
     52 H3A         1.3180    5.6990   -1.9710 hc        1 OZ2      0.093000
     53 H4          2.7220    4.7830    0.2830 hc        1 OZ2      0.079500
     54 H4A         2.9430    6.1470   -0.5100 hc        1 OZ2      0.079500
     55 H5          3.7560    3.6000   -1.5730 hc        1 OZ2      0.080500
     56 H5A         4.0970    5.0230   -2.2390 hc        1 OZ2      0.080500
     57 H6          5.0200    4.5560    0.3940 hc        1 OZ2      0.078500
     58 H6A         5.6880    5.4690   -0.7160 hc        1 OZ2      0.078500
     59 H7          5.7670    2.5940   -0.7260 hc        1 OZ2      0.080500
     60 H7A         6.3930    3.4940   -1.9020 hc        1 OZ2      0.080500
     61 H8          7.4410    3.1170    0.7240 hc        1 OZ2      0.087000
     62 H8A         7.7350    4.5250    0.0280 hc        1 OZ2      0.087000
     63 H9          8.6500    2.9010   -1.9170 ha        1 OZ2      0.122000
     64 H10        10.5200    1.9840   -0.7890 ha        1 OZ2      0.119000
     65 H11         9.7800    3.3620    1.5620 ha        1 OZ2      0.087500
     66 H11A        9.1210    1.9070    1.6320 ha        1 OZ2      0.087500
     67 H12        11.9200    2.4620    1.4990 hc        1 OZ2      0.079500
     68 H12A       11.3470    0.9820    1.2990 hc        1 OZ2      0.079500
     69 H13        11.0930    2.5230    3.6940 hc        1 OZ2      0.079500
     70 H13A       10.3850    1.1130    3.5050 hc        1 OZ2      0.079500
     71 H14        12.4700    0.0550    3.3370 hc        1 OZ2      0.078000
     72 H14A       13.2130    1.4660    3.4070 hc        1 OZ2      0.078000
     73 H15        11.6290    0.4640    5.5960 hc        1 OZ2      0.079500
     74 H15A       12.5570    1.7700    5.6540 hc        1 OZ2      0.079500
     75 H16        13.5490   -0.9500    5.4470 hc        1 OZ2      0.078000
     76 H16A       14.5190    0.3220    5.3200 hc        1 OZ2      0.078000
     77 H17        12.9980   -0.2840    7.6670 hc        1 OZ2      0.078000
     78 H17A       13.9970    0.9450    7.5380 hc        1 OZ2      0.078000
     79 H18        14.7680   -1.8230    7.5670 hc        1 OZ2      0.070667
     80 H18A       15.1850   -0.7310    8.6610 hc        1 OZ2      0.070667
     81 H18B       15.8050   -0.6610    7.1920 hc        1 OZ2      0.070667
     82 H1G        -3.5080    4.9910   -1.1610 h1        1 OZ2      0.110500
     83 H1GA       -3.3650    4.5690    0.3620 h1        1 OZ2      0.110500
     84 H2B        -5.0560   -0.5030    0.9950 hc        1 OZ2      0.099500
     85 H2BA       -3.4560   -0.4840    0.9290 hc        1 OZ2      0.099500
     86 H2G        -4.3020    2.8560   -1.6990 h1        1 OZ2      0.137000
     87 H3B        -3.4830   -1.8170   -1.0210 hc        1 OZ2      0.135000
     88 H3BA       -5.0750   -1.7060   -1.1210 hc        1 OZ2      0.135000
     89 H3G        -6.1240    3.0490    0.2650 h1        1 OZ2      0.082500
     90 H3GA       -5.6540    4.5520   -0.0500 h1        1 OZ2      0.082500
     91 H4B        -3.6360   -3.1720    0.8580 hc        1 OZ2      0.065500
     92 H4BA       -5.1930   -2.8840    1.0100 hc        1 OZ2      0.065500
     93 H5B        -5.7450   -4.4050   -0.5280 hc        1 OZ2      0.107000
     94 H5BA       -4.4710   -4.0690   -1.4340 hc        1 OZ2      0.107000
     95 H6B        -3.2780   -5.3830    0.6180 ha        1 OZ2      0.111000
     96 H7B        -4.0460   -7.5620    0.0690 ha        1 OZ2      0.109000
     97 H8B        -5.6540   -6.3490   -1.9470 ha        1 OZ2      0.094500
     98 H8BA       -6.5420   -6.7530   -0.6900 ha        1 OZ2      0.094500
     99 H9B        -5.6770   -8.4220   -2.6740 hc        1 OZ2      0.072000
    100 H9BA       -5.0430   -8.9360   -1.2990 hc        1 OZ2      0.072000
    101 HB0        -7.8250   -8.5740   -1.7970 hc        1 OZ2      0.085500
    102 HB0A       -7.2440   -8.9640   -0.3700 hc        1 OZ2      0.085500
    103 HB1        -6.2840  -10.9470   -1.4460 hc        1 OZ2      0.074000
    104 HB1A       -7.1930  -10.5990   -2.7170 hc        1 OZ2      0.074000
    105 HB2        -8.2150  -11.1630   -0.1080 hc        1 OZ2      0.080000
    106 HB2A       -9.1290  -10.7960   -1.3670 hc        1 OZ2      0.080000
    107 HB3        -7.4410  -13.0970   -1.3100 hc        1 OZ2      0.068000
    108 HB3A       -9.0140  -13.1660   -0.9940 hc        1 OZ2      0.068000
    109 HB3B       -8.5070  -12.7570   -2.4500 hc        1 OZ2      0.068000
    110 HG1       -10.6390    3.3770   -2.5480 h1        1 OZ2      0.082500
    111 HG1A      -10.4130    4.9530   -2.4280 h1        1 OZ2      0.082500
    112 HG2       -10.2380    5.1740   -4.7170 h1        1 OZ2      0.100000
    113 HOG2       -9.6580    3.6100   -5.8730 ho        1 OZ2      0.238000
    114 HG3       -12.4410    3.5730   -3.9430 h1        1 OZ2      0.078500
    115 HG3A      -12.4460    5.1600   -4.1760 h1        1 OZ2      0.078500
    116 HOG3      -13.3410    4.0770   -5.9240 ho        1 OZ2      0.214000
@<TRIPOS>BOND
     1    1   30 1   
     2    1   46 1   
     3    1   47 1   
     4    2    3 1   
     5    2    4 1   
     6    4    5 1   
     7    4   49 1   
     8    4   50 1   
     9    5    6 1   
    10    5   51 1   
    11    5   52 1   
    12    6    7 1   
    13    6   53 1   
    14    6   54 1   
    15    7    8 1   
    16    7   55 1   
    17    7   56 1   
    18    8    9 1   
    19    8   57 1   
    20    8   58 1   
    21    9   10 1   
    22    9   59 1   
    23    9   60 1   
    24   10   11 1   
    25   10   61 1   
    26   10   62 1   
    27   11   12 1   
    28   11   63 1   
    29   12   64 1   
    30   13   14 1   
    31   13   65 1   
    32   13   66 1   
    33   14   15 1   
    34   14   67 1   
    35   14   68 1   
    36   15   16 1   
    37   15   69 1   
    38   15   70 1   
    39   16   17 1   
    40   16   71 1   
    41   16   72 1   
    42   17   18 1   
    43   17   73 1   
    44   17   74 1   
    45   18   19 1   
    46   18   75 1   
    47   18   76 1   
    48   19   20 1   
    49   19   77 1   
    50   19   78 1   
    51   20   79 1   
    52   20   80 1   
    53   20   81 1   
    54   21   22 1   
    55   21   25 1   
    56   23   24 1   
    57   23   26 1   
    58   23   82 1   
    59   23   83 1   
    60   25   28 1   
    61   25   84 1   
    62   25   85 1   
    63   26   27 1   
    64   26   29 1   
    65   26   86 1   
    66   28   31 1   
    67   28   87 1   
    68   28   88 1   
    69   29   30 1   
    70   29   89 1   
    71   29   90 1   
    72   31   32 1   
    73   31   91 1   
    74   31   92 1   
    75   32   33 1   
    76   32   93 1   
    77   32   94 1   
    78   33   34 1   
    79   33   95 1   
    80   34   96 1   
    81   35   36 1   
    82   35   97 1   
    83   35   98 1   
    84   36   37 1   
    85   36   99 1   
    86   36  100 1   
    87   37   38 1   
    88   37  101 1   
    89   37  102 1   
    90   38   39 1   
    91   38  103 1   
    92   38  104 1   
    93   39   40 1   
    94   39  105 1   
    95   39  106 1   
    96   40  107 1   
    97   40  108 1   
    98   40  109 1   
    99   41   42 1   
   100   41   48 1   
   101   41  110 1   
   102   41  111 1   
   103   42   43 1   
   104   42   44 1   
   105   42  112 1   
   106   43  113 1   
   107   44   45 1   
   108   44  114 1   
   109   44  115 1   
   110   45  116 1   
@<TRIPOS>SUBSTRUCTURE
     1 OZ2         1 TEMP              0 ****  ****    0 ROOT
