@<TRIPOS>MOLECULE
OZ2
  116   115     1     0     0
SMALL
bcc


@<TRIPOS>ATOM
      1 P           0.9550   -2.0560    5.1100 p5        1 OZ2      1.425800
      2 C1          0.4930   -3.9720    1.2810 c         1 OZ2      0.647100
      3 O1          0.4820   -5.2050    1.2190 o         1 OZ2     -0.570000
      4 C2         -0.5840   -2.9920    0.9400 c3        1 OZ2     -0.141400
      5 C3         -1.8450   -3.6830    0.4720 c3        1 OZ2     -0.072400
      6 C4         -2.9350   -2.6680    0.2000 c3        1 OZ2     -0.088400
      7 C5         -4.2360   -3.3490   -0.1660 c3        1 OZ2     -0.075400
      8 C6         -5.3240   -2.3340   -0.4450 c3        1 OZ2     -0.080400
      9 C7         -6.6270   -3.0120   -0.8140 c3        1 OZ2     -0.076400
     10 C8         -7.7140   -1.9940   -1.0880 c3        1 OZ2     -0.052200
     11 C9         -9.0000   -2.6280   -1.4620 c2        1 OZ2     -0.164200
     12 C10       -10.1030   -1.9410   -1.7790 c2        1 OZ2     -0.185200
     13 C11       -10.1720   -0.4610   -1.7950 c3        1 OZ2     -0.048200
     14 C12       -11.5500    0.0460   -2.1680 c3        1 OZ2     -0.076400
     15 C13       -11.5920    1.5590   -2.1750 c3        1 OZ2     -0.080400
     16 C14       -12.9670    2.0690   -2.5480 c3        1 OZ2     -0.078400
     17 C15       -13.0090    3.5820   -2.5550 c3        1 OZ2     -0.079400
     18 C16       -14.3840    4.0930   -2.9280 c3        1 OZ2     -0.078400
     19 C17       -14.4270    5.6060   -2.9350 c3        1 OZ2     -0.080400
     20 C18       -15.7940    6.1200   -3.3050 c3        1 OZ2     -0.092100
     21 C1B         5.1230   -1.5910    1.9580 c         1 OZ2      0.638100
     22 O1B         6.0340   -2.0100    2.6800 o         1 OZ2     -0.573000
     23 C1G         2.6040   -4.1630    2.3610 c3        1 OZ2      0.139400
     24 O1G         1.6350   -3.3460    1.6960 os        1 OZ2     -0.407900
     25 C2B         5.1490   -0.4130    1.0300 c3        1 OZ2     -0.131400
     26 C2G         3.6880   -3.2480    2.9290 c3        1 OZ2      0.124100
     27 O2G         3.9230   -2.2300    1.9390 os        1 OZ2     -0.398900
     28 C3B         6.5400   -0.1710    0.4880 c3        1 OZ2     -0.078400
     29 C3G         3.3570   -2.6230    4.2930 c3        1 OZ2      0.176400
     30 O3G         2.3280   -1.6950    4.2520 os        1 OZ2     -0.568200
     31 C4B         6.5850    1.1000   -0.3340 c3        1 OZ2     -0.077400
     32 C5B         7.9730    1.3370   -0.8900 c3        1 OZ2     -0.051200
     33 C6B         8.0510    2.5740   -1.7020 c2        1 OZ2     -0.164200
     34 C7B         9.1610    2.9870   -2.3230 c2        1 OZ2     -0.184200
     35 C8B        10.4490    2.2560   -2.2750 c3        1 OZ2     -0.048200
     36 C9B        11.5430    2.9660   -3.0460 c3        1 OZ2     -0.076400
     37 CB0        12.8450    2.1980   -2.9790 c3        1 OZ2     -0.080400
     38 CB1        13.9400    2.9050   -3.7490 c3        1 OZ2     -0.078400
     39 CB2        15.2440    2.1380   -3.6830 c3        1 OZ2     -0.080400
     40 CB3        16.3370    2.8380   -4.4480 c3        1 OZ2     -0.092100
     41 CG1        -0.1820   -0.1690    3.8460 c3        1 OZ2      0.136400
     42 CG2        -1.2070    0.1850    2.7670 c3        1 OZ2      0.099100
     43 OG2        -2.4150   -0.5550    2.8970 oh        1 OZ2     -0.644800
     44 CG3        -1.5820    1.6660    2.8510 c3        1 OZ2      0.126400
     45 OG3        -2.5100    2.0290    1.8470 oh        1 OZ2     -0.618800
     46 OP1         0.8650   -1.0960    6.2230 o         1 OZ2     -0.822000
     47 OP2         0.8850   -3.5260    5.1870 o         1 OZ2     -0.822000
     48 OP3        -0.1490   -1.5600    3.9790 os        1 OZ2     -0.573200
     49 H2         -0.7860   -2.3780    1.8670 hc        1 OZ2      0.093700
     50 H2A        -0.1980   -2.2910    0.1540 hc        1 OZ2      0.093700
     51 H3         -1.6310   -4.2790   -0.4530 hc        1 OZ2      0.048700
     52 H3A        -2.1820   -4.4090    1.2590 hc        1 OZ2      0.048700
     53 H4         -3.0820   -2.0230    1.1090 hc        1 OZ2      0.050700
     54 H4A        -2.6170   -1.9900   -0.6360 hc        1 OZ2      0.050700
     55 H5         -4.0830   -3.9960   -1.0690 hc        1 OZ2      0.036700
     56 H5A        -4.5560   -4.0220    0.6730 hc        1 OZ2      0.036700
     57 H6         -5.4770   -1.6910    0.4620 hc        1 OZ2      0.041700
     58 H6A        -5.0020   -1.6580   -1.2800 hc        1 OZ2      0.041700
     59 H7         -6.4740   -3.6540   -1.7210 hc        1 OZ2      0.039200
     60 H7A        -6.9470   -3.6900    0.0210 hc        1 OZ2      0.039200
     61 H8         -7.8660   -1.3530   -0.1760 hc        1 OZ2      0.048700
     62 H8A        -7.3830   -1.3040   -1.9130 hc        1 OZ2      0.048700
     63 H9         -9.0110   -3.7300   -1.4670 ha        1 OZ2      0.120000
     64 H10       -11.0310   -2.4710   -2.0470 ha        1 OZ2      0.116000
     65 H11        -9.8860   -0.0620   -0.7830 hc        1 OZ2      0.048700
     66 H11A       -9.4140   -0.0600   -2.5230 hc        1 OZ2      0.048700
     67 H12       -11.8330   -0.3430   -3.1810 hc        1 OZ2      0.038700
     68 H12A      -12.3060   -0.3480   -1.4390 hc        1 OZ2      0.038700
     69 H13       -11.3080    1.9480   -1.1620 hc        1 OZ2      0.041200
     70 H13A      -10.8350    1.9530   -2.9040 hc        1 OZ2      0.041200
     71 H14       -13.2510    1.6800   -3.5610 hc        1 OZ2      0.038200
     72 H14A      -13.7240    1.6760   -1.8190 hc        1 OZ2      0.038200
     73 H15       -12.7250    3.9710   -1.5420 hc        1 OZ2      0.040200
     74 H15A      -12.2520    3.9760   -3.2830 hc        1 OZ2      0.040200
     75 H16       -14.6680    3.7040   -3.9410 hc        1 OZ2      0.038200
     76 H16A      -15.1420    3.7000   -2.1990 hc        1 OZ2      0.038200
     77 H17       -14.1410    5.9930   -1.9210 hc        1 OZ2      0.039200
     78 H17A      -13.6680    5.9980   -3.6630 hc        1 OZ2      0.039200
     79 H18       -16.0860    5.7650   -4.3240 hc        1 OZ2      0.031033
     80 H18A      -16.5610    5.7600   -2.5770 hc        1 OZ2      0.031033
     81 H18B      -15.8030    7.2360   -3.3050 hc        1 OZ2      0.031033
     82 H1G         2.1070   -4.7290    3.1960 h1        1 OZ2      0.066700
     83 H1GA        3.0400   -4.8730    1.6110 h1        1 OZ2      0.066700
     84 H2B         4.4190   -0.5810    0.1950 hc        1 OZ2      0.079700
     85 H2BA        4.7930    0.4750    1.6180 hc        1 OZ2      0.079700
     86 H2G         4.6260   -3.8620    3.0550 h1        1 OZ2      0.055700
     87 H3B         7.2660   -0.1040    1.3420 hc        1 OZ2      0.053200
     88 H3BA        6.8540   -1.0430   -0.1440 hc        1 OZ2      0.053200
     89 H3G         3.1120   -3.4630    5.0030 h1        1 OZ2      0.043200
     90 H3GA        4.2920   -2.0860    4.6340 h1        1 OZ2      0.043200
     91 H4B         5.8470    1.0310   -1.1760 hc        1 OZ2      0.042200
     92 H4BA        6.2800    1.9720    0.3030 hc        1 OZ2      0.042200
     93 H5B         8.7110    1.4000   -0.0430 hc        1 OZ2      0.049200
     94 H5BA        8.2820    0.4570   -1.5200 hc        1 OZ2      0.049200
     95 H6B         7.1220    3.1630   -1.7750 ha        1 OZ2      0.122000
     96 H7B         9.1560    3.9180   -2.9120 ha        1 OZ2      0.118000
     97 H8B        10.7670    2.1270   -1.2040 hc        1 OZ2      0.048200
     98 H8BA       10.3060    1.2210   -2.6930 hc        1 OZ2      0.048200
     99 H9B        11.2310    3.0870   -4.1170 hc        1 OZ2      0.039200
    100 H9BA       11.6910    3.9960   -2.6260 hc        1 OZ2      0.039200
    101 HB0        13.1560    2.0770   -1.9080 hc        1 OZ2      0.040200
    102 HB0A       12.6960    1.1680   -3.3980 hc        1 OZ2      0.040200
    103 HB1        13.6290    3.0260   -4.8200 hc        1 OZ2      0.038200
    104 HB1A       14.0890    3.9350   -3.3300 hc        1 OZ2      0.038200
    105 HB2        15.5520    2.0170   -2.6110 hc        1 OZ2      0.038700
    106 HB2A       15.0920    1.1080   -4.1010 hc        1 OZ2      0.038700
    107 HB3        16.0580    2.9460   -5.5240 hc        1 OZ2      0.030700
    108 HB3A       16.5200    3.8580   -4.0300 hc        1 OZ2      0.030700
    109 HB3B       17.2880    2.2560   -4.3870 hc        1 OZ2      0.030700
    110 HG1         0.8380    0.1970    3.5470 h1        1 OZ2      0.050700
    111 HG1A       -0.4610    0.2830    4.8380 h1        1 OZ2      0.050700
    112 HG2        -0.7880   -0.0480    1.7470 h1        1 OZ2      0.045700
    113 HOG2       -2.2120   -1.3580    3.3990 ho        1 OZ2      0.441000
    114 HG3        -2.0140    1.8960    3.8620 h1        1 OZ2      0.044700
    115 HG3A       -0.6790    2.3050    2.6660 h1        1 OZ2      0.044700
    116 HOG3       -3.2130    1.3670    1.8660 ho        1 OZ2      0.413000
@<TRIPOS>BOND
     1    1   30 1   
     2    1   46 1   
     3    1   47 1   
     4    1   48 1   
     5    2    3 2   
     6    2    4 1   
     7    2   24 1   
     8    4    5 1   
     9    4   49 1   
    10    4   50 1   
    11    5    6 1   
    12    5   51 1   
    13    5   52 1   
    14    6    7 1   
    15    6   53 1   
    16    6   54 1   
    17    7    8 1   
    18    7   55 1   
    19    7   56 1   
    20    8    9 1   
    21    8   57 1   
    22    8   58 1   
    23    9   10 1   
    24    9   59 1   
    25    9   60 1   
    26   10   11 1   
    27   10   61 1   
    28   10   62 1   
    29   11   12 2   
    30   11   63 1   
    31   12   13 1   
    32   12   64 1   
    33   13   14 1   
    34   13   65 1   
    35   13   66 1   
    36   14   15 1   
    37   14   67 1   
    38   14   68 1   
    39   15   16 1   
    40   15   69 1   
    41   15   70 1   
    42   16   17 1   
    43   16   71 1   
    44   16   72 1   
    45   17   18 1   
    46   17   73 1   
    47   17   74 1   
    48   18   19 1   
    49   18   75 1   
    50   18   76 1   
    51   19   20 1   
    52   19   77 1   
    53   19   78 1   
    54   20   79 1   
    55   20   80 1   
    56   20   81 1   
    57   21   22 2   
    58   21   25 1   
    59   21   27 1   
    60   23   24 1   
    61   23   26 1   
    62   23   82 1   
    63   23   83 1   
    64   25   28 1   
    65   25   84 1   
    66   25   85 1   
    67   26   27 1   
    68   26   29 1   
    69   26   86 1   
    70   28   31 1   
    71   28   87 1   
    72   28   88 1   
    73   29   30 1   
    74   29   89 1   
    75   29   90 1   
    76   31   32 1   
    77   31   91 1   
    78   31   92 1   
    79   32   33 1   
    80   32   93 1   
    81   32   94 1   
    82   33   34 2   
    83   33   95 1   
    84   34   35 1   
    85   34   96 1   
    86   35   36 1   
    87   35   97 1   
    88   35   98 1   
    89   36   37 1   
    90   36   99 1   
    91   36  100 1   
    92   37   38 1   
    93   37  101 1   
    94   37  102 1   
    95   38   39 1   
    96   38  103 1   
    97   38  104 1   
    98   39   40 1   
    99   39  105 1   
   100   39  106 1   
   101   40  107 1   
   102   40  108 1   
   103   40  109 1   
   104   41   42 1   
   105   41   48 1   
   106   41  110 1   
   107   41  111 1   
   108   42   43 1   
   109   42   44 1   
   110   42  112 1   
   111   43  113 1   
   112   44   45 1   
   113   44  114 1   
   114   44  115 1   
   115   45  116 1   
@<TRIPOS>SUBSTRUCTURE
     1 OZ2         1 TEMP              0 ****  ****    0 ROOT
