@<TRIPOS>MOLECULE
OZJ
   31    33     1     0     0
SMALL
bcc


@<TRIPOS>ATOM
      1 OAD         0.0340    0.2560   -0.1370 o         1 OZJ     -0.521100
      2 CAF         1.2600    0.1980   -0.0320 c         1 OZJ      0.575500
      3 CAP         1.9620    0.1000    1.2600 ca        1 OZJ     -0.196600
      4 CAJ         3.3610    0.0680    1.2860 ca        1 OZJ     -0.077000
      5 CAH         1.2400    0.0330    2.4570 ca        1 OZJ     -0.058000
      6 CAG         1.9150   -0.0680    3.6730 ca        1 OZJ     -0.141000
      7 CAI         3.3070   -0.0990    3.7020 ca        1 OZJ     -0.072000
      8 CAQ         4.0400   -0.0310    2.5070 ca        1 OZJ     -0.065800
      9 CAS         5.4930   -0.0710    2.5470 cc        1 OZJ      0.026700
     10 NAM         6.2830    0.7210    1.6960 na        1 OZJ     -0.278100
     11 C4          7.6330    0.4750    1.9780 ca        1 OZJ      0.524800
     12 N3          8.7160    1.0450    1.3800 nb        1 OZJ     -0.805000
     13 C2          9.9220    0.5910    1.8870 ca        1 OZJ      0.928900
     14 NAB        11.0800    1.2070    1.4040 nh        1 OZJ     -0.930500
     15 N1         10.1080   -0.3870    2.8640 nb        1 OZJ     -0.841000
     16 C6          8.9990   -0.9270    3.4480 ca        1 OZJ      0.781200
     17 NAC         9.1460   -1.8470    4.4580 nh        1 OZJ     -0.961500
     18 C5          7.6920   -0.5210    3.0270 ca        1 OZJ     -0.400400
     19 CAR         6.3310   -0.8460    3.3690 cd        1 OZJ      0.008100
     20 CAE         5.9230   -1.7800    4.3320 ch        1 OZJ      0.226500
     21 NAA         5.5910   -2.5600    5.1320 n1        1 OZJ     -0.383800
     22 HAF         1.9210    0.2170   -0.9280 h4        1 OZJ      0.000200
     23 HAJ         3.9230    0.1040    0.3390 ha        1 OZJ      0.137000
     24 HAH         0.1380    0.0590    2.4230 ha        1 OZJ      0.160000
     25 HAG         1.3470   -0.1240    4.6140 ha        1 OZJ      0.147000
     26 HAI         3.8390   -0.1770    4.6640 ha        1 OZJ      0.151000
     27 HAM         5.9400    1.3960    1.0620 hn        1 OZJ      0.316700
     28 HAB1       11.9420    0.7440    1.5730 hn        1 OZJ      0.430300
     29 HAB2       11.0010    1.7110    0.5520 hn        1 OZJ      0.430300
     30 HAC1        8.3470   -2.3380    4.7690 hn        1 OZJ      0.443800
     31 HAC2       10.0440   -2.1890    4.6970 hn        1 OZJ      0.443800
@<TRIPOS>BOND
     1    1    2 2   
     2    2    3 1   
     3    2   22 1   
     4    3    4 ar  
     5    3    5 ar  
     6    4    8 ar  
     7    4   23 1   
     8    5    6 ar  
     9    5   24 1   
    10    6    7 ar  
    11    6   25 1   
    12    7    8 ar  
    13    7   26 1   
    14    8    9 1   
    15    9   10 1   
    16    9   19 2   
    17   10   11 1   
    18   10   27 1   
    19   11   12 ar  
    20   11   18 ar  
    21   12   13 ar  
    22   13   14 1   
    23   13   15 ar  
    24   14   28 1   
    25   14   29 1   
    26   15   16 ar  
    27   16   17 1   
    28   16   18 ar  
    29   17   30 1   
    30   17   31 1   
    31   18   19 1   
    32   19   20 1   
    33   20   21 3   
@<TRIPOS>SUBSTRUCTURE
     1 OZJ         1 TEMP              0 ****  ****    0 ROOT
