@<TRIPOS>MOLECULE
OZJ
   31    33     1     0     0
SMALL
bcc


@<TRIPOS>ATOM
      1 OAD         0.0440    0.1850   -0.1460 o         1 OZJ     -0.520100
      2 CAF         1.2700    0.1400   -0.0280 c         1 OZJ      0.575500
      3 CAP         1.9600    0.0620    1.2710 ca        1 OZJ     -0.196600
      4 CAJ         3.3580    0.0480    1.3120 ca        1 OZJ     -0.077000
      5 CAH         1.2260   -0.0040    2.4620 ca        1 OZJ     -0.058000
      6 CAG         1.8890   -0.0860    3.6850 ca        1 OZJ     -0.141000
      7 CAI         3.2810   -0.0980    3.7290 ca        1 OZJ     -0.072000
      8 CAQ         4.0250   -0.0310    2.5410 ca        1 OZJ     -0.066800
      9 CAS         5.4780   -0.0510    2.5960 cc        1 OZJ      0.026700
     10 NAM         6.2670    0.7460    1.7490 na        1 OZJ     -0.278100
     11 C4          7.6160    0.5150    2.0410 ca        1 OZJ      0.523800
     12 N3          8.6990    1.0970    1.4530 nb        1 OZJ     -0.803000
     13 C2          9.9060    0.6290    1.9450 ca        1 OZJ      0.925900
     14 NAB        11.0650    1.0910    1.3130 nv        1 OZJ     -0.929500
     15 N1         10.0930   -0.2970    2.9700 nb        1 OZJ     -0.838000
     16 C6          8.9850   -0.8440    3.5490 ca        1 OZJ      0.775200
     17 NAC         9.1320   -1.7180    4.6020 nv        1 OZJ     -0.954500
     18 C5          7.6780   -0.4710    3.1000 ca        1 OZJ     -0.397400
     19 CAR         6.3180   -0.8110    3.4310 cd        1 OZJ      0.008100
     20 CAE         5.9130   -1.7430    4.3980 ch        1 OZJ      0.226500
     21 NAA         5.5830   -2.5220    5.1990 n1        1 OZJ     -0.382800
     22 HAF         1.9390    0.1550   -0.9180 h4        1 OZJ      0.000200
     23 HAJ         3.9290    0.0840    0.3710 ha        1 OZJ      0.137000
     24 HAH         0.1240    0.0080    2.4160 ha        1 OZJ      0.160000
     25 HAG         1.3120   -0.1410    4.6210 ha        1 OZJ      0.147000
     26 HAI         3.8040   -0.1610    4.6970 ha        1 OZJ      0.151000
     27 HAM         5.9210    1.4010    1.0960 hn        1 OZJ      0.316700
     28 HAB1       10.9790    1.9150    0.7640 hn        1 OZJ      0.429800
     29 HAB2       11.9220    0.9690    1.8000 hn        1 OZJ      0.429800
     30 HAC1       10.0320   -2.0640    4.8320 hn        1 OZJ      0.440300
     31 HAC2        8.3420   -2.2460    4.8790 hn        1 OZJ      0.440300
@<TRIPOS>BOND
     1    1    2 2   
     2    2    3 1   
     3    2   22 1   
     4    3    4 ar  
     5    3    5 ar  
     6    4    8 ar  
     7    4   23 1   
     8    5    6 ar  
     9    5   24 1   
    10    6    7 ar  
    11    6   25 1   
    12    7    8 ar  
    13    7   26 1   
    14    8    9 1   
    15    9   10 1   
    16    9   19 2   
    17   10   11 1   
    18   10   27 1   
    19   11   12 ar  
    20   11   18 ar  
    21   12   13 ar  
    22   13   14 1   
    23   13   15 ar  
    24   14   28 1   
    25   14   29 1   
    26   15   16 ar  
    27   16   17 1   
    28   16   18 ar  
    29   17   30 1   
    30   17   31 1   
    31   18   19 1   
    32   19   20 1   
    33   20   21 3   
@<TRIPOS>SUBSTRUCTURE
     1 OZJ         1 TEMP              0 ****  ****    0 ROOT
