@<TRIPOS>MOLECULE
OZR
   40    38     1     0     0
SMALL
bcc


@<TRIPOS>ATOM
      1 C1          3.5760    2.4190   -2.2030 c3        1 OZR     -0.026000
      2 C2          4.8030    1.5490   -1.9130 c3        1 OZR     -0.030000
      3 C3          4.4660    0.7210   -0.7290 c3        1 OZR     -0.060000
      4 O4          3.3970    1.2160   -0.2440 os        1 OZR     -0.279000
      5 C5          2.5780    1.9090   -1.4750 c3        1 OZR      0.055000
      6 C6          1.6650    0.9530   -2.2440 c2        1 OZR     -0.196000
      7 O7          3.8390    3.8280   -1.7940 oh        1 OZR     -0.324000
      8 O8          5.9040    2.3550   -1.6350 oh        1 OZR     -0.320000
      9 C9          0.4630    0.5900   -1.7200 c1        1 OZR     -0.159000
     10 C10         0.0310    1.1310   -0.3770 c2        1 OZR     -0.010000
     11 N11        -1.1800    0.4500    0.0510 n         1 OZR     -0.347000
     12 C12        -1.0930   -0.6950    0.8850 c2        1 OZR      0.347000
     13 C13        -2.3930   -1.3520    1.4490 c2        1 OZR     -0.138000
     14 C14        -2.3120   -2.5360    2.1780 c2        1 OZR      0.135000
     15 C15        -3.4820   -3.1950    2.5760 c1        1 OZR     -0.018000
     16 C16        -4.7260   -2.6660    2.2430 c1        1 OZR     -0.100000
     17 C17        -4.8090   -1.4870    1.5170 c1        1 OZR     -0.144000
     18 C18        -3.6370   -0.8250    1.1170 c1        1 OZR     -0.012000
     19 N19        -6.0970   -0.9150    1.2190 no        1 OZR      0.575000
     20 O20        -1.0610   -3.1380    2.3990 oh        1 OZR     -0.248000
     21 O21        -3.3970   -4.4610    3.2670 oh        1 OZR     -0.267000
     22 O22        -0.0090   -1.2220    1.0850 o         1 OZR     -0.357000
     23 O23        -7.1200   -1.5610    1.4330 o         1 OZR     -0.353500
     24 O24        -6.1840    0.3710    0.7720 o         1 OZR     -0.353500
     25 H1          3.3540    2.3800   -3.1490 h1        1 OZR      0.100000
     26 H2          4.9940    0.9730   -2.6830 h1        1 OZR      0.134000
     27 H3          5.1930    0.7690   -0.0660 h1        1 OZR      0.104500
     28 H3A         4.3150   -0.2130   -1.0010 h1        1 OZR      0.104500
     29 H5          1.9440    2.5960   -1.1670 h1        1 OZR      0.136000
     30 H6          1.9440    0.6020   -3.1140 ha        1 OZR      0.129000
     31 HO7         3.8160    4.3550   -2.5140 ho        1 OZR      0.218000
     32 HO8         6.6330    2.0090   -2.0250 ho        1 OZR      0.216000
     33 H9         -0.1170   -0.0160   -2.2080 ha        1 OZR      0.127000
     34 H10         0.7360    0.9790    0.2740 h4        1 OZR      0.126500
     35 H10A       -0.1430    2.0920   -0.4530 h4        1 OZR      0.126500
     36 HN11       -1.9800    0.7410   -0.2270 hn        1 OZR      0.230000
     37 H16        -5.5390   -3.1250    2.5200 ha        1 OZR      0.178000
     38 H18        -3.6970    0.0110    0.6020 ha        1 OZR      0.199000
     39 HO20       -0.9160   -3.2090    3.2790 ho        1 OZR      0.257000
     40 HO21       -3.7590   -4.3820    4.0770 ho        1 OZR      0.242000
@<TRIPOS>BOND
     1    1    2 1   
     2    1    5 1   
     3    1    7 1   
     4    1   25 1   
     5    2    3 1   
     6    2    8 1   
     7    2   26 1   
     8    3    4 1   
     9    3   27 1   
    10    3   28 1   
    11    4    5 1   
    12    5    6 1   
    13    5   29 1   
    14    6    9 1   
    15    6   30 1   
    16    7   31 1   
    17    8   32 1   
    18    9   33 1   
    19   10   11 1   
    20   10   34 1   
    21   10   35 1   
    22   11   12 1   
    23   11   36 1   
    24   12   13 1   
    25   12   22 1   
    26   13   14 1   
    27   13   18 1   
    28   14   15 1   
    29   14   20 1   
    30   15   21 1   
    31   16   17 1   
    32   16   37 1   
    33   17   19 1   
    34   18   38 1   
    35   19   23 1   
    36   19   24 1   
    37   20   39 1   
    38   21   40 1   
@<TRIPOS>SUBSTRUCTURE
     1 OZR         1 TEMP              0 ****  ****    0 ROOT
