@<TRIPOS>MOLECULE
OZR
   40    41     1     0     0
SMALL
bcc


@<TRIPOS>ATOM
      1 C1          0.8160   -2.4350    0.7030 c3        1 OZR      0.081100
      2 C2          2.0260   -1.5040    0.4690 c3        1 OZR      0.086100
      3 C3          1.5000   -0.0860    0.7240 c3        1 OZR      0.122400
      4 O4          0.1020   -0.1540    1.0200 os        1 OZR     -0.413600
      5 C5         -0.3350   -1.5130    1.1660 c3        1 OZR      0.136300
      6 C6         -0.7090   -1.7780    2.5840 c2        1 OZR     -0.177200
      7 O7          0.4670   -3.1420   -0.4680 oh        1 OZR     -0.612800
      8 O8          2.4580   -1.5820   -0.8760 oh        1 OZR     -0.595800
      9 C9         -1.5980   -2.6880    2.9870 c2        1 OZR     -0.181200
     10 C10        -2.4290   -3.5740    2.1090 c3        1 OZR      0.119200
     11 N11        -1.7090   -4.4780    1.2540 n         1 OZR     -0.568900
     12 C12        -1.4820   -5.7950    1.6030 c         1 OZR      0.682700
     13 C13        -0.6760   -6.6070    0.6370 ca        1 OZR     -0.163600
     14 C14        -1.1530   -7.8530    0.1910 ca        1 OZR      0.211100
     15 C15        -0.3430   -8.6360   -0.6750 ca        1 OZR      0.020100
     16 C16         0.9020   -8.1900   -1.1000 ca        1 OZR     -0.098000
     17 C17         1.3500   -6.9310   -0.6550 ca        1 OZR     -0.195200
     18 C18         0.5700   -6.1490    0.2060 ca        1 OZR     -0.027000
     19 N19         2.6650   -6.4240   -1.1160 no        1 OZR      0.324200
     20 O20        -2.3950   -8.2530    0.5810 oh        1 OZR     -0.452100
     21 O21        -0.8890   -9.8440   -1.0590 oh        1 OZR     -0.510100
     22 O22        -1.9350   -6.2930    2.6500 o         1 OZR     -0.579100
     23 O23         3.3290   -7.1080   -1.8470 o         1 OZR     -0.215000
     24 O24         3.0350   -5.3380   -0.7500 o         1 OZR     -0.215000
     25 H1          1.0420   -3.2280    1.4650 h1        1 OZR      0.093700
     26 H2          2.8700   -1.7590    1.1620 h1        1 OZR      0.063700
     27 H3          2.0100    0.3810    1.6050 h1        1 OZR      0.067200
     28 H3A         1.6040    0.5650   -0.1810 h1        1 OZR      0.067200
     29 H5         -1.2280   -1.6170    0.4870 h1        1 OZR      0.077700
     30 H6         -0.1960   -1.1310    3.3170 ha        1 OZR      0.139000
     31 HO7         0.4370   -2.5090   -1.2010 ho        1 OZR      0.430000
     32 HO8         2.8110   -2.4750   -1.0040 ho        1 OZR      0.428000
     33 H9         -1.7980   -2.8120    4.0660 ha        1 OZR      0.136000
     34 H10        -3.0660   -2.9150    1.4460 h1        1 OZR      0.069200
     35 H10A       -3.1180   -4.1850    2.7640 h1        1 OZR      0.069200
     36 HN11       -1.2250   -4.0920    0.4750 hn        1 OZR      0.328500
     37 H16         1.5270   -8.8010   -1.7720 ha        1 OZR      0.175000
     38 H18         0.9420   -5.1600    0.5350 ha        1 OZR      0.184000
     39 HO20       -2.5430   -9.1620    0.2680 ho        1 OZR      0.451000
     40 HO21       -0.2200  -10.3310   -1.5610 ho        1 OZR      0.440000
@<TRIPOS>BOND
     1    1    2 1   
     2    1    5 1   
     3    1    7 1   
     4    1   25 1   
     5    2    3 1   
     6    2    8 1   
     7    2   26 1   
     8    3    4 1   
     9    3   27 1   
    10    3   28 1   
    11    4    5 1   
    12    5    6 1   
    13    5   29 1   
    14    6    9 2   
    15    6   30 1   
    16    7   31 1   
    17    8   32 1   
    18    9   10 1   
    19    9   33 1   
    20   10   11 1   
    21   10   34 1   
    22   10   35 1   
    23   11   12 1   
    24   11   36 1   
    25   12   13 1   
    26   12   22 2   
    27   13   14 ar  
    28   13   18 ar  
    29   14   15 ar  
    30   14   20 1   
    31   15   16 ar  
    32   15   21 1   
    33   16   17 ar  
    34   16   37 1   
    35   17   18 ar  
    36   17   19 1   
    37   18   38 1   
    38   19   23 1   
    39   19   24 1   
    40   20   39 1   
    41   21   40 1   
@<TRIPOS>SUBSTRUCTURE
     1 OZR         1 TEMP              0 ****  ****    0 ROOT
