@<TRIPOS>MOLECULE
OZR
   41    42     1     0     0
SMALL
bcc


@<TRIPOS>ATOM
      1 C1          0.9500   -2.4320    0.2230 c3        1 OZR      0.114100
      2 C2          1.9520   -1.3570   -0.2560 c3        1 OZR      0.092100
      3 C3          2.0150   -0.3380    0.8910 c3        1 OZR      0.091400
      4 O4          1.0440   -0.6930    1.8850 os        1 OZR     -0.392600
      5 C5          0.2270   -1.7750    1.4270 c3        1 OZR      0.113300
      6 C6          0.0440   -2.7300    2.5580 c2        1 OZR     -0.068200
      7 O7          0.0130   -2.8560   -0.7420 oh        1 OZR     -0.650800
      8 O8          1.4160   -0.7710   -1.4270 oh        1 OZR     -0.613800
      9 C9         -1.0280   -3.5050    2.7560 c2        1 OZR     -0.266200
     10 C10        -2.2720   -3.4760    1.9420 c3        1 OZR      0.157000
     11 N11        -2.1730   -4.2920    0.6850 n4        1 OZR     -0.685800
     12 C12        -2.2600   -5.7810    0.9580 c         1 OZR      0.585700
     13 C13        -1.1100   -6.5740    0.5120 ca        1 OZR     -0.224600
     14 C14        -1.3350   -7.8280   -0.0910 ca        1 OZR      0.238100
     15 C15        -0.2180   -8.6260   -0.4730 ca        1 OZR      0.050100
     16 C16         1.0820   -8.1820   -0.2700 ca        1 OZR     -0.071000
     17 C17         1.2790   -6.9180    0.3240 ca        1 OZR     -0.177200
     18 C18         0.2030   -6.1260    0.7230 ca        1 OZR     -0.034000
     19 N19         2.6660   -6.4090    0.5230 no        1 OZR      0.324200
     20 O20        -2.6180   -8.2070   -0.3120 oh        1 OZR     -0.461100
     21 O21        -0.5480   -9.8270   -1.0510 oh        1 OZR     -0.495100
     22 O22        -3.2850   -6.1660    1.4980 o         1 OZR     -0.397100
     23 O23         3.5870   -7.1290    0.2750 o         1 OZR     -0.187000
     24 O24         2.8000   -5.2800    0.9180 o         1 OZR     -0.187000
     25 H1          1.5050   -3.3630    0.5330 h1        1 OZR      0.104700
     26 H2          2.9560   -1.8130   -0.4610 h1        1 OZR      0.083700
     27 H3          3.0080   -0.3460    1.4090 h1        1 OZR      0.080700
     28 H3A         1.7630    0.6940    0.5350 h1        1 OZR      0.080700
     29 H5         -0.7550   -1.3350    1.0930 h1        1 OZR      0.062700
     30 H6          0.8890   -2.7550    3.2740 ha        1 OZR      0.178000
     31 HO7        -0.1360   -2.1430   -1.3810 ho        1 OZR      0.459000
     32 HO8         2.1420   -0.3410   -1.8960 ho        1 OZR      0.439000
     33 H9         -1.0650   -4.1830    3.6270 ha        1 OZR      0.164000
     34 H10        -3.1400   -3.8840    2.5410 hx        1 OZR      0.112700
     35 H10A       -2.5200   -2.4190    1.6280 hx        1 OZR      0.112700
     36 HN11       -1.2900   -4.0700    0.1980 hn        1 OZR      0.471300
     37 H16         1.9500   -8.8010   -0.5670 ha        1 OZR      0.199000
     38 H18         0.3920   -5.1560    1.2230 ha        1 OZR      0.176000
     39 HO20       -2.6330   -9.1130   -0.6780 ho        1 OZR      0.483000
     40 HO21        0.2650  -10.3350   -1.2070 ho        1 OZR      0.463000
     41 H112       -2.9560   -4.0390    0.0720 hn        1 OZR      0.471300
@<TRIPOS>BOND
     1    1    2 1   
     2    1    5 1   
     3    1    7 1   
     4    1   25 1   
     5    2    3 1   
     6    2    8 1   
     7    2   26 1   
     8    3    4 1   
     9    3   27 1   
    10    3   28 1   
    11    4    5 1   
    12    5    6 1   
    13    5   29 1   
    14    6    9 2   
    15    6   30 1   
    16    7   31 1   
    17    8   32 1   
    18    9   10 1   
    19    9   33 1   
    20   10   11 1   
    21   10   34 1   
    22   10   35 1   
    23   11   12 1   
    24   11   36 1   
    25   11   41 1   
    26   12   13 1   
    27   12   22 2   
    28   13   14 ar  
    29   13   18 ar  
    30   14   15 ar  
    31   14   20 1   
    32   15   16 ar  
    33   15   21 1   
    34   16   17 ar  
    35   16   37 1   
    36   17   18 ar  
    37   17   19 1   
    38   18   38 1   
    39   19   23 1   
    40   19   24 1   
    41   20   39 1   
    42   21   40 1   
@<TRIPOS>SUBSTRUCTURE
     1 OZR         1 TEMP              0 ****  ****    0 ROOT
