@<TRIPOS>MOLECULE
OZR
   41    42     1     0     0
SMALL
bcc


@<TRIPOS>ATOM
      1 C1          0.9670   -2.4270    0.2170 c3        1 OZR      0.114100
      2 C2          1.9880   -1.3590   -0.2360 c3        1 OZR      0.092100
      3 C3          2.0460   -0.3530    0.9230 c3        1 OZR      0.091400
      4 O4          1.0580   -0.7080    1.8990 os        1 OZR     -0.392600
      5 C5          0.2360   -1.7760    1.4190 c3        1 OZR      0.113300
      6 C6          0.0270   -2.7410    2.5360 c2        1 OZR     -0.068200
      7 O7          0.0380   -2.8300   -0.7650 oh        1 OZR     -0.650800
      8 O8          1.4730   -0.7530   -1.4080 oh        1 OZR     -0.613800
      9 C9         -1.0560   -3.5060    2.7110 c2        1 OZR     -0.266200
     10 C10        -2.2880   -3.4560    1.8800 c3        1 OZR      0.157000
     11 N11        -2.1810   -4.2600    0.6170 ny        1 OZR     -0.685800
     12 C12        -2.2870   -5.7500    0.8720 c         1 OZR      0.585700
     13 C13        -1.1390   -6.5500    0.4340 ca        1 OZR     -0.224600
     14 C14        -1.3690   -7.7960   -0.1850 ca        1 OZR      0.238100
     15 C15        -0.2550   -8.6010   -0.5600 ca        1 OZR      0.050100
     16 C16         1.0460   -8.1740   -0.3350 ca        1 OZR     -0.071000
     17 C17         1.2480   -6.9170    0.2740 ca        1 OZR     -0.177200
     18 C18         0.1750   -6.1190    0.6670 ca        1 OZR     -0.034000
     19 N19         2.6370   -6.4250    0.4960 no        1 OZR      0.324200
     20 O20        -2.6530   -8.1600   -0.4260 oh        1 OZR     -0.461100
     21 O21        -0.5900   -9.7940   -1.1540 oh        1 OZR     -0.495100
     22 O22        -3.3230   -6.1300    1.3950 o         1 OZR     -0.397100
     23 O23         3.5550   -7.1520    0.2530 o         1 OZR     -0.187000
     24 O24         2.7780   -5.3010    0.9050 o         1 OZR     -0.187000
     25 H1          1.5080   -3.3670    0.5240 h1        1 OZR      0.104700
     26 H2          2.9890   -1.8230   -0.4330 h1        1 OZR      0.083700
     27 H3          3.0320   -0.3790    1.4540 h1        1 OZR      0.080700
     28 H3A         1.8110    0.6860    0.5750 h1        1 OZR      0.080700
     29 H5         -0.7370   -1.3210    1.0770 h1        1 OZR      0.062700
     30 H6          0.8620   -2.7830    3.2640 ha        1 OZR      0.178000
     31 HO7        -0.0940   -2.1080   -1.3980 ho        1 OZR      0.459000
     32 HO8         2.2100   -0.3260   -1.8630 ho        1 OZR      0.439000
     33 H9         -1.1110   -4.1930    3.5740 ha        1 OZR      0.164000
     34 H10        -3.1680   -3.8600    2.4640 hx        1 OZR      0.112700
     35 H10A       -2.5200   -2.3920    1.5750 hx        1 OZR      0.112700
     36 HN11       -2.9530   -3.9910   -0.0040 hn        1 OZR      0.471300
     37 H16         1.9110   -8.7980   -0.6260 ha        1 OZR      0.199000
     38 H18         0.3680   -5.1550    1.1790 ha        1 OZR      0.176000
     39 HO20       -2.6730   -9.0620   -0.8020 ho        1 OZR      0.483000
     40 HO21        0.2200  -10.3090   -1.3050 ho        1 OZR      0.463000
     41 H112       -1.2880   -4.0420    0.1440 hn        1 OZR      0.471300
@<TRIPOS>BOND
     1    1    2 1   
     2    1    5 1   
     3    1    7 1   
     4    1   25 1   
     5    2    3 1   
     6    2    8 1   
     7    2   26 1   
     8    3    4 1   
     9    3   27 1   
    10    3   28 1   
    11    4    5 1   
    12    5    6 1   
    13    5   29 1   
    14    6    9 2   
    15    6   30 1   
    16    7   31 1   
    17    8   32 1   
    18    9   10 1   
    19    9   33 1   
    20   10   11 1   
    21   10   34 1   
    22   10   35 1   
    23   11   12 1   
    24   11   36 1   
    25   11   41 1   
    26   12   13 1   
    27   12   22 2   
    28   13   14 ar  
    29   13   18 ar  
    30   14   15 ar  
    31   14   20 1   
    32   15   16 ar  
    33   15   21 1   
    34   16   17 ar  
    35   16   37 1   
    36   17   18 ar  
    37   17   19 1   
    38   18   38 1   
    39   19   23 1   
    40   19   24 1   
    41   20   39 1   
    42   21   40 1   
@<TRIPOS>SUBSTRUCTURE
     1 OZR         1 TEMP              0 ****  ****    0 ROOT
