@<TRIPOS>MOLECULE
OZR
   40    41     1     0     0
SMALL
bcc


@<TRIPOS>ATOM
      1 C1         -4.8200    0.2920    1.0430 c3        1 OZR      0.134100
      2 C2         -4.7930   -1.2380    0.8270 c3        1 OZR      0.078100
      3 C3         -4.6770   -1.4280   -0.6900 c3        1 OZR      0.096400
      4 O4         -4.3550   -0.1730   -1.2880 os        1 OZR     -0.415600
      5 C5         -4.4380    0.8950   -0.3300 c3        1 OZR      0.161300
      6 C6         -3.1550    1.6500   -0.2620 c2        1 OZR     -0.161200
      7 O7         -6.0940    0.8040    1.3750 oh        1 OZR     -0.591800
      8 O8         -5.9830   -1.7780    1.3680 oh        1 OZR     -0.599800
      9 C9         -2.1300    1.4660   -1.0950 c2        1 OZR     -0.191200
     10 C10        -0.8920    2.3070   -1.0480 c3        1 OZR      0.113200
     11 N11         0.3310    1.5440   -0.9890 n         1 OZR     -0.539900
     12 C12         1.1610    1.5710    0.1060 c         1 OZR      0.677700
     13 C13         2.3140    0.6250    0.1370 ca        1 OZR     -0.202600
     14 C14         3.5360    1.0290    0.7030 ca        1 OZR      0.158100
     15 C15         4.6380    0.1310    0.7240 ca        1 OZR      0.090100
     16 C16         4.5130   -1.1600    0.2130 ca        1 OZR     -0.061000
     17 C17         3.2730   -1.5520   -0.3230 ca        1 OZR     -0.188200
     18 C18         2.1830   -0.6750   -0.3620 ca        1 OZR     -0.047000
     19 N19         3.1190   -2.9310   -0.8560 no        1 OZR      0.319200
     20 O20         3.7940    2.2550    1.2430 oh        1 OZR     -0.512100
     21 O21         5.8620    0.4820    1.2360 oh        1 OZR     -0.482100
     22 O22         1.0030    2.4080    1.0270 o         1 OZR     -0.634100
     23 O23         4.0540   -3.6820   -0.8140 o         1 OZR     -0.206000
     24 O24         2.0560   -3.2560   -1.3170 o         1 OZR     -0.206000
     25 H1         -4.0900    0.5840    1.8450 h1        1 OZR      0.058700
     26 H2         -3.9110   -1.6920    1.3540 h1        1 OZR      0.055700
     27 H3         -3.8530   -2.1330   -0.9670 h1        1 OZR      0.056700
     28 H3A        -5.6470   -1.7740   -1.1330 h1        1 OZR      0.056700
     29 H5         -5.2600    1.5800   -0.6920 h1        1 OZR      0.097700
     30 H6         -3.1340    2.4180    0.5310 ha        1 OZR      0.136000
     31 HO7        -6.5050    0.1970    2.0060 ho        1 OZR      0.430000
     32 HO8        -6.0580   -2.6840    1.0440 ho        1 OZR      0.419000
     33 H9         -2.1700    0.6960   -1.8840 ha        1 OZR      0.142000
     34 H10        -0.8580    2.9290   -1.9930 h1        1 OZR      0.074200
     35 H10A       -0.9230    3.0140   -0.1680 h1        1 OZR      0.074200
     36 HN11        0.4410    0.8210   -1.6610 hn        1 OZR      0.316500
     37 H16         5.3740   -1.8510    0.2400 ha        1 OZR      0.194000
     38 H18         1.2200   -1.0290   -0.7720 ha        1 OZR      0.172000
     39 HO20        2.9620    2.7520    1.3620 ho        1 OZR      0.481000
     40 HO21        5.7900    1.3740    1.6150 ho        1 OZR      0.447000
@<TRIPOS>BOND
     1    1    2 1   
     2    1    5 1   
     3    1    7 1   
     4    1   25 1   
     5    2    3 1   
     6    2    8 1   
     7    2   26 1   
     8    3    4 1   
     9    3   27 1   
    10    3   28 1   
    11    4    5 1   
    12    5    6 1   
    13    5   29 1   
    14    6    9 2   
    15    6   30 1   
    16    7   31 1   
    17    8   32 1   
    18    9   10 1   
    19    9   33 1   
    20   10   11 1   
    21   10   34 1   
    22   10   35 1   
    23   11   12 1   
    24   11   36 1   
    25   12   13 1   
    26   12   22 2   
    27   13   14 ar  
    28   13   18 ar  
    29   14   15 ar  
    30   14   20 1   
    31   15   16 ar  
    32   15   21 1   
    33   16   17 ar  
    34   16   37 1   
    35   17   18 ar  
    36   17   19 1   
    37   18   38 1   
    38   19   23 1   
    39   19   24 1   
    40   20   39 1   
    41   21   40 1   
@<TRIPOS>SUBSTRUCTURE
     1 OZR         1 TEMP              0 ****  ****    0 ROOT
