@<TRIPOS>MOLECULE
OZS
   50    52     1     0     0
SMALL
bcc


@<TRIPOS>ATOM
      1 C1          0.7800   -1.2910    0.1290 c3        1 OZS      0.078100
      2 C2          1.9180   -0.3050   -0.2210 c3        1 OZS      0.081100
      3 C3          2.1430    0.5170    1.0890 c3        1 OZS      0.206800
      4 O4          0.9670    0.3380    1.8870 os        1 OZS     -0.400600
      5 C5          0.2750   -0.8690    1.5300 c3        1 OZS      0.160300
      6 C6          0.5040   -1.9290    2.5510 c2        1 OZS     -0.199200
      7 N7          3.3360    0.1440    1.8110 na        1 OZS     -0.223900
      8 O8         -0.3070   -1.1510   -0.7640 oh        1 OZS     -0.591800
      9 O9          1.5580    0.5460   -1.2800 oh        1 OZS     -0.575800
     10 C10        -0.2720   -3.0060    2.6950 c2        1 OZS     -0.171200
     11 C11         3.8240   -1.1570    2.0610 cc        1 OZS      0.393400
     12 C12         4.1820    1.0230    2.4860 cc        1 OZS     -0.153600
     13 C13         5.1640    0.2210    3.0970 cd        1 OZS      0.195600
     14 N14         4.9310   -1.1350    2.8250 nd        1 OZS     -0.609000
     15 C15         6.3270    0.6900    3.9340 c3        1 OZS      0.637600
     16 C16        -1.4800   -3.2620    1.8460 c3        1 OZS      0.102200
     17 N17        -1.9010   -4.6360    1.7960 n         1 OZS     -0.550900
     18 C18        -3.0780   -5.0700    2.3640 c         1 OZS      0.683700
     19 C19        -3.3990   -6.5250    2.2900 ca        1 OZS     -0.204600
     20 C20        -4.1590   -7.1240    3.3100 ca        1 OZS      0.157100
     21 C21        -4.4530   -8.5140    3.2500 ca        1 OZS      0.090100
     22 C22        -4.0170   -9.2880    2.1760 ca        1 OZS     -0.060000
     23 C23        -3.2820   -8.6620    1.1540 ca        1 OZS     -0.188200
     24 C24        -2.9780   -7.2970    1.2020 ca        1 OZS     -0.046000
     25 N25        -2.8190   -9.4700   -0.0050 no        1 OZS      0.319200
     26 O26        -4.6490   -6.4910    4.4150 oh        1 OZS     -0.512100
     27 O27        -5.1630   -9.1570    4.2330 oh        1 OZS     -0.481100
     28 O28        -3.8630   -4.2670    2.9190 o         1 OZS     -0.630100
     29 F29         6.3350    0.2060    5.2180 f         1 OZS     -0.232633
     30 F30         7.5600    0.3550    3.4320 f         1 OZS     -0.232633
     31 F31         6.3810    2.0560    4.0840 f         1 OZS     -0.232633
     32 O32        -3.1150  -10.6330   -0.0600 o         1 OZS     -0.204500
     33 O33        -2.1560   -8.9350   -0.8540 o         1 OZS     -0.204500
     34 H1          1.1490   -2.3500    0.1250 h1        1 OZS      0.066700
     35 H2          2.8470   -0.8280   -0.5750 h1        1 OZS      0.111700
     36 H3          2.1890    1.6270    0.8760 h2        1 OZS      0.115700
     37 H5         -0.8130   -0.5720    1.4890 h1        1 OZS      0.108700
     38 H6          1.3580   -1.7470    3.2270 ha        1 OZS      0.152000
     39 HO8         0.0380   -1.2910   -1.6580 ho        1 OZS      0.425000
     40 HO9         0.6980    0.9390   -1.0670 ho        1 OZS      0.424000
     41 H10        -0.0550   -3.7410    3.4880 ha        1 OZS      0.141000
     42 H11         3.3380   -2.0540    1.6610 h5        1 OZS      0.066100
     43 H12         4.0470    2.1050    2.4890 h4        1 OZS      0.199000
     44 H16        -2.3320   -2.6320    2.2460 h1        1 OZS      0.085200
     45 H16A       -1.2710   -2.9240    0.7850 h1        1 OZS      0.085200
     46 HN17       -1.2440   -5.3030    1.4670 hn        1 OZS      0.319500
     47 H22        -4.2570  -10.3650    2.1380 ha        1 OZS      0.195000
     48 H24        -2.4210   -6.8400    0.3650 ha        1 OZS      0.174000
     49 HO26       -4.5960   -5.5240    4.3030 ho        1 OZS      0.481000
     50 HO27       -5.4680   -8.4940    4.8750 ho        1 OZS      0.448000
@<TRIPOS>BOND
     1    1    2 1   
     2    1    5 1   
     3    1    8 1   
     4    1   34 1   
     5    2    3 1   
     6    2    9 1   
     7    2   35 1   
     8    3    4 1   
     9    3    7 1   
    10    3   36 1   
    11    4    5 1   
    12    5    6 1   
    13    5   37 1   
    14    6   10 2   
    15    6   38 1   
    16    7   11 1   
    17    7   12 1   
    18    8   39 1   
    19    9   40 1   
    20   10   16 1   
    21   10   41 1   
    22   11   14 2   
    23   11   42 1   
    24   12   13 2   
    25   12   43 1   
    26   13   14 1   
    27   13   15 1   
    28   15   29 1   
    29   15   30 1   
    30   15   31 1   
    31   16   17 1   
    32   16   44 1   
    33   16   45 1   
    34   17   18 1   
    35   17   46 1   
    36   18   19 1   
    37   18   28 2   
    38   19   20 ar  
    39   19   24 ar  
    40   20   21 ar  
    41   20   26 1   
    42   21   22 ar  
    43   21   27 1   
    44   22   23 ar  
    45   22   47 1   
    46   23   24 ar  
    47   23   25 1   
    48   24   48 1   
    49   25   32 1   
    50   25   33 1   
    51   26   49 1   
    52   27   50 1   
@<TRIPOS>SUBSTRUCTURE
     1 OZS         1 TEMP              0 ****  ****    0 ROOT
