@<TRIPOS>MOLECULE
OZS
   50    46     1     0     0
SMALL
bcc


@<TRIPOS>ATOM
      1 C1          0.7510   -1.5250   -3.2100 c3        1 OZS     -0.027000
      2 C2          2.0280   -1.5880   -3.3410 c3        1 OZS     -0.034000
      3 C3          2.5620   -2.0440   -1.9950 c3        1 OZS      0.149000
      4 O4          1.3910   -1.9310   -0.9820 os        1 OZS     -0.254000
      5 C5          0.4330   -1.2040   -1.5910 c3        1 OZS      0.017000
      6 C6         -0.9670   -1.5330   -1.1570 c2        1 OZS     -0.205000
      7 N7          2.9740   -3.2900   -2.0720 n3        1 OZS     -0.179000
      8 O8          0.2230   -0.4610   -4.0370 oh        1 OZS     -0.313000
      9 O9          2.5860   -0.2190   -3.6830 oh        1 OZS     -0.317000
     10 C10        -1.5800   -0.7800   -0.1850 c1        1 OZS     -0.154000
     11 C11         2.6370   -4.4920   -2.5950 c1        1 OZS     -0.094000
     12 C12         4.2490   -3.3520   -1.6830 c1        1 OZS     -0.064000
     13 C13         4.7150   -4.6060   -1.9650 c1        1 OZS     -0.228000
     14 N14         3.7220   -5.2990   -2.5230 n2        1 OZS     -0.085000
     15 C15         6.0830   -5.1210   -1.6630 c2        1 OZS      0.518000
     16 C16        -0.8310    0.3990    0.4600 c2        1 OZS     -0.015000
     17 N17        -1.6970    1.0450    1.4560 n         1 OZS     -0.364000
     18 C18        -2.2480    2.3620    1.1950 c2        1 OZS      0.359000
     19 C19        -2.8330    3.2130    2.3710 c2        1 OZS     -0.139000
     20 C20        -3.4350    4.4440    2.1090 c2        1 OZS      0.137000
     21 C21        -3.9870    5.1890    3.1550 c1        1 OZS     -0.018000
     22 C22        -3.9350    4.7070    4.4510 c1        1 OZS     -0.098000
     23 C23        -3.3310    3.4730    4.7160 c1        1 OZS     -0.144000
     24 C24        -2.7810    2.7290    3.6720 c1        1 OZS     -0.012000
     25 N25        -3.4100    2.9080    6.0290 no        1 OZS      0.575000
     26 O26        -3.4510    4.9570    0.7890 oh        1 OZS     -0.247000
     27 O27        -4.5230    6.4730    2.9010 oh        1 OZS     -0.267000
     28 O28        -2.3200    2.7750    0.0520 o         1 OZS     -0.360000
     29 F29         6.9960   -4.2990   -2.1910 f         1 OZS     -0.161667
     30 F30         6.2510   -5.1820   -0.3400 f         1 OZS     -0.161667
     31 F31         6.2270   -6.3400   -2.1880 f         1 OZS     -0.161667
     32 O32        -3.0890    1.7350    6.2140 o         1 OZS     -0.352000
     33 O33        -3.8400    3.6700    7.0740 o         1 OZS     -0.352000
     34 H1          0.3500   -2.3730   -3.4640 h1        1 OZS      0.140000
     35 H2          2.2660   -2.2350   -4.0360 h1        1 OZS      0.115000
     36 H3          3.2950   -1.4690   -1.7190 h2        1 OZS      0.164000
     37 H5          0.4950   -0.2420   -1.3770 h1        1 OZS      0.138000
     38 H6         -1.4370   -2.2740   -1.5620 ha        1 OZS      0.150000
     39 HO8        -0.3330   -0.7970   -4.6270 ho        1 OZS      0.221000
     40 HO9         3.2600   -0.3080   -4.2840 ho        1 OZS      0.228000
     41 H10        -2.4800   -0.9920    0.0950 ha        1 OZS      0.143000
     42 H11         1.7640   -4.7350   -2.9600 DU        1 OZS      0.201500
     43 H12         4.7610   -2.6280   -1.2680 DU        1 OZS      0.201500
     44 H16        -0.0190    0.0700    0.8970 h4        1 OZS      0.116000
     45 H16A       -0.5870    1.0540   -0.2390 h4        1 OZS      0.116000
     46 HN17       -1.8650    0.6340    2.2410 hn        1 OZS      0.239000
     47 H22        -4.3250    5.2350    5.1920 ha        1 OZS      0.179000
     48 H24        -2.3610    1.8720    3.8540 ha        1 OZS      0.201000
     49 HO26       -4.2470    5.3050    0.6170 ho        1 OZS      0.258000
     50 HO27       -4.1050    7.0670    3.3950 ho        1 OZS      0.243000
@<TRIPOS>BOND
     1    1    2 1   
     2    1    5 1   
     3    1    8 1   
     4    1   34 1   
     5    2    3 1   
     6    2    9 1   
     7    2   35 1   
     8    3    4 1   
     9    3    7 1   
    10    3   36 1   
    11    4    5 1   
    12    5    6 1   
    13    5   37 1   
    14    6   10 1   
    15    6   38 1   
    16    7   11 1   
    17    7   12 1   
    18    8   39 1   
    19    9   40 1   
    20   10   41 1   
    21   11   14 1   
    22   12   13 1   
    23   13   14 1   
    24   15   29 1   
    25   15   30 1   
    26   15   31 1   
    27   16   17 1   
    28   16   44 1   
    29   16   45 1   
    30   17   18 1   
    31   17   46 1   
    32   18   19 1   
    33   18   28 1   
    34   19   20 1   
    35   19   24 1   
    36   20   21 1   
    37   20   26 1   
    38   21   27 1   
    39   22   23 1   
    40   22   47 1   
    41   23   25 1   
    42   24   48 1   
    43   25   32 1   
    44   25   33 1   
    45   26   49 1   
    46   27   50 1   
@<TRIPOS>SUBSTRUCTURE
     1 OZS         1 TEMP              0 ****  ****    0 ROOT
