@<TRIPOS>MOLECULE
OZS
   51    53     1     0     0
SMALL
bcc


@<TRIPOS>ATOM
      1 C1         -0.1210   -2.3200    0.5930 c3        1 OZS      0.108100
      2 C2          1.0700   -1.9170   -0.3030 c3        1 OZS      0.094100
      3 C3          1.8540   -0.8750    0.5580 c3        1 OZS      0.217800
      4 O4          0.9130   -0.3440    1.5160 os        1 OZS     -0.389600
      5 C5         -0.2380   -1.1800    1.6370 c3        1 OZS      0.111300
      6 C6         -0.3380   -1.7130    3.0270 c2        1 OZS     -0.087200
      7 N7          3.0130   -1.4100    1.2180 na        1 OZS     -0.247900
      8 O8         -1.3460   -2.4990   -0.0780 oh        1 OZS     -0.640800
      9 O9          0.5460   -1.2710   -1.4430 oh        1 OZS     -0.598800
     10 C10        -1.4780   -2.0140    3.6570 c2        1 OZS     -0.256200
     11 C11         3.2130   -2.7180    1.7240 cc        1 OZS      0.387400
     12 C12         4.0980   -0.6440    1.6620 cc        1 OZS     -0.152600
     13 C13         4.9200   -1.5230    2.3840 cd        1 OZS      0.207600
     14 N14         4.3600   -2.8100    2.4130 nd        1 OZS     -0.593000
     15 C15         6.2340   -1.1980    3.0560 c3        1 OZS      0.636600
     16 C16        -2.8460   -1.7700    3.1250 c3        1 OZS      0.153000
     17 N17        -3.3170   -2.8370    2.1810 ny        1 OZS     -0.684800
     18 C18        -3.7370   -4.1040    2.9070 c         1 OZS      0.585700
     19 C19        -3.0180   -5.3200    2.5180 ca        1 OZS     -0.224600
     20 C20        -3.7320   -6.5280    2.3780 ca        1 OZS      0.240100
     21 C21        -3.0230   -7.7200    2.0470 ca        1 OZS      0.053100
     22 C22        -1.6510   -7.7040    1.8410 ca        1 OZS     -0.071000
     23 C23        -0.9630   -6.4780    1.9720 ca        1 OZS     -0.175200
     24 C24        -1.6280   -5.3070    2.3290 ca        1 OZS     -0.038000
     25 N25         0.5020   -6.4240    1.7050 no        1 OZS      0.328200
     26 O26        -5.0780   -6.4930    2.5350 oh        1 OZS     -0.460100
     27 O27        -3.8130   -8.8380    1.9400 oh        1 OZS     -0.494100
     28 O28        -4.6410   -3.9780    3.7170 o         1 OZS     -0.392100
     29 F29         6.2340   -1.4040    4.4120 f         1 OZS     -0.225633
     30 F30         7.3000   -1.9210    2.5890 f         1 OZS     -0.225633
     31 F31         6.6110    0.1150    2.9060 f         1 OZS     -0.225633
     32 O32         1.1050   -7.4430    1.5560 o         1 OZS     -0.190500
     33 O33         1.0160   -5.3360    1.6290 o         1 OZS     -0.190500
     34 H1          0.1020   -3.3110    1.0830 h1        1 OZS      0.103700
     35 H2          1.6920   -2.8080   -0.5830 h1        1 OZS      0.099700
     36 H3          2.1630    0.0230   -0.0580 h2        1 OZS      0.125700
     37 H5         -1.1150   -0.5130    1.3910 h1        1 OZS      0.080700
     38 H6          0.6350   -1.8380    3.5440 ha        1 OZS      0.182000
     39 HO8        -1.3810   -1.8990   -0.8400 ho        1 OZS      0.460000
     40 HO9         1.1940   -1.3600   -2.1560 ho        1 OZS      0.444000
     41 H10        -1.4500   -2.4050    4.6910 ha        1 OZS      0.168000
     42 H11         2.5210   -3.5490    1.5330 h5        1 OZS      0.077100
     43 H12         4.2110    0.4180    1.4410 h4        1 OZS      0.205000
     44 H16        -2.8850   -0.7900    2.5620 hx        1 OZS      0.114700
     45 H16A       -3.5910   -1.7200    3.9760 hx        1 OZS      0.114700
     46 HN17       -2.5750   -3.0460    1.4940 hn        1 OZS      0.470300
     47 H22        -1.1010   -8.6280    1.5800 ha        1 OZS      0.201000
     48 H24        -1.0520   -4.3750    2.4890 ha        1 OZS      0.172000
     49 HO26       -5.4400   -7.3990    2.4720 ho        1 OZS      0.485000
     50 HO27       -3.2450   -9.6140    1.8040 ho        1 OZS      0.465000
     51 H172       -4.1360   -2.4820    1.6740 hn        1 OZS      0.470300
@<TRIPOS>BOND
     1    1    2 1   
     2    1    5 1   
     3    1    8 1   
     4    1   34 1   
     5    2    3 1   
     6    2    9 1   
     7    2   35 1   
     8    3    4 1   
     9    3    7 1   
    10    3   36 1   
    11    4    5 1   
    12    5    6 1   
    13    5   37 1   
    14    6   10 2   
    15    6   38 1   
    16    7   11 1   
    17    7   12 1   
    18    8   39 1   
    19    9   40 1   
    20   10   16 1   
    21   10   41 1   
    22   11   14 2   
    23   11   42 1   
    24   12   13 2   
    25   12   43 1   
    26   13   14 1   
    27   13   15 1   
    28   15   29 1   
    29   15   30 1   
    30   15   31 1   
    31   16   17 1   
    32   16   44 1   
    33   16   45 1   
    34   17   18 1   
    35   17   46 1   
    36   17   51 1   
    37   18   19 1   
    38   18   28 2   
    39   19   20 ar  
    40   19   24 ar  
    41   20   21 ar  
    42   20   26 1   
    43   21   22 ar  
    44   21   27 1   
    45   22   23 ar  
    46   22   47 1   
    47   23   24 ar  
    48   23   25 1   
    49   24   48 1   
    50   25   32 1   
    51   25   33 1   
    52   26   49 1   
    53   27   50 1   
@<TRIPOS>SUBSTRUCTURE
     1 OZS         1 TEMP              0 ****  ****    0 ROOT
