@<TRIPOS>MOLECULE
OZS
   50    52     1     0     0
SMALL
bcc


@<TRIPOS>ATOM
      1 C1         -1.7230   -1.7650   -1.9910 c3        1 OZS      0.085100
      2 C2         -3.2360   -1.5220   -1.8160 c3        1 OZS      0.121100
      3 C3         -3.5370   -1.9470   -0.3400 c3        1 OZS      0.241800
      4 O4         -2.4090   -2.6880    0.1350 os        1 OZS     -0.398600
      5 C5         -1.2750   -2.5490   -0.7380 c3        1 OZS      0.136300
      6 C6         -0.1250   -1.9100   -0.0360 c2        1 OZS     -0.212200
      7 N7         -3.8170   -0.8310    0.5370 na        1 OZS     -0.223900
      8 O8         -1.5390   -2.5250   -3.1680 oh        1 OZS     -0.593800
      9 O9         -4.0630   -2.3380   -2.6160 oh        1 OZS     -0.588800
     10 C10         0.0410   -1.9500    1.2880 c2        1 OZS     -0.159200
     11 C11        -2.9030   -0.0720    1.2940 cc        1 OZS      0.402400
     12 C12        -5.0840   -0.3130    0.7970 cc        1 OZS     -0.166600
     13 C13        -4.8850    0.7500    1.6990 cd        1 OZS      0.195600
     14 N14        -3.5240    0.8900    2.0030 nd        1 OZS     -0.620000
     15 C15        -5.9420    1.6480    2.2890 c3        1 OZS      0.637600
     16 C16         1.1810   -1.3780    2.0670 c3        1 OZS      0.108200
     17 N17         2.1790   -0.6700    1.3130 n         1 OZS     -0.552900
     18 C18         3.4820   -1.1030    1.2160 c         1 OZS      0.681700
     19 C19         4.3770   -0.4000    0.2520 ca        1 OZS     -0.204600
     20 C20         5.7320   -0.2010    0.5660 ca        1 OZS      0.158100
     21 C21         6.5790    0.4740   -0.3560 ca        1 OZS      0.094100
     22 C22         6.0870    0.9150   -1.5830 ca        1 OZS     -0.060000
     23 C23         4.7350    0.6740   -1.8900 ca        1 OZS     -0.186200
     24 C24         3.8860    0.0260   -0.9860 ca        1 OZS     -0.050000
     25 N25         4.1960    1.1130   -3.2030 no        1 OZS      0.320200
     26 O26         6.3420   -0.5900    1.7230 oh        1 OZS     -0.508100
     27 O27         7.9010    0.7260   -0.0890 oh        1 OZS     -0.480100
     28 O28         3.9190   -2.0270    1.9390 o         1 OZS     -0.624100
     29 F29        -6.0170    1.6150    3.6590 f         1 OZS     -0.233633
     30 F30        -5.7940    2.9780    1.9850 f         1 OZS     -0.233633
     31 F31        -7.2180    1.3450    1.8720 f         1 OZS     -0.233633
     32 O32         4.9190    1.6820   -3.9730 o         1 OZS     -0.206500
     33 O33         3.0420    0.8810   -3.4580 o         1 OZS     -0.206500
     34 H1         -1.1790   -0.7850   -2.0710 h1        1 OZS      0.065700
     35 H2         -3.4850   -0.4460   -2.0190 h1        1 OZS      0.076700
     36 H3         -4.4140   -2.6630   -0.3040 h2        1 OZS      0.123700
     37 H5         -0.9990   -3.6080   -1.0220 h1        1 OZS      0.097700
     38 H6          0.6080   -1.4470   -0.7170 ha        1 OZS      0.123000
     39 HO8        -0.5940   -2.5240   -3.3640 ho        1 OZS      0.425000
     40 HO9        -3.6380   -2.4500   -3.4780 ho        1 OZS      0.440000
     41 H10        -0.7130   -2.4440    1.9300 ha        1 OZS      0.157000
     42 H11        -1.8280   -0.2900    1.2960 h5        1 OZS      0.071100
     43 H12        -5.9980   -0.7060    0.3520 h4        1 OZS      0.200000
     44 H16         0.7490   -0.6610    2.8300 h1        1 OZS      0.086200
     45 H16A        1.6810   -2.2220    2.6320 h1        1 OZS      0.086200
     46 HN17        1.8690    0.0690    0.7270 hn        1 OZS      0.317500
     47 H22         6.7550    1.4320   -2.2940 ha        1 OZS      0.195000
     48 H24         2.8350   -0.1600   -1.2690 ha        1 OZS      0.165000
     49 HO26        5.7630   -1.2000    2.2180 ho        1 OZS      0.480000
     50 HO27        8.1260    0.3170    0.7630 ho        1 OZS      0.449000
@<TRIPOS>BOND
     1    1    2 1   
     2    1    5 1   
     3    1    8 1   
     4    1   34 1   
     5    2    3 1   
     6    2    9 1   
     7    2   35 1   
     8    3    4 1   
     9    3    7 1   
    10    3   36 1   
    11    4    5 1   
    12    5    6 1   
    13    5   37 1   
    14    6   10 2   
    15    6   38 1   
    16    7   11 1   
    17    7   12 1   
    18    8   39 1   
    19    9   40 1   
    20   10   16 1   
    21   10   41 1   
    22   11   14 2   
    23   11   42 1   
    24   12   13 2   
    25   12   43 1   
    26   13   14 1   
    27   13   15 1   
    28   15   29 1   
    29   15   30 1   
    30   15   31 1   
    31   16   17 1   
    32   16   44 1   
    33   16   45 1   
    34   17   18 1   
    35   17   46 1   
    36   18   19 1   
    37   18   28 2   
    38   19   20 ar  
    39   19   24 ar  
    40   20   21 ar  
    41   20   26 1   
    42   21   22 ar  
    43   21   27 1   
    44   22   23 ar  
    45   22   47 1   
    46   23   24 ar  
    47   23   25 1   
    48   24   48 1   
    49   25   32 1   
    50   25   33 1   
    51   26   49 1   
    52   27   50 1   
@<TRIPOS>SUBSTRUCTURE
     1 OZS         1 TEMP              0 ****  ****    0 ROOT
