@<TRIPOS>MOLECULE
OZS
   51    53     1     0     0
SMALL
bcc


@<TRIPOS>ATOM
      1 C1         -0.1050   -2.3130    0.6010 c3        1 OZS      0.108100
      2 C2          1.0960   -1.9010   -0.2770 c3        1 OZS      0.094100
      3 C3          1.8680   -0.8650    0.6020 c3        1 OZS      0.217800
      4 O4          0.9150   -0.3430    1.5520 os        1 OZS     -0.389600
      5 C5         -0.2370   -1.1810    1.6530 c3        1 OZS      0.111300
      6 C6         -0.3520   -1.7260    3.0370 c2        1 OZS     -0.087200
      7 N7          3.0190   -1.4030    1.2720 na        1 OZS     -0.247900
      8 O8         -1.3210   -2.4890   -0.0860 oh        1 OZS     -0.640800
      9 O9          0.5850   -1.2470   -1.4180 oh        1 OZS     -0.598800
     10 C10        -1.5000   -2.0340    3.6510 c2        1 OZS     -0.256200
     11 C11         3.2150   -2.7160    1.7700 cc        1 OZS      0.387400
     12 C12         4.0970   -0.6390    1.7360 cc        1 OZS     -0.152600
     13 C13         4.9120   -1.5230    2.4610 cd        1 OZS      0.207600
     14 N14         4.3530   -2.8110    2.4730 nd        1 OZS     -0.593000
     15 C15         6.2160   -1.2010    3.1520 c3        1 OZS      0.636600
     16 C16        -2.8620   -1.7880    3.1050 c3        1 OZS      0.153000
     17 N17        -3.3190   -2.8480    2.1460 n4        1 OZS     -0.684800
     18 C18        -3.7450   -4.1220    2.8560 c         1 OZS      0.585700
     19 C19        -3.0200   -5.3330    2.4660 ca        1 OZS     -0.224600
     20 C20        -3.7320   -6.5400    2.3070 ca        1 OZS      0.240100
     21 C21        -3.0170   -7.7290    1.9740 ca        1 OZS      0.053100
     22 C22        -1.6420   -7.7100    1.7850 ca        1 OZS     -0.071000
     23 C23        -0.9580   -6.4840    1.9340 ca        1 OZS     -0.175200
     24 C24        -1.6280   -5.3170    2.2940 ca        1 OZS     -0.038000
     25 N25         0.5100   -6.4260    1.6850 no        1 OZS      0.328200
     26 O26        -5.0790   -6.5090    2.4480 oh        1 OZS     -0.460100
     27 O27        -3.8040   -8.8460    1.8480 oh        1 OZS     -0.494100
     28 O28        -4.6590   -4.0030    3.6570 o         1 OZS     -0.392100
     29 F29         6.2000   -1.4190    4.5060 f         1 OZS     -0.225633
     30 F30         7.2900   -1.9190    2.6920 f         1 OZS     -0.225633
     31 F31         6.5930    0.1140    3.0180 f         1 OZS     -0.225633
     32 O32         1.1170   -7.4420    1.5340 o         1 OZS     -0.190500
     33 O33         1.0230   -5.3360    1.6250 o         1 OZS     -0.190500
     34 H1          0.1130   -3.3070    1.0860 h1        1 OZS      0.103700
     35 H2          1.7220   -2.7880   -0.5560 h1        1 OZS      0.099700
     36 H3          2.1830    0.0380   -0.0030 h2        1 OZS      0.125700
     37 H5         -1.1120   -0.5140    1.4010 h1        1 OZS      0.080700
     38 H6          0.6140   -1.8530    3.5640 ha        1 OZS      0.182000
     39 HO8        -1.3480   -1.8830   -0.8430 ho        1 OZS      0.460000
     40 HO9         1.2410   -1.3290   -2.1240 ho        1 OZS      0.444000
     41 H10        -1.4840   -2.4320    4.6820 ha        1 OZS      0.168000
     42 H11         2.5270   -3.5460    1.5630 h5        1 OZS      0.077100
     43 H12         4.2120    0.4250    1.5250 h4        1 OZS      0.205000
     44 H16        -2.8950   -0.8040    2.5490 hx        1 OZS      0.114700
     45 H16A       -3.6170   -1.7460    3.9460 hx        1 OZS      0.114700
     46 HN17       -2.5690   -3.0500    1.4660 hn        1 OZS      0.470300
     47 H22        -1.0880   -8.6300    1.5220 ha        1 OZS      0.201000
     48 H24        -1.0550   -4.3860    2.4690 ha        1 OZS      0.172000
     49 HO26       -5.4390   -7.4150    2.3730 ho        1 OZS      0.485000
     50 HO27       -3.2330   -9.6210    1.7120 ho        1 OZS      0.465000
     51 H172       -4.1330   -2.4900    1.6320 hn        1 OZS      0.470300
@<TRIPOS>BOND
     1    1    2 1   
     2    1    5 1   
     3    1    8 1   
     4    1   34 1   
     5    2    3 1   
     6    2    9 1   
     7    2   35 1   
     8    3    4 1   
     9    3    7 1   
    10    3   36 1   
    11    4    5 1   
    12    5    6 1   
    13    5   37 1   
    14    6   10 2   
    15    6   38 1   
    16    7   11 1   
    17    7   12 1   
    18    8   39 1   
    19    9   40 1   
    20   10   16 1   
    21   10   41 1   
    22   11   14 2   
    23   11   42 1   
    24   12   13 2   
    25   12   43 1   
    26   13   14 1   
    27   13   15 1   
    28   15   29 1   
    29   15   30 1   
    30   15   31 1   
    31   16   17 1   
    32   16   44 1   
    33   16   45 1   
    34   17   18 1   
    35   17   46 1   
    36   17   51 1   
    37   18   19 1   
    38   18   28 2   
    39   19   20 ar  
    40   19   24 ar  
    41   20   21 ar  
    42   20   26 1   
    43   21   22 ar  
    44   21   27 1   
    45   22   23 ar  
    46   22   47 1   
    47   23   24 ar  
    48   23   25 1   
    49   24   48 1   
    50   25   32 1   
    51   25   33 1   
    52   26   49 1   
    53   27   50 1   
@<TRIPOS>SUBSTRUCTURE
     1 OZS         1 TEMP              0 ****  ****    0 ROOT
