@<TRIPOS>MOLECULE
OZT
   16    16     1     0     0
SMALL
bcc


@<TRIPOS>ATOM
      1 O1         -1.4860    0.0530   -0.8280 os        1 OZT     -0.437900
      2 C2         -0.0890    0.0530   -0.8280 c3        1 OZT      0.136100
      3 CA          0.3820    0.0530    0.6120 c3        1 OZT     -0.117300
      4 N          -0.8340    0.0530    1.3740 n         1 OZT     -0.483900
      5 C5         -1.9220    0.0530    0.5140 c         1 OZT      0.785600
      6 O6         -3.0400    0.3300    0.9020 o         1 OZT     -0.651500
      7 C7          0.4200   -1.1800   -1.5300 c3        1 OZT     -0.097100
      8 C           1.3050    1.2500    0.9190 c         1 OZT      0.911600
      9 O           2.5420    1.0680    1.0700 o         1 OZT     -0.821800
     10 H2          0.2400    0.8520   -1.2820 h1        1 OZT      0.091700
     11 HA          0.9530   -0.7100    0.8210 h1        1 OZT      0.067700
     12 HN         -0.8840    0.0530    2.2840 hn        1 OZT      0.323500
     13 H17         0.0850   -1.1940   -2.4470 hc        1 OZT      0.038367
     14 H27         0.1090   -1.9750   -1.0580 hc        1 OZT      0.038367
     15 H37         1.3960   -1.1690   -1.5410 hc        1 OZT      0.038367
     16 OXT         0.8220    2.4090    1.0180 o         1 OZT     -0.821800
@<TRIPOS>BOND
     1    1    2 1   
     2    1    5 1   
     3    2    3 1   
     4    2    7 1   
     5    2   10 1   
     6    3    4 1   
     7    3    8 1   
     8    3   11 1   
     9    4    5 1   
    10    4   12 1   
    11    5    6 2   
    12    7   13 1   
    13    7   14 1   
    14    7   15 1   
    15    8    9 1   
    16    8   16 1   
@<TRIPOS>SUBSTRUCTURE
     1 OZT         1 TEMP              0 ****  ****    0 ROOT
