@<TRIPOS>MOLECULE
OZT
   16    16     1     0     0
SMALL
bcc


@<TRIPOS>ATOM
      1 O1          1.5200   -0.6830    0.6310 os        1 OZT     -0.437900
      2 C2          0.1760   -1.1650    0.3430 c3        1 OZT      0.136100
      3 CA         -0.4310   -0.1250   -0.6380 c3        1 OZT     -0.117300
      4 N           0.6440    0.8410   -0.8920 n         1 OZT     -0.483900
      5 C5          1.7230    0.5150   -0.0440 c         1 OZT      0.785600
      6 O6          2.8230    1.0560    0.1260 o         1 OZT     -0.651500
      7 C7          0.2700   -2.5510   -0.2440 c3        1 OZT     -0.097100
      8 C          -1.7470    0.4930   -0.0630 c         1 OZT      0.911600
      9 O          -1.8530    1.7490   -0.0650 o         1 OZT     -0.821800
     10 H2         -0.3790   -1.1690    1.3180 h1        1 OZT      0.091700
     11 HA         -0.6850   -0.6130   -1.6180 h1        1 OZT      0.067700
     12 HN          0.3320    1.7940   -0.8360 hn        1 OZT      0.323500
     13 H17         0.7820   -3.2380    0.4710 hc        1 OZT      0.038367
     14 H27        -0.7610   -2.9290   -0.4440 hc        1 OZT      0.038367
     15 H37         0.8480   -2.5390   -1.1990 hc        1 OZT      0.038367
     16 OXT        -2.6130   -0.3220    0.3510 o         1 OZT     -0.821800
@<TRIPOS>BOND
     1    1    2 1   
     2    1    5 1   
     3    2    3 1   
     4    2    7 1   
     5    2   10 1   
     6    3    4 1   
     7    3    8 1   
     8    3   11 1   
     9    4    5 1   
    10    4   12 1   
    11    5    6 2   
    12    7   13 1   
    13    7   14 1   
    14    7   15 1   
    15    8    9 1   
    16    8   16 1   
@<TRIPOS>SUBSTRUCTURE
     1 OZT         1 TEMP              0 ****  ****    0 ROOT
