@<TRIPOS>MOLECULE
OZZ
   51    53     1     0     0
SMALL
bcc


@<TRIPOS>ATOM
      1 C1         -0.1440   -2.2310    0.6900 c3        1 OZZ      0.065100
      2 C2          1.0170   -1.7300   -0.1980 c3        1 OZZ      0.092100
      3 C3          1.8210   -0.7720    0.7330 c3        1 OZZ      0.387300
      4 O4          0.8780   -0.3180    1.7350 os        1 OZZ     -0.410600
      5 C5         -0.2430   -1.1950    1.8380 c3        1 OZZ      0.121300
      6 C6         -0.2670   -1.8580    3.1740 c2        1 OZZ     -0.088200
      7 N7          3.0110   -1.3350    1.3220 na        1 OZZ     -0.542200
      8 O8         -1.3980   -2.3000    0.0410 oh        1 OZZ     -0.655800
      9 O9          0.5180   -1.0580   -1.3280 oh        1 OZZ     -0.570800
     10 C10        -1.3750   -2.2050    3.8370 c2        1 OZZ     -0.255200
     11 C11        -2.7650   -1.8960    3.4050 c3        1 OZZ      0.153000
     12 N12        -3.2820   -2.8280    2.3470 n4        1 OZZ     -0.682800
     13 C13        -3.7410   -4.1560    2.9250 c         1 OZZ      0.584700
     14 C14        -3.0470   -5.3400    2.4130 ca        1 OZZ     -0.225600
     15 C15        -3.7870   -6.5090    2.1450 ca        1 OZZ      0.240100
     16 C16        -3.1020   -7.6770    1.6970 ca        1 OZZ      0.053100
     17 C17        -1.7280   -7.6730    1.5040 ca        1 OZZ     -0.071000
     18 C18        -1.0140   -6.4840    1.7660 ca        1 OZZ     -0.176200
     19 C19        -1.6550   -5.3390    2.2350 ca        1 OZZ     -0.040000
     20 N20         0.4560   -6.4380    1.5230 no        1 OZZ      0.326200
     21 O21        -5.1330   -6.4600    2.2970 oh        1 OZZ     -0.459100
     22 O22        -3.9160   -8.7590    1.4690 oh        1 OZZ     -0.493100
     23 O23        -4.6530   -4.0950    3.7350 o         1 OZZ     -0.392100
     24 O24         1.0380   -7.4520    1.2830 o         1 OZZ     -0.189000
     25 O25         0.9950   -5.3610    1.5630 o         1 OZZ     -0.189000
     26 C26         4.0310   -0.4640    1.7280 cc        1 OZZ      0.066000
     27 C27         5.0780   -0.8720    2.4870 cd        1 OZZ     -0.273700
     28 C28         5.1800   -2.2490    2.9770 c         1 OZZ      0.561500
     29 C29         3.0580   -2.6500    1.7880 cc        1 OZZ      0.066000
     30 C30         4.0790   -3.1200    2.5480 cd        1 OZZ     -0.273700
     31 O31         6.1080   -2.6460    3.6960 o         1 OZZ     -0.535100
     32 H1          0.0840   -3.2640    1.0790 h1        1 OZZ      0.092700
     33 H2          1.6320   -2.5750   -0.6120 h1        1 OZZ      0.137700
     34 H3          2.1090    0.1750    0.1800 h2        1 OZZ      0.119700
     35 H5         -1.1480   -0.5360    1.6940 h1        1 OZZ      0.078700
     36 H6          0.7330   -2.0430    3.6150 ha        1 OZZ      0.182000
     37 HO8        -1.2770   -2.1140   -0.9040 ho        1 OZZ      0.462000
     38 HO9         0.1830   -0.1930   -1.0480 ho        1 OZZ      0.420000
     39 H10        -1.2980   -2.6930    4.8260 ha        1 OZZ      0.169000
     40 H11        -3.4720   -1.9600    4.2860 hx        1 OZZ      0.115200
     41 H11A       -2.8230   -0.8500    2.9810 hx        1 OZZ      0.115200
     42 HN12       -4.0900   -2.3860    1.8940 hn        1 OZZ      0.470800
     43 H17        -1.1960   -8.5780    1.1540 ha        1 OZZ      0.201000
     44 H19        -1.0580   -4.4410    2.4890 ha        1 OZZ      0.173000
     45 HO21       -5.5140   -7.3460    2.1380 ho        1 OZZ      0.485000
     46 HO22       -3.3650   -9.5300    1.2540 ho        1 OZZ      0.465000
     47 H26         3.9380    0.5770    1.3670 h4        1 OZZ      0.153000
     48 H27         5.8860   -0.1750    2.7560 ha        1 OZZ      0.172000
     49 H29         2.2300   -3.3090    1.4670 h4        1 OZZ      0.153000
     50 H30         4.1160   -4.1750    2.8560 ha        1 OZZ      0.172000
     51 H122       -2.5540   -2.9830    1.6330 hn        1 OZZ      0.470800
@<TRIPOS>BOND
     1    1    2 1   
     2    1    5 1   
     3    1    8 1   
     4    1   32 1   
     5    2    3 1   
     6    2    9 1   
     7    2   33 1   
     8    3    4 1   
     9    3    7 1   
    10    3   34 1   
    11    4    5 1   
    12    5    6 1   
    13    5   35 1   
    14    6   10 2   
    15    6   36 1   
    16    7   26 1   
    17    7   29 1   
    18    8   37 1   
    19    9   38 1   
    20   10   11 1   
    21   10   39 1   
    22   11   12 1   
    23   11   40 1   
    24   11   41 1   
    25   12   13 1   
    26   12   42 1   
    27   12   51 1   
    28   13   14 1   
    29   13   23 2   
    30   14   15 ar  
    31   14   19 ar  
    32   15   16 ar  
    33   15   21 1   
    34   16   17 ar  
    35   16   22 1   
    36   17   18 ar  
    37   17   43 1   
    38   18   19 ar  
    39   18   20 1   
    40   19   44 1   
    41   20   24 1   
    42   20   25 1   
    43   21   45 1   
    44   22   46 1   
    45   26   27 2   
    46   26   47 1   
    47   27   28 1   
    48   27   48 1   
    49   28   30 1   
    50   28   31 2   
    51   29   30 2   
    52   29   49 1   
    53   30   50 1   
@<TRIPOS>SUBSTRUCTURE
     1 OZZ         1 TEMP              0 ****  ****    0 ROOT
