@<TRIPOS>MOLECULE
OZZ
   50    52     1     0     0
SMALL
bcc


@<TRIPOS>ATOM
      1 C1         -0.1300   -0.7620    0.8770 c3        1 OZZ      0.083100
      2 C2          0.7050    0.4280    0.3520 c3        1 OZZ      0.075100
      3 C3          1.6100    0.8580    1.5480 c3        1 OZZ      0.416300
      4 O4          1.1160    0.1780    2.7110 os        1 OZZ     -0.406600
      5 C5          0.2730   -0.9300    2.3600 c3        1 OZZ      0.134300
      6 C6          0.9710   -2.2190    2.6250 c2        1 OZZ     -0.206200
      7 N7          3.0220    0.5940    1.3310 na        1 OZZ     -0.537200
      8 O8         -1.5090   -0.5240    0.7200 oh        1 OZZ     -0.587800
      9 O9         -0.1210    1.5420    0.0730 oh        1 OZZ     -0.590800
     10 C10         0.3530   -3.4010    2.7080 c2        1 OZZ     -0.161200
     11 C11        -1.1280   -3.5630    2.5570 c3        1 OZZ      0.104200
     12 N12        -1.5440   -4.9090    2.2710 n         1 OZZ     -0.554900
     13 C13        -2.5310   -5.5380    2.9950 c         1 OZZ      0.685700
     14 C14        -2.9220   -6.9270    2.6020 ca        1 OZZ     -0.159600
     15 C15        -3.0080   -7.3780    1.2760 ca        1 OZZ      0.182100
     16 C16        -3.4260   -8.7100    1.0150 ca        1 OZZ      0.026100
     17 C17        -3.7450   -9.5810    2.0490 ca        1 OZZ     -0.098000
     18 C18        -3.6540   -9.1110    3.3730 ca        1 OZZ     -0.190200
     19 C19        -3.2560   -7.7980    3.6490 ca        1 OZZ     -0.012000
     20 N20        -3.9930  -10.0310    4.4880 no        1 OZZ      0.320200
     21 O21        -2.6870   -6.5250    0.2550 oh        1 OZZ     -0.493100
     22 O22        -3.4760   -9.0610   -0.3180 oh        1 OZZ     -0.513100
     23 O23        -3.0590   -4.9980    3.9900 o         1 OZZ     -0.599100
     24 O24        -4.3680  -11.1430    4.2240 o         1 OZZ     -0.202000
     25 O25        -3.8800   -9.6430    5.6190 o         1 OZZ     -0.202000
     26 C26         3.9730    1.5320    1.7200 cc        1 OZZ      0.086000
     27 C27         5.3080    1.2980    1.6130 cd        1 OZZ     -0.299200
     28 C28         5.8240    0.0230    1.1130 c         1 OZZ      0.568500
     29 C29         3.4670   -0.6530    0.9070 cc        1 OZZ      0.086000
     30 C30         4.7860   -0.9530    0.7750 cd        1 OZZ     -0.299200
     31 O31         7.0370   -0.2140    0.9890 o         1 OZZ     -0.571100
     32 H1          0.0670   -1.6970    0.2870 h1        1 OZZ      0.098700
     33 H2          1.2920    0.1460   -0.5610 h1        1 OZZ      0.075700
     34 H3          1.4740    1.9590    1.7730 h2        1 OZZ      0.119700
     35 H5         -0.6280   -0.8270    3.0330 h1        1 OZZ      0.093700
     36 H6          2.0570   -2.1320    2.7990 ha        1 OZZ      0.149000
     37 HO8        -1.7310    0.2730    1.2240 ho        1 OZZ      0.421000
     38 HO9        -0.7190    1.2740   -0.6380 ho        1 OZZ      0.426000
     39 H10         0.9340   -4.3120    2.9310 ha        1 OZZ      0.141000
     40 H11        -1.6200   -3.2250    3.5200 h1        1 OZZ      0.078200
     41 H11A       -1.4950   -2.8790    1.7300 h1        1 OZZ      0.078200
     42 HN12       -1.2150   -5.3230    1.4300 hn        1 OZZ      0.325500
     43 H17        -4.0650  -10.6170    1.8430 ha        1 OZZ      0.179000
     44 H19        -3.2110   -7.4260    4.6910 ha        1 OZZ      0.201000
     45 HO21       -2.8840   -6.9610   -0.5920 ho        1 OZZ      0.459000
     46 HO22       -3.8600   -9.9480   -0.3830 ho        1 OZZ      0.444000
     47 H26         3.5740    2.4890    2.1060 h4        1 OZZ      0.150500
     48 H27         6.0390    2.0650    1.9040 ha        1 OZZ      0.161500
     49 H29         2.6680   -1.3830    0.6760 h4        1 OZZ      0.150500
     50 H30         5.1100   -1.9380    0.4150 ha        1 OZZ      0.161500
@<TRIPOS>BOND
     1    1    2 1   
     2    1    5 1   
     3    1    8 1   
     4    1   32 1   
     5    2    3 1   
     6    2    9 1   
     7    2   33 1   
     8    3    4 1   
     9    3    7 1   
    10    3   34 1   
    11    4    5 1   
    12    5    6 1   
    13    5   35 1   
    14    6   10 2   
    15    6   36 1   
    16    7   26 1   
    17    7   29 1   
    18    8   37 1   
    19    9   38 1   
    20   10   11 1   
    21   10   39 1   
    22   11   12 1   
    23   11   40 1   
    24   11   41 1   
    25   12   13 1   
    26   12   42 1   
    27   13   14 1   
    28   13   23 2   
    29   14   15 ar  
    30   14   19 ar  
    31   15   16 ar  
    32   15   21 1   
    33   16   17 ar  
    34   16   22 1   
    35   17   18 ar  
    36   17   43 1   
    37   18   19 ar  
    38   18   20 1   
    39   19   44 1   
    40   20   24 1   
    41   20   25 1   
    42   21   45 1   
    43   22   46 1   
    44   26   27 2   
    45   26   47 1   
    46   27   28 1   
    47   27   48 1   
    48   28   30 1   
    49   28   31 2   
    50   29   30 2   
    51   29   49 1   
    52   30   50 1   
@<TRIPOS>SUBSTRUCTURE
     1 OZZ         1 TEMP              0 ****  ****    0 ROOT
