@<TRIPOS>MOLECULE
OZZ
   51    53     1     0     0
SMALL
bcc


@<TRIPOS>ATOM
      1 C1         -0.0690   -2.0790    0.4380 c3        1 OZZ      0.064100
      2 C2          1.1900   -1.4720   -0.2260 c3        1 OZZ      0.095100
      3 C3          1.8900   -0.7220    0.9450 c3        1 OZZ      0.383300
      4 O4          0.8140   -0.3370    1.8370 os        1 OZZ     -0.411600
      5 C5         -0.3130   -1.2050    1.6970 c3        1 OZZ      0.118300
      6 C6         -0.4830   -2.0280    2.9290 c2        1 OZZ     -0.098200
      7 N7          2.9270   -1.4550    1.6320 na        1 OZZ     -0.543200
      8 O8         -1.2270   -2.0590   -0.3700 oh        1 OZZ     -0.658800
      9 O9          0.8220   -0.5880   -1.2560 oh        1 OZZ     -0.568800
     10 C10        -1.6490   -2.4290    3.4450 c2        1 OZZ     -0.241200
     11 C11        -2.9970   -2.0660    2.9320 c3        1 OZZ      0.160000
     12 N12        -3.3480   -2.7210    1.6270 ny        1 OZZ     -0.682800
     13 C13        -3.9470   -4.1020    1.8080 c         1 OZZ      0.581700
     14 C14        -3.0130   -5.2240    1.9180 ca        1 OZZ     -0.215600
     15 C15        -3.3650   -6.3080    2.7520 ca        1 OZZ      0.238100
     16 C16        -2.4940   -7.4330    2.8410 ca        1 OZZ      0.053100
     17 C17        -1.2960   -7.4680    2.1420 ca        1 OZZ     -0.071000
     18 C18        -0.9580   -6.3620    1.3320 ca        1 OZZ     -0.177200
     19 C19        -1.8130   -5.2700    1.1910 ca        1 OZZ     -0.040000
     20 N20         0.3540   -6.3510    0.6240 no        1 OZZ      0.324200
     21 O21        -4.5150   -6.2150    3.4630 oh        1 OZZ     -0.458100
     22 O22        -2.9390   -8.4300    3.6730 oh        1 OZZ     -0.494100
     23 O23        -5.1680   -4.1250    1.8450 o         1 OZZ     -0.395100
     24 O24         0.9630   -7.3720    0.5110 o         1 OZZ     -0.188000
     25 O25         0.7580   -5.2930    0.2130 o         1 OZZ     -0.188000
     26 C26         3.7920   -0.7410    2.4700 cc        1 OZZ      0.066500
     27 C27         4.6370   -1.3520    3.3380 cd        1 OZZ     -0.278700
     28 C28         4.6610   -2.8090    3.4860 c         1 OZZ      0.561500
     29 C29         2.9240   -2.8460    1.7360 cc        1 OZZ      0.066500
     30 C30         3.7470   -3.5170    2.5810 cd        1 OZZ     -0.278700
     31 O31         5.3780   -3.3980    4.3070 o         1 OZZ     -0.536100
     32 H1          0.1210   -3.1550    0.7120 h1        1 OZZ      0.097700
     33 H2          1.8310   -2.2480   -0.7260 h1        1 OZZ      0.141700
     34 H3          2.3200    0.2680    0.5980 h2        1 OZZ      0.124700
     35 H5         -1.1960   -0.5220    1.5380 h1        1 OZZ      0.076700
     36 H6          0.4670   -2.2850    3.4400 ha        1 OZZ      0.178000
     37 HO8        -1.0050   -1.6820   -1.2380 ho        1 OZZ      0.466000
     38 HO9         0.4720    0.2220   -0.8550 ho        1 OZZ      0.420000
     39 H10        -1.6620   -3.0320    4.3710 ha        1 OZZ      0.167000
     40 H11        -3.7940   -2.3500    3.6810 hx        1 OZZ      0.112200
     41 H11A       -3.0550   -0.9480    2.7630 hx        1 OZZ      0.112200
     42 HN12       -4.0430   -2.1350    1.1470 hn        1 OZZ      0.469800
     43 H17        -0.6170   -8.3380    2.2130 ha        1 OZZ      0.201000
     44 H19        -1.5380   -4.4630    0.4860 ha        1 OZZ      0.177000
     45 HO21       -4.6720   -7.0510    3.9460 ho        1 OZZ      0.485000
     46 HO22       -2.3340   -9.1880    3.6100 ho        1 OZZ      0.465000
     47 H26         3.7520    0.3590    2.3630 h4        1 OZZ      0.155500
     48 H27         5.3350   -0.7660    3.9550 ha        1 OZZ      0.171000
     49 H29         2.2430   -3.3890    1.0520 h4        1 OZZ      0.155500
     50 H30         3.7670   -4.6160    2.5990 ha        1 OZZ      0.171000
     51 H122       -2.5060   -2.7760    1.0400 hn        1 OZZ      0.469800
@<TRIPOS>BOND
     1    1    2 1   
     2    1    5 1   
     3    1    8 1   
     4    1   32 1   
     5    2    3 1   
     6    2    9 1   
     7    2   33 1   
     8    3    4 1   
     9    3    7 1   
    10    3   34 1   
    11    4    5 1   
    12    5    6 1   
    13    5   35 1   
    14    6   10 2   
    15    6   36 1   
    16    7   26 1   
    17    7   29 1   
    18    8   37 1   
    19    9   38 1   
    20   10   11 1   
    21   10   39 1   
    22   11   12 1   
    23   11   40 1   
    24   11   41 1   
    25   12   13 1   
    26   12   42 1   
    27   12   51 1   
    28   13   14 1   
    29   13   23 2   
    30   14   15 ar  
    31   14   19 ar  
    32   15   16 ar  
    33   15   21 1   
    34   16   17 ar  
    35   16   22 1   
    36   17   18 ar  
    37   17   43 1   
    38   18   19 ar  
    39   18   20 1   
    40   19   44 1   
    41   20   24 1   
    42   20   25 1   
    43   21   45 1   
    44   22   46 1   
    45   26   27 2   
    46   26   47 1   
    47   27   28 1   
    48   27   48 1   
    49   28   30 1   
    50   28   31 2   
    51   29   30 2   
    52   29   49 1   
    53   30   50 1   
@<TRIPOS>SUBSTRUCTURE
     1 OZZ         1 TEMP              0 ****  ****    0 ROOT
