@<TRIPOS>MOLECULE
OZZ
   50    52     1     0     0
SMALL
bcc


@<TRIPOS>ATOM
      1 C1         -2.8950    2.1580    1.7470 c3        1 OZZ      0.081100
      2 C2         -3.9780    1.0560    1.7950 c3        1 OZZ      0.131100
      3 C3         -4.2220    0.6960    0.2950 c3        1 OZZ      0.407300
      4 O4         -3.7650    1.8220   -0.4720 os        1 OZZ     -0.411600
      5 C5         -2.8320    2.6180    0.2720 c3        1 OZZ      0.134300
      6 C6         -1.4590    2.5280   -0.3040 c2        1 OZZ     -0.197200
      7 N7         -3.5930   -0.5390   -0.1460 na        1 OZZ     -0.534200
      8 O8         -3.2990    3.1960    2.6170 oh        1 OZZ     -0.595800
      9 O9         -5.2300    1.4940    2.2770 oh        1 OZZ     -0.585800
     10 C10        -1.2230    2.2280   -1.5830 c2        1 OZZ     -0.158200
     11 C11         0.1480    2.1760   -2.1870 c3        1 OZZ      0.112200
     12 N12         1.0160    1.1920   -1.5920 n         1 OZZ     -0.547900
     13 C13         2.1620    1.5260   -0.9160 c         1 OZZ      0.677700
     14 C14         2.9290    0.4320   -0.2520 ca        1 OZZ     -0.202600
     15 C15         4.3330    0.4800   -0.2210 ca        1 OZZ      0.156100
     16 C16         5.0630   -0.5620    0.4120 ca        1 OZZ      0.091100
     17 C17         4.3990   -1.6170    1.0370 ca        1 OZZ     -0.060000
     18 C18         2.9930   -1.6250    1.0250 ca        1 OZZ     -0.186200
     19 C19         2.2610   -0.6210    0.3810 ca        1 OZZ     -0.048000
     20 N20         2.2660   -2.7190    1.7220 no        1 OZZ      0.321200
     21 O21         5.1040    1.4600   -0.7770 oh        1 OZZ     -0.511100
     22 O22         6.4350   -0.5850    0.4440 oh        1 OZZ     -0.481100
     23 O23         2.5800    2.7080   -0.8820 o         1 OZZ     -0.638100
     24 O24         2.8930   -3.6110    2.2220 o         1 OZZ     -0.205500
     25 O25         1.0650   -2.6690    1.7730 o         1 OZZ     -0.205500
     26 C26        -4.1030   -1.1780   -1.2760 cc        1 OZZ      0.085000
     27 C27        -3.4550   -2.2020   -1.8920 cd        1 OZZ     -0.305700
     28 C28        -2.1450   -2.6640   -1.4300 c         1 OZZ      0.566500
     29 C29        -2.3510   -0.9510    0.3240 cc        1 OZZ      0.085000
     30 C30        -1.6510   -1.9710   -0.2390 cd        1 OZZ     -0.305700
     31 O31        -1.5010   -3.5560   -2.0080 o         1 OZZ     -0.572100
     32 H1         -1.9040    1.7480    2.0840 h1        1 OZZ      0.058700
     33 H2         -3.6380    0.1830    2.4140 h1        1 OZZ      0.074700
     34 H3         -5.3320    0.6320    0.0810 h2        1 OZZ      0.123700
     35 H5         -3.2130    3.6760    0.1740 h1        1 OZZ      0.092700
     36 H6         -0.6440    2.7670    0.3980 ha        1 OZZ      0.131000
     37 HO8        -2.6530    3.9080    2.5300 ho        1 OZZ      0.424000
     38 HO9        -5.0720    2.0830    3.0280 ho        1 OZZ      0.438000
     39 H10        -2.0530    2.0090   -2.2760 ha        1 OZZ      0.150000
     40 H11         0.0520    1.9290   -3.2850 h1        1 OZZ      0.077200
     41 H11A        0.6310    3.1940   -2.1000 h1        1 OZZ      0.077200
     42 HN12        0.7040    0.2480   -1.5960 hn        1 OZZ      0.327500
     43 H17         4.9760   -2.4180    1.5320 ha        1 OZZ      0.195000
     44 H19         1.1570   -0.6660    0.3920 ha        1 OZZ      0.170000
     45 HO21        4.5480    2.2190   -1.0330 ho        1 OZZ      0.479000
     46 HO22        6.7640    0.2220    0.0160 ho        1 OZZ      0.447000
     47 H26        -5.0830   -0.8060   -1.6290 h4        1 OZZ      0.150000
     48 H27        -3.9000   -2.7110   -2.7570 ha        1 OZZ      0.168000
     49 H29        -1.9680   -0.4100    1.2090 h4        1 OZZ      0.150000
     50 H30        -0.7040   -2.3180    0.2040 ha        1 OZZ      0.168000
@<TRIPOS>BOND
     1    1    2 1   
     2    1    5 1   
     3    1    8 1   
     4    1   32 1   
     5    2    3 1   
     6    2    9 1   
     7    2   33 1   
     8    3    4 1   
     9    3    7 1   
    10    3   34 1   
    11    4    5 1   
    12    5    6 1   
    13    5   35 1   
    14    6   10 2   
    15    6   36 1   
    16    7   26 1   
    17    7   29 1   
    18    8   37 1   
    19    9   38 1   
    20   10   11 1   
    21   10   39 1   
    22   11   12 1   
    23   11   40 1   
    24   11   41 1   
    25   12   13 1   
    26   12   42 1   
    27   13   14 1   
    28   13   23 2   
    29   14   15 ar  
    30   14   19 ar  
    31   15   16 ar  
    32   15   21 1   
    33   16   17 ar  
    34   16   22 1   
    35   17   18 ar  
    36   17   43 1   
    37   18   19 ar  
    38   18   20 1   
    39   19   44 1   
    40   20   24 1   
    41   20   25 1   
    42   21   45 1   
    43   22   46 1   
    44   26   27 2   
    45   26   47 1   
    46   27   28 1   
    47   27   48 1   
    48   28   30 1   
    49   28   31 2   
    50   29   30 2   
    51   29   49 1   
    52   30   50 1   
@<TRIPOS>SUBSTRUCTURE
     1 OZZ         1 TEMP              0 ****  ****    0 ROOT
