@<TRIPOS>MOLECULE
OZZ
   50    48     1     0     0
SMALL
bcc


@<TRIPOS>ATOM
      1 C1         -0.8020    1.7950   -2.4330 c3        1 OZZ     -0.028000
      2 C2          0.2320    2.2070   -3.4330 c3        1 OZZ     -0.036000
      3 C3          1.2350    1.4260   -3.2480 c3        1 OZZ      0.147000
      4 O4          0.6630    0.0490   -2.6680 os        1 OZZ     -0.263000
      5 C5         -0.3090    0.3520   -1.7970 c3        1 OZZ      0.019000
      6 C6         -1.4000   -0.6940   -1.6700 c2        1 OZZ     -0.202000
      7 N7          1.9150    1.1900   -4.5100 n3        1 OZZ     -0.215000
      8 O8         -0.8880    2.6870   -1.4880 oh        1 OZZ     -0.315000
      9 O9          0.6540    3.6760   -3.1900 oh        1 OZZ     -0.318000
     10 C10        -1.8050   -1.1200   -0.4220 c1        1 OZZ     -0.157000
     11 C11        -1.1560   -0.5430    0.8210 c2        1 OZZ     -0.016000
     12 N12        -1.7110   -1.2060    2.0180 n         1 OZZ     -0.364000
     13 C13        -1.8180   -0.4880    3.2600 c2        1 OZZ      0.359000
     14 C14        -1.3250   -1.1580    4.6100 c2        1 OZZ     -0.139000
     15 C15        -1.3380   -0.4110    5.8110 c2        1 OZZ      0.137000
     16 C16        -0.8660   -0.9880    7.0020 c1        1 OZZ     -0.019000
     17 C17        -0.3910   -2.2750    7.0040 c1        1 OZZ     -0.098000
     18 C18        -0.3780   -3.0180    5.8130 c1        1 OZZ     -0.145000
     19 C19        -0.8550   -2.4370    4.6080 c1        1 OZZ     -0.012000
     20 N20        -0.0480   -4.3670    5.8420 no        1 OZZ      0.575000
     21 O21        -2.0230    0.8920    5.8500 oh        1 OZZ     -0.247000
     22 O22        -0.8650   -0.2340    8.1970 oh        1 OZZ     -0.267000
     23 O23        -2.1910    0.6180    3.2630 o         1 OZZ     -0.360000
     24 O24        -0.1920   -5.0690    4.8040 o         1 OZZ     -0.352000
     25 O25         0.5580   -4.9090    6.9610 o         1 OZZ     -0.352000
     26 C26         1.1590    0.7590   -5.6630 c2        1 OZZ     -0.005000
     27 C27         1.8360    0.6690   -7.0370 c1        1 OZZ     -0.278000
     28 C28         3.2820    0.9750   -7.1690 c1        1 OZZ      0.291000
     29 C29         3.3490    1.4860   -4.6400 c2        1 OZZ      0.013000
     30 C30         4.0290    1.4190   -6.0190 c2        1 OZZ     -0.282000
     31 O31         3.8430    0.9220   -8.3090 o         1 OZZ     -0.332000
     32 H1         -1.6130    1.6950   -2.8450 h1        1 OZZ      0.138000
     33 H2         -0.0990    2.1050   -4.2930 h1        1 OZZ      0.115000
     34 H3          1.8390    1.8150   -2.6210 h2        1 OZZ      0.159000
     35 H5          0.0270    0.4350   -0.8380 h1        1 OZZ      0.133000
     36 H6         -1.7930   -1.0450   -2.4280 ha        1 OZZ      0.149000
     37 HO8        -1.6200    3.1170   -1.5690 ho        1 OZZ      0.220000
     38 HO9         0.1540    4.2350   -3.7340 ho        1 OZZ      0.225000
     39 H10        -2.5140   -1.8030   -0.3380 ha        1 OZZ      0.141000
     40 H11        -0.1460   -0.6990    0.7810 h4        1 OZZ      0.117500
     41 H11A       -1.3310    0.3900    0.8660 h4        1 OZZ      0.117500
     42 HN12       -1.9690   -2.0260    1.9750 hn        1 OZZ      0.239000
     43 H17        -0.0550   -2.6840    7.8550 ha        1 OZZ      0.179000
     44 H19        -0.8490   -2.9670    3.7590 ha        1 OZZ      0.201000
     45 HO21       -1.4190    1.5450    5.8670 ho        1 OZZ      0.258000
     46 HO22       -1.3530   -0.6380    8.7940 ho        1 OZZ      0.243000
     47 H26         0.1960    0.5560   -5.5730 h4        1 OZZ      0.146000
     48 H27         1.3260    0.3730   -7.8120 ha        1 OZZ      0.160000
     49 H29         3.8250    1.7680   -3.9060 h4        1 OZZ      0.155000
     50 H30         5.0020    1.6230   -6.1070 ha        1 OZZ      0.163000
@<TRIPOS>BOND
     1    1    2 1   
     2    1    5 1   
     3    1    8 1   
     4    1   32 1   
     5    2    3 1   
     6    2    9 1   
     7    2   33 1   
     8    3    4 1   
     9    3    7 1   
    10    3   34 1   
    11    4    5 1   
    12    5    6 1   
    13    5   35 1   
    14    6   10 1   
    15    6   36 1   
    16    7   26 1   
    17    7   29 1   
    18    8   37 1   
    19    9   38 1   
    20   10   39 1   
    21   11   12 1   
    22   11   40 1   
    23   11   41 1   
    24   12   13 1   
    25   12   42 1   
    26   13   14 1   
    27   13   23 1   
    28   14   15 1   
    29   14   19 1   
    30   15   16 1   
    31   15   21 1   
    32   16   22 1   
    33   17   18 1   
    34   17   43 1   
    35   18   20 1   
    36   19   44 1   
    37   20   24 1   
    38   20   25 1   
    39   21   45 1   
    40   22   46 1   
    41   26   27 1   
    42   26   47 1   
    43   27   48 1   
    44   28   30 1   
    45   28   31 1   
    46   29   30 1   
    47   29   49 1   
    48   30   50 1   
@<TRIPOS>SUBSTRUCTURE
     1 OZZ         1 TEMP              0 ****  ****    0 ROOT
