@<TRIPOS>MOLECULE
L00
   73    69     1     0     0
SMALL
bcc


@<TRIPOS>ATOM
      1 N5         -3.4320    0.5270   -1.1500 n3        1 L00     -0.217000
      2 C9         -2.0040    0.7320   -1.1270 c2        1 L00      0.122000
      3 C10        -1.3130    0.6830    0.0840 c2        1 L00     -0.143000
      4 C11         0.0530    0.7900    0.0980 c1        1 L00      0.049000
      5 C12         0.7390    0.9450   -1.0790 c1        1 L00     -0.103000
      6 C13         0.0470    0.9950   -2.2880 c1        1 L00      0.148000
      7 N1         -1.3180    0.8880   -2.3000 n2        1 L00     -0.210000
      8 N2          0.9240    1.1830   -3.7930 n2        1 L00     -0.765000
      9 S1          2.1390   -0.3140   -4.0030 s4        1 L00      2.035800
     10 C15         2.8350   -0.3200   -5.6530 c2        1 L00     -0.946000
     11 C16         1.8590    2.6680   -3.7220 c3        1 L00     -0.079000
     12 O2          3.1700   -0.2930   -3.0020 o         1 L00     -0.529900
     13 O3          1.4850   -1.5640   -3.7060 o         1 L00     -0.529900
     14 C20         2.5720   -0.6590    4.0820 c3        1 L00      0.126000
     15 N6          2.9600    0.1330    5.1970 n3        1 L00     -0.326000
     16 C21         1.9040   -1.9330    4.5740 c3        1 L00     -0.214000
     17 C22         3.8190   -1.0210    3.2500 c3        1 L00     -0.117000
     18 C23         7.2650   -1.9450    5.6760 c1        1 L00     -0.123250
     19 C24         7.1770   -0.7140    5.0350 c1        1 L00     -0.123250
     20 C25         6.0430   -0.3950    4.2930 c1        1 L00     -0.123250
     21 C26         4.9980   -1.3090    4.1920 c1        1 L00     -0.068000
     22 C27         5.0870   -2.5400    4.8330 c1        1 L00     -0.126000
     23 C28         6.2220   -2.8580    5.5750 c1        1 L00     -0.123250
     24 N3          2.1170    1.3290    2.9310 n2        1 L00     -0.108000
     25 N4          1.5870    1.7400    1.7510 n2        1 L00     -0.055000
     26 C29         0.7440    0.7850    1.3180 c1        1 L00     -0.018000
     27 O4          0.7490   -0.2190    2.2260 os        1 L00     -0.102000
     28 C30         1.6000    0.1210    3.2220 c2        1 L00     -0.069000
     29 C1         -3.9690   -0.7910   -1.4420 c3        1 L00     -0.026000
     30 C2         -4.3230    1.6050   -0.7810 c3        1 L00     -0.062000
     31 CL          2.4730    1.1490   -1.0580 cl        1 L00      0.040000
     32 C3         -4.6200    2.4710   -2.0170 c3        1 L00     -0.056000
     33 O1         -4.2690    3.8220   -1.7440 os        1 L00     -0.275000
     34 C4         -5.1350    4.7760   -2.3470 c3        1 L00     -0.073000
     35 C5         -6.0690   -1.7670   -2.6040 cx        1 L00     -0.149000
     36 C6         -5.4790   -0.6800   -1.7200 cx        1 L00     -0.179000
     37 C7         -6.3450   -1.7700   -1.1080 cx        1 L00     -0.194000
     38 C8         -5.0810   -2.8330   -3.1010 c3        1 L00     -0.190000
     39 H10        -1.8060    0.5710    0.9270 ha        1 L00      0.175000
     40 H151        2.1230   -0.1630   -6.3090 ha        1 L00      0.157333
     41 H152        3.5100    0.3890   -5.7260 ha        1 L00      0.157333
     42 H153        3.2570   -1.1940   -5.8280 ha        1 L00      0.157333
     43 H161        2.7270    2.4880   -3.3010 h1        1 L00      0.095333
     44 H162        1.3700    3.3380   -3.1920 h1        1 L00      0.095333
     45 H163        2.0010    3.0100   -4.6350 h1        1 L00      0.095333
     46 HN61        2.5250   -0.1630    5.9490 hn        1 L00      0.166000
     47 HN62        2.7370    1.0130    5.0410 hn        1 L00      0.166000
     48 H211        2.0960   -2.6660    3.9480 hc        1 L00      0.096000
     49 H212        2.2520   -2.1620    5.4630 hc        1 L00      0.096000
     50 H213        0.9320   -1.7940    4.6270 hc        1 L00      0.096000
     51 H221        4.0480   -0.2690    2.6580 hc        1 L00      0.101000
     52 H222        3.6310   -1.8180    2.7080 hc        1 L00      0.101000
     53 H23         8.0630   -2.1690    6.1970 ha        1 L00      0.131500
     54 H24         7.9140   -0.0700    5.1060 ha        1 L00      0.131500
     55 H25         5.9800    0.4740    3.8400 ha        1 L00      0.131500
     56 H27         4.3530   -3.1830    4.7630 ha        1 L00      0.131000
     57 H28         6.2850   -3.7300    6.0290 ha        1 L00      0.131500
     58 H11        -3.8200   -1.3850   -0.6700 h1        1 L00      0.092500
     59 H12        -3.5180   -1.1610   -2.2320 h1        1 L00      0.092500
     60 H21        -3.8980    2.1580   -0.0880 h1        1 L00      0.116000
     61 H22        -5.1630    1.2310   -0.4330 h1        1 L00      0.116000
     62 H31        -4.0950    2.1440   -2.7800 h1        1 L00      0.072000
     63 H32        -5.5790    2.4180   -2.2320 h1        1 L00      0.072000
     64 H41        -4.9860    5.6580   -1.9380 h1        1 L00      0.075000
     65 H42        -6.0680    4.5040   -2.2080 h1        1 L00      0.075000
     66 H43        -4.9480    4.8250   -3.3100 h1        1 L00      0.075000
     67 H5         -6.8200   -1.4920   -3.1750 hc        1 L00      0.116000
     68 H6         -5.8960    0.2010   -1.7950 hc        1 L00      0.117000
     69 H71        -5.8670   -2.4540   -0.5880 hc        1 L00      0.115500
     70 H72        -7.2480   -1.4970   -0.8420 hc        1 L00      0.115500
     71 H81        -4.3320   -2.9000   -2.4750 hc        1 L00      0.081000
     72 H82        -5.5390   -3.7040   -3.1590 hc        1 L00      0.081000
     73 H83        -4.7450   -2.5800   -3.9890 hc        1 L00      0.081000
@<TRIPOS>BOND
     1    1    2 1   
     2    1   29 1   
     3    1   30 1   
     4    2    3 1   
     5    2    7 1   
     6    3    4 1   
     7    3   39 1   
     8    5    6 1   
     9    5   31 1   
    10    6    7 1   
    11    8    9 1   
    12    8   11 1   
    13    9   12 1   
    14    9   13 1   
    15   10   40 1   
    16   10   41 1   
    17   10   42 1   
    18   11   43 1   
    19   11   44 1   
    20   11   45 1   
    21   14   15 1   
    22   14   16 1   
    23   14   17 1   
    24   14   28 1   
    25   15   46 1   
    26   15   47 1   
    27   16   48 1   
    28   16   49 1   
    29   16   50 1   
    30   17   21 1   
    31   17   51 1   
    32   17   52 1   
    33   18   23 1   
    34   18   53 1   
    35   19   20 1   
    36   19   54 1   
    37   20   55 1   
    38   21   22 1   
    39   22   56 1   
    40   23   57 1   
    41   24   25 1   
    42   24   28 1   
    43   25   26 1   
    44   26   27 1   
    45   27   28 1   
    46   29   36 1   
    47   29   58 1   
    48   29   59 1   
    49   30   32 1   
    50   30   60 1   
    51   30   61 1   
    52   32   33 1   
    53   32   62 1   
    54   32   63 1   
    55   33   34 1   
    56   34   64 1   
    57   34   65 1   
    58   34   66 1   
    59   35   36 1   
    60   35   37 1   
    61   35   38 1   
    62   35   67 1   
    63   36   37 1   
    64   36   68 1   
    65   37   69 1   
    66   37   70 1   
    67   38   71 1   
    68   38   72 1   
    69   38   73 1   
@<TRIPOS>SUBSTRUCTURE
     1 L00         1 TEMP              0 ****  ****    0 ROOT
