@<TRIPOS>MOLECULE
L00
   73    76     1     0     0
SMALL
bcc


@<TRIPOS>ATOM
      1 N5        -10.1670   -4.7960    1.9340 nh        1 L00     -0.768300
      2 C9        -10.6530   -3.5340    2.3030 ca        1 L00      0.697200
      3 C10       -12.0640   -3.2960    2.3330 ca        1 L00     -0.277300
      4 C11       -12.5420   -2.0170    2.6140 ca        1 L00     -0.039500
      5 C12       -11.6390   -0.9670    2.8610 ca        1 L00     -0.112900
      6 C13       -10.2470   -1.2800    2.8340 ca        1 L00      0.683200
      7 N1         -9.7700   -2.5240    2.5730 nb        1 L00     -0.751000
      8 N2         -9.2730   -0.2730    3.0670 nh        1 L00     -0.782200
      9 S1         -8.1290    0.0870    1.9370 s6        1 L00      1.463900
     10 C15        -6.8740   -1.0120    2.2660 c3        1 L00     -0.366300
     11 C16        -9.1780    0.2450    4.4030 c3        1 L00      0.198100
     12 O2         -8.6100   -0.1670    0.6420 o         1 L00     -0.641800
     13 O3         -7.6310    1.3820    2.1870 o         1 L00     -0.641800
     14 C20       -17.2390   -3.4300    2.9180 c3        1 L00      0.184900
     15 N6        -17.2210   -3.9940    4.2640 n3        1 L00     -0.906800
     16 C21       -18.5570   -2.6840    2.6560 c3        1 L00     -0.091100
     17 C22       -17.0730   -4.5710    1.8760 c3        1 L00     -0.031100
     18 C23       -17.0940   -3.3250   -2.2280 ca        1 L00     -0.124000
     19 C24       -18.2920   -3.6470   -1.5890 ca        1 L00     -0.126500
     20 C25       -18.2880   -4.0380   -0.2510 ca        1 L00     -0.124000
     21 C26       -17.0850   -4.1080    0.4620 ca        1 L00     -0.089300
     22 C27       -15.8860   -3.7890   -0.1880 ca        1 L00     -0.124000
     23 C28       -15.8920   -3.3960   -1.5250 ca        1 L00     -0.126500
     24 N3        -16.0420   -1.1150    2.5360 nc        1 L00     -0.342000
     25 N4        -14.7780   -0.7330    2.4700 nc        1 L00     -0.303000
     26 C29       -13.9800   -1.8110    2.6220 cd        1 L00      0.487900
     27 O4        -14.7930   -2.9530    2.7970 os        1 L00     -0.399800
     28 C30       -16.0980   -2.4470    2.7270 cd        1 L00      0.424700
     29 C1         -8.7460   -5.0680    1.8630 c3        1 L00      0.246800
     30 C2        -11.0260   -5.9480    2.1050 c3        1 L00      0.199800
     31 CL        -12.1650    0.6090    3.1470 cl        1 L00     -0.021400
     32 C3        -11.7700   -6.3300    0.8120 c3        1 L00      0.111400
     33 O1        -12.5990   -7.4300    1.1770 os        1 L00     -0.428600
     34 C4        -13.3220   -7.9510    0.0730 c3        1 L00      0.116700
     35 C5         -7.3160   -4.5200    3.9890 cx        1 L00     -0.107700
     36 C6         -8.0850   -5.5100    3.1460 cx        1 L00     -0.159700
     37 C7         -6.5810   -5.5500    3.1770 cx        1 L00     -0.126400
     38 C8         -7.3550   -4.6360    5.4720 c3        1 L00     -0.069100
     39 H10       -12.7820   -4.1010    2.1150 ha        1 L00      0.167000
     40 H151       -6.6270   -1.1180    3.3500 h1        1 L00      0.116367
     41 H152       -7.0960   -2.0420    1.8890 h1        1 L00      0.116367
     42 H153       -5.9280   -0.6860    1.7620 h1        1 L00      0.116367
     43 H161       -8.7420    1.2810    4.3610 h1        1 L00      0.056033
     44 H162       -8.5170   -0.4120    5.0340 h1        1 L00      0.056033
     45 H163      -10.1860    0.3010    4.8910 h1        1 L00      0.056033
     46 HN61      -17.4100   -3.2890    4.9470 hn        1 L00      0.366800
     47 HN62      -16.3460   -4.4380    4.4540 hn        1 L00      0.366800
     48 H211      -18.6970   -1.8500    3.3840 hc        1 L00      0.058033
     49 H212      -18.5440   -2.2600    1.6230 hc        1 L00      0.058033
     50 H213      -19.4130   -3.3940    2.7470 hc        1 L00      0.058033
     51 H221      -17.9100   -5.3030    2.0370 hc        1 L00      0.066200
     52 H222      -16.1050   -5.1050    2.0810 hc        1 L00      0.066200
     53 H24       -19.2420   -3.5920   -2.1400 ha        1 L00      0.134000
     54 H25       -19.2340   -4.2900    0.2510 ha        1 L00      0.131500
     55 H27       -14.9370   -3.8430    0.3670 ha        1 L00      0.131500
     56 H28       -14.9460   -3.1380   -2.0240 ha        1 L00      0.134000
     57 H11        -8.6230   -5.9010    1.1070 h1        1 L00      0.063700
     58 H12        -8.2140   -4.1620    1.4540 h1        1 L00      0.063700
     59 H21       -11.7850   -5.7770    2.9210 h1        1 L00      0.065700
     60 H22       -10.4040   -6.8360    2.4180 h1        1 L00      0.065700
     61 H31       -11.0500   -6.6400    0.0100 h1        1 L00      0.037700
     62 H32       -12.4050   -5.4870    0.4320 h1        1 L00      0.037700
     63 H41       -13.9220   -8.7900    0.5070 h1        1 L00      0.037367
     64 H42       -12.6220   -8.3330   -0.7110 h1        1 L00      0.037367
     65 H43       -13.9930   -7.1710   -0.3620 h1        1 L00      0.037367
     66 H5         -7.2810   -3.4660    3.6400 hc        1 L00      0.086700
     67 H6         -8.6350   -6.3140    3.6750 hc        1 L00      0.081700
     68 H71        -6.0180   -5.2240    2.2840 hc        1 L00      0.072700
     69 H72        -6.0850   -6.3900    3.6950 hc        1 L00      0.072700
     70 H81        -6.4440   -4.1660    5.9180 hc        1 L00      0.038367
     71 H82        -8.2570   -4.1150    5.8770 hc        1 L00      0.038367
     72 H83        -7.3920   -5.7060    5.7950 hc        1 L00      0.038367
     73 H23       -17.0990   -3.0130   -3.2830 ha        1 L00      0.134000
@<TRIPOS>BOND
     1    1    2 1   
     2    1   29 1   
     3    1   30 1   
     4    2    3 ar  
     5    2    7 ar  
     6    3    4 ar  
     7    3   39 1   
     8    4    5 ar  
     9    4   26 1   
    10    5    6 ar  
    11    5   31 1   
    12    6    7 ar  
    13    6    8 1   
    14    8    9 1   
    15    8   11 1   
    16    9   10 1   
    17    9   12 2   
    18    9   13 2   
    19   10   40 1   
    20   10   41 1   
    21   10   42 1   
    22   11   43 1   
    23   11   44 1   
    24   11   45 1   
    25   14   15 1   
    26   14   16 1   
    27   14   17 1   
    28   14   28 1   
    29   15   46 1   
    30   15   47 1   
    31   16   48 1   
    32   16   49 1   
    33   16   50 1   
    34   17   21 1   
    35   17   51 1   
    36   17   52 1   
    37   18   19 ar  
    38   18   23 ar  
    39   18   73 1   
    40   19   20 ar  
    41   19   53 1   
    42   20   21 ar  
    43   20   54 1   
    44   21   22 ar  
    45   22   23 ar  
    46   22   55 1   
    47   23   56 1   
    48   24   25 1   
    49   24   28 2   
    50   25   26 2   
    51   26   27 1   
    52   27   28 1   
    53   29   36 1   
    54   29   57 1   
    55   29   58 1   
    56   30   32 1   
    57   30   59 1   
    58   30   60 1   
    59   32   33 1   
    60   32   61 1   
    61   32   62 1   
    62   33   34 1   
    63   34   63 1   
    64   34   64 1   
    65   34   65 1   
    66   35   36 1   
    67   35   37 1   
    68   35   38 1   
    69   35   66 1   
    70   36   37 1   
    71   36   67 1   
    72   37   68 1   
    73   37   69 1   
    74   38   70 1   
    75   38   71 1   
    76   38   72 1   
@<TRIPOS>SUBSTRUCTURE
     1 L00         1 TEMP              0 ****  ****    0 ROOT
