@<TRIPOS>MOLECULE
L01
   83    85     1     0     0
SMALL
bcc


@<TRIPOS>ATOM
      1 C1          1.6880   -1.2380   -1.8420 c3        1 L01     -0.105600
      2 C2          2.9260   -0.3760   -1.8870 c3        1 L01     -0.101400
      3 C3          2.7170    0.8430   -0.9970 c3        1 L01      0.109300
      4 N4          3.9330    1.7070   -0.7780 n4        1 L01     -0.584200
      5 C5          4.5900    2.1270   -2.0680 c3        1 L01      0.109300
      6 C6          3.6970    2.9890   -2.9530 c3        1 L01     -0.101400
      7 C7          4.5030    3.4890   -4.1280 c3        1 L01     -0.105600
      8 C8          4.9320    1.0100    0.1060 c         1 L01      0.549700
      9 O9          5.5980    0.1060   -0.3840 o         1 L01     -0.391100
     10 C10         5.0400    1.4470    1.5170 ca        1 L01     -0.180600
     11 C11         4.8860    2.7770    1.9270 ca        1 L01     -0.023000
     12 C12         5.0620    3.1140    3.2720 ca        1 L01     -0.106000
     13 C13         5.4050    2.1430    4.2100 ca        1 L01     -0.041000
     14 C14         5.5810    0.8110    3.8020 ca        1 L01     -0.195600
     15 C15         5.3920    0.4620    2.4540 ca        1 L01      0.018000
     16 C16         5.9270   -0.2810    4.7230 c         1 L01      0.584700
     17 O17         5.7040   -1.4740    4.5590 o         1 L01     -0.429100
     18 N18         6.6450    0.0890    6.0050 n4        1 L01     -0.673800
     19 C19         7.5620   -0.9960    6.5190 c3        1 L01      0.099500
     20 C21         8.8220   -0.3860    7.1550 c3        1 L01     -0.050100
     21 C22         9.5440    0.4990    6.2040 ca        1 L01     -0.183300
     22 C23        10.4030   -0.0490    5.2440 ca        1 L01     -0.134000
     23 C24        11.1430    0.7870    4.4080 ca        1 L01     -0.107500
     24 C25        11.0320    2.1730    4.5280 ca        1 L01     -0.084000
     25 C26        10.1750    2.7240    5.4850 ca        1 L01     -0.107500
     26 C27         9.4330    1.8920    6.3210 ca        1 L01     -0.134000
     27 C28         6.8660   -2.0120    7.4670 c3        1 L01      0.110100
     28 O30         5.4840   -2.1070    7.1790 oh        1 L01     -0.625800
     29 C31         6.9620   -1.6310    8.9610 c3        1 L01      0.096800
     30 N32         6.2400   -2.5850    9.8420 n4        1 L01     -0.770000
     31 C35         6.2770   -2.1630   11.2970 c3        1 L01      0.189100
     32 C36         5.5320   -3.1460   12.1250 ca        1 L01     -0.176300
     33 C37         6.2250   -4.0470   12.9400 ca        1 L01     -0.127000
     34 C38         5.5110   -4.9230   13.7610 ca        1 L01     -0.073000
     35 C39         4.1200   -4.9200   13.7650 ca        1 L01     -0.141000
     36 C40         3.4270   -4.0200   12.9350 ca        1 L01      0.156100
     37 O41         2.0620   -3.9330   12.8380 os        1 L01     -0.320900
     38 C42         1.3000   -4.7400   13.7420 c3        1 L01      0.104700
     39 C43         4.1340   -3.1240   12.1130 ca        1 L01     -0.162000
     40 H1C1        1.8240   -2.1160   -2.5230 hc        1 L01      0.067367
     41 H1C2        1.4990   -1.6200   -0.8100 hc        1 L01      0.067367
     42 H1C3        0.7890   -0.6690   -2.1840 hc        1 L01      0.067367
     43 H2C1        3.8170   -0.9700   -1.5490 hc        1 L01      0.071450
     44 H2C2        3.1140   -0.0510   -2.9460 hc        1 L01      0.071450
     45 H3C1        1.9300    1.5080   -1.4600 hx        1 L01      0.107450
     46 H3C2        2.3600    0.5150    0.0210 hx        1 L01      0.107450
     47 H5C1        4.8980    1.1900   -2.6170 hx        1 L01      0.107450
     48 H5C2        5.5210    2.7020   -1.7920 hx        1 L01      0.107450
     49 H6C1        3.2910    3.8620   -2.3770 hc        1 L01      0.071450
     50 H6C2        2.8250    2.3870   -3.3270 hc        1 L01      0.071450
     51 H7C1        4.9100    2.6380   -4.7260 hc        1 L01      0.067367
     52 H7C2        3.8450    4.1010   -4.7940 hc        1 L01      0.067367
     53 H7C3        5.3530    4.1290   -3.7910 hc        1 L01      0.067367
     54 H11         4.6520    3.5860    1.2130 ha        1 L01      0.170000
     55 H12         4.9290    4.1650    3.5930 ha        1 L01      0.199000
     56 H13         5.5140    2.4470    5.2640 ha        1 L01      0.153000
     57 H15         5.5280   -0.5880    2.1270 ha        1 L01      0.195000
     58 H18         7.2150    0.9390    5.8410 hn        1 L01      0.474800
     59 H19         7.8910   -1.5820    5.6020 hx        1 L01      0.132700
     60 H211        8.5570    0.1870    8.0840 hc        1 L01      0.088700
     61 H212        9.4880   -1.2440    7.4540 hc        1 L01      0.088700
     62 H23        10.5230   -1.1410    5.1660 ha        1 L01      0.135500
     63 H24        11.8350    0.3510    3.6690 ha        1 L01      0.168500
     64 H25        11.6380    2.8340    3.8850 ha        1 L01      0.173000
     65 H26        10.1110    3.8190    5.5990 ha        1 L01      0.168500
     66 H27         8.8130    2.3370    7.1140 ha        1 L01      0.135500
     67 H28         7.3870   -3.0010    7.3000 h1        1 L01      0.104700
     68 H30         5.3630   -2.7160    6.4320 ho        1 L01      0.469000
     69 H311        6.5160   -0.6090    9.1240 hx        1 L01      0.114200
     70 H312        8.0460   -1.6180    9.2750 hx        1 L01      0.114200
     71 H32         5.2550   -2.6570    9.5420 hn        1 L01      0.462800
     72 H351        5.8040   -1.1410   11.3600 hx        1 L01      0.108200
     73 H352        7.3590   -2.0970   11.6070 hx        1 L01      0.108200
     74 H37         7.3250   -4.0550   12.9630 ha        1 L01      0.146000
     75 H38         6.0580   -5.6210   14.4180 ha        1 L01      0.173000
     76 H39         3.5700   -5.6140   14.4220 ha        1 L01      0.176000
     77 H421        0.2440   -4.4500   13.5050 h1        1 L01      0.067033
     78 H422        1.4710   -5.8240   13.5310 h1        1 L01      0.067033
     79 H423        1.5530   -4.4900   14.8000 h1        1 L01      0.067033
     80 H43         3.5710   -2.4040   11.5030 ha        1 L01      0.143000
     81 H41         3.6050    2.5580   -0.3040 hn        1 L01      0.445800
     82 H182        5.9320    0.2870    6.7170 hn        1 L01      0.474800
     83 H322        6.6540   -3.5230    9.7620 hn        1 L01      0.462800
@<TRIPOS>BOND
     1    1    2 1   
     2    1   40 1   
     3    1   41 1   
     4    1   42 1   
     5    2    3 1   
     6    2   43 1   
     7    2   44 1   
     8    3    4 1   
     9    3   45 1   
    10    3   46 1   
    11    4    5 1   
    12    4    8 1   
    13    4   81 1   
    14    5    6 1   
    15    5   47 1   
    16    5   48 1   
    17    6    7 1   
    18    6   49 1   
    19    6   50 1   
    20    7   51 1   
    21    7   52 1   
    22    7   53 1   
    23    8    9 2   
    24    8   10 1   
    25   10   11 ar  
    26   10   15 ar  
    27   11   12 ar  
    28   11   54 1   
    29   12   13 ar  
    30   12   55 1   
    31   13   14 ar  
    32   13   56 1   
    33   14   15 ar  
    34   14   16 1   
    35   15   57 1   
    36   16   17 2   
    37   16   18 1   
    38   18   19 1   
    39   18   58 1   
    40   18   82 1   
    41   19   20 1   
    42   19   27 1   
    43   19   59 1   
    44   20   21 1   
    45   20   60 1   
    46   20   61 1   
    47   21   22 ar  
    48   21   26 ar  
    49   22   23 ar  
    50   22   62 1   
    51   23   24 ar  
    52   23   63 1   
    53   24   25 ar  
    54   24   64 1   
    55   25   26 ar  
    56   25   65 1   
    57   26   66 1   
    58   27   28 1   
    59   27   29 1   
    60   27   67 1   
    61   28   68 1   
    62   29   30 1   
    63   29   69 1   
    64   29   70 1   
    65   30   31 1   
    66   30   71 1   
    67   30   83 1   
    68   31   32 1   
    69   31   72 1   
    70   31   73 1   
    71   32   33 ar  
    72   32   39 ar  
    73   33   34 ar  
    74   33   74 1   
    75   34   35 ar  
    76   34   75 1   
    77   35   36 ar  
    78   35   76 1   
    79   36   37 1   
    80   36   39 ar  
    81   37   38 1   
    82   38   77 1   
    83   38   78 1   
    84   38   79 1   
    85   39   80 1   
@<TRIPOS>SUBSTRUCTURE
     1 L01         1 TEMP              0 ****  ****    0 ROOT
