@<TRIPOS>MOLECULE
L01
   83    85     1     0     0
SMALL
bcc


@<TRIPOS>ATOM
      1 C1          1.6430   -1.5150   -2.2110 c3        1 L01     -0.105600
      2 C2          2.7960   -0.5460   -2.1020 c3        1 L01     -0.102900
      3 C3          2.4510    0.5220   -1.0710 c3        1 L01      0.107300
      4 N4          3.5470    1.5150   -0.7780 n4        1 L01     -0.585200
      5 C5          4.0880    2.1240   -2.0430 c3        1 L01      0.107300
      6 C6          4.8470    3.4240   -1.8050 c3        1 L01     -0.102900
      7 C7          5.3390    3.9600   -3.1280 c3        1 L01     -0.105600
      8 C8          4.6490    0.8830    0.0330 c         1 L01      0.550700
      9 O9          5.3440    0.0280   -0.5000 o         1 L01     -0.389100
     10 C10         4.8080    1.3300    1.4370 ca        1 L01     -0.182600
     11 C11         4.6870    2.6710    1.8210 ca        1 L01     -0.026000
     12 C12         4.9110    3.0340    3.1520 ca        1 L01     -0.106000
     13 C13         5.2710    2.0770    4.0980 ca        1 L01     -0.042000
     14 C14         5.4170    0.7350    3.7130 ca        1 L01     -0.195600
     15 C15         5.1780    0.3590    2.3800 ca        1 L01      0.017000
     16 C16         5.7790   -0.3420    4.6460 c         1 L01      0.584700
     17 O17         5.5340   -1.5350    4.5160 o         1 L01     -0.429100
     18 N18         6.5480    0.0460    5.8930 n4        1 L01     -0.673800
     19 C19         7.4670   -1.0420    6.3990 c3        1 L01      0.099500
     20 C21         8.7570   -0.4380    6.9770 c3        1 L01     -0.050100
     21 C22         9.4590    0.4140    5.9800 ca        1 L01     -0.183300
     22 C23        10.2740   -0.1700    5.0030 ca        1 L01     -0.134000
     23 C24        10.9960    0.6340    4.1220 ca        1 L01     -0.107500
     24 C25        10.9110    2.0250    4.2140 ca        1 L01     -0.084000
     25 C26        10.0980    2.6110    5.1870 ca        1 L01     -0.107500
     26 C27         9.3730    1.8110    6.0680 ca        1 L01     -0.134000
     27 C28         6.7900   -2.0250    7.3940 c3        1 L01      0.110100
     28 O30         5.3970   -2.1060    7.1570 oh        1 L01     -0.625800
     29 C31         6.9430   -1.6120    8.8750 c3        1 L01      0.096800
     30 N32         6.2390   -2.5350    9.8020 n4        1 L01     -0.770000
     31 C35         6.3330   -2.0800   11.2450 c3        1 L01      0.189100
     32 C36         5.6040   -3.0330   12.1210 ca        1 L01     -0.176300
     33 C37         6.3130   -3.9240   12.9330 ca        1 L01     -0.127000
     34 C38         5.6160   -4.7710   13.7990 ca        1 L01     -0.073000
     35 C39         4.2260   -4.7480   13.8500 ca        1 L01     -0.141000
     36 C40         3.5170   -3.8570   13.0230 ca        1 L01      0.156100
     37 O41         2.1510   -3.7540   12.9710 os        1 L01     -0.320900
     38 C42         1.4090   -4.5280   13.9190 c3        1 L01      0.104700
     39 C43         4.2070   -2.9910   12.1560 ca        1 L01     -0.162000
     40 H1C1        1.8830   -2.2890   -2.9820 hc        1 L01      0.068867
     41 H1C2        1.4580   -2.0330   -1.2390 hc        1 L01      0.068867
     42 H1C3        0.7060   -0.9930   -2.5230 hc        1 L01      0.068867
     43 H2C1        2.9810   -0.0720   -3.1040 hc        1 L01      0.064200
     44 H2C2        3.7290   -1.0950   -1.8070 hc        1 L01      0.064200
     45 H3C1        1.5650    1.1200   -1.4380 hx        1 L01      0.114200
     46 H3C2        2.1770    0.0330   -0.0920 hx        1 L01      0.114200
     47 H5C1        3.2090    2.3180   -2.7260 hx        1 L01      0.114200
     48 H5C2        4.7600    1.3600   -2.5340 hx        1 L01      0.114200
     49 H6C1        5.7210    3.2450   -1.1240 hc        1 L01      0.064200
     50 H6C2        4.1790    4.1850   -1.3200 hc        1 L01      0.064200
     51 H7C1        6.0270    3.2340   -3.6240 hc        1 L01      0.068867
     52 H7C2        5.8970    4.9150   -2.9600 hc        1 L01      0.068867
     53 H7C3        4.4850    4.1710   -3.8170 hc        1 L01      0.068867
     54 H11         4.4450    3.4610    1.0870 ha        1 L01      0.173000
     55 H12         4.8040    4.0930    3.4550 ha        1 L01      0.198000
     56 H13         5.4190    2.4010    5.1410 ha        1 L01      0.153000
     57 H15         5.2920   -0.6980    2.0710 ha        1 L01      0.193000
     58 H18         7.1250    0.8820    5.6890 hn        1 L01      0.474800
     59 H19         7.7540   -1.6540    5.4850 hx        1 L01      0.132700
     60 H211        8.5340    0.1610    7.9000 hc        1 L01      0.088700
     61 H212        9.4200   -1.2980    7.2720 hc        1 L01      0.088700
     62 H23        10.3740   -1.2660    4.9470 ha        1 L01      0.135500
     63 H24        11.6550    0.1700    3.3690 ha        1 L01      0.168500
     64 H25        11.5040    2.6600    3.5340 ha        1 L01      0.173000
     65 H26        10.0540    3.7090    5.2780 ha        1 L01      0.168500
     66 H27         8.7890    2.2840    6.8720 ha        1 L01      0.135500
     67 H28         7.2900   -3.0250    7.2320 h1        1 L01      0.104700
     68 H30         5.2410   -2.7300    6.4280 ho        1 L01      0.469000
     69 H311        8.0380   -1.6070    9.1500 hx        1 L01      0.114200
     70 H312        6.5180   -0.5800    9.0300 hx        1 L01      0.114200
     71 H32         6.6370   -3.4800    9.7300 hn        1 L01      0.462800
     72 H351        7.4260   -2.0230   11.5150 hx        1 L01      0.108200
     73 H352        5.8780   -1.0500   11.3010 hx        1 L01      0.108200
     74 H37         7.4130   -3.9480   12.9180 ha        1 L01      0.146000
     75 H38         6.1750   -5.4620   14.4530 ha        1 L01      0.173000
     76 H39         3.6900   -5.4180   14.5420 ha        1 L01      0.176000
     77 H421        0.3490   -4.2290   13.7120 h1        1 L01      0.067033
     78 H422        1.7030   -4.2570   14.9610 h1        1 L01      0.067033
     79 H423        1.5590   -5.6190   13.7290 h1        1 L01      0.067033
     80 H43         3.6330   -2.2770   11.5490 ha        1 L01      0.143000
     81 H41         3.1280    2.2700   -0.2180 hn        1 L01      0.446800
     82 H182        5.8640    0.2710    6.6250 hn        1 L01      0.474800
     83 H322        5.2440   -2.5980    9.5390 hn        1 L01      0.462800
@<TRIPOS>BOND
     1    1    2 1   
     2    1   40 1   
     3    1   41 1   
     4    1   42 1   
     5    2    3 1   
     6    2   43 1   
     7    2   44 1   
     8    3    4 1   
     9    3   45 1   
    10    3   46 1   
    11    4    5 1   
    12    4    8 1   
    13    4   81 1   
    14    5    6 1   
    15    5   47 1   
    16    5   48 1   
    17    6    7 1   
    18    6   49 1   
    19    6   50 1   
    20    7   51 1   
    21    7   52 1   
    22    7   53 1   
    23    8    9 2   
    24    8   10 1   
    25   10   11 ar  
    26   10   15 ar  
    27   11   12 ar  
    28   11   54 1   
    29   12   13 ar  
    30   12   55 1   
    31   13   14 ar  
    32   13   56 1   
    33   14   15 ar  
    34   14   16 1   
    35   15   57 1   
    36   16   17 2   
    37   16   18 1   
    38   18   19 1   
    39   18   58 1   
    40   18   82 1   
    41   19   20 1   
    42   19   27 1   
    43   19   59 1   
    44   20   21 1   
    45   20   60 1   
    46   20   61 1   
    47   21   22 ar  
    48   21   26 ar  
    49   22   23 ar  
    50   22   62 1   
    51   23   24 ar  
    52   23   63 1   
    53   24   25 ar  
    54   24   64 1   
    55   25   26 ar  
    56   25   65 1   
    57   26   66 1   
    58   27   28 1   
    59   27   29 1   
    60   27   67 1   
    61   28   68 1   
    62   29   30 1   
    63   29   69 1   
    64   29   70 1   
    65   30   31 1   
    66   30   71 1   
    67   30   83 1   
    68   31   32 1   
    69   31   72 1   
    70   31   73 1   
    71   32   33 ar  
    72   32   39 ar  
    73   33   34 ar  
    74   33   74 1   
    75   34   35 ar  
    76   34   75 1   
    77   35   36 ar  
    78   35   76 1   
    79   36   37 1   
    80   36   39 ar  
    81   37   38 1   
    82   38   77 1   
    83   38   78 1   
    84   38   79 1   
    85   39   80 1   
@<TRIPOS>SUBSTRUCTURE
     1 L01         1 TEMP              0 ****  ****    0 ROOT
