@<TRIPOS>MOLECULE
L01
   80    82     1     0     0
SMALL
bcc


@<TRIPOS>ATOM
      1 C1         -8.3700    0.9190    1.0140 c3        1 L01     -0.095600
      2 C2         -7.2760    1.8340    1.5000 c3        1 L01     -0.100900
      3 C3         -5.9460    1.0800    1.5540 c3        1 L01      0.091000
      4 N4         -4.8220    1.8530    2.0400 n         1 L01     -0.473800
      5 C5         -4.6860    1.9880    3.4690 c3        1 L01      0.091000
      6 C6         -4.0620    0.7760    4.1680 c3        1 L01     -0.100900
      7 C7         -4.0080    1.0090    5.6560 c3        1 L01     -0.095600
      8 C8         -4.0810    2.6110    1.1400 c         1 L01      0.669700
      9 O9         -4.3780    2.6180   -0.0710 o         1 L01     -0.588100
     10 C10        -2.9120    3.3940    1.6400 ca        1 L01     -0.138600
     11 C11        -2.9050    4.7830    1.4700 ca        1 L01     -0.070000
     12 C12        -1.7970    5.5240    1.8790 ca        1 L01     -0.143000
     13 C13        -0.6980    4.8860    2.4510 ca        1 L01     -0.062000
     14 C14        -0.7070    3.4960    2.6220 ca        1 L01     -0.143600
     15 C15        -1.8100    2.7470    2.2030 ca        1 L01     -0.076000
     16 C16         0.4940    2.8590    3.2340 c         1 L01      0.683700
     17 O17         1.6450    3.3040    3.0380 o         1 L01     -0.619100
     18 N18         0.2910    1.7690    4.0560 n         1 L01     -0.562900
     19 C19         1.3810    1.1230    4.7450 c3        1 L01      0.073700
     20 C21         0.9630    0.5590    6.1140 c3        1 L01     -0.046100
     21 C22         0.6370    1.6370    7.0870 ca        1 L01     -0.084300
     22 C23         1.6580    2.4230    7.6330 ca        1 L01     -0.126000
     23 C24         1.3580    3.4230    8.5560 ca        1 L01     -0.125500
     24 C25         0.0360    3.6450    8.9440 ca        1 L01     -0.127000
     25 C26        -0.9850    2.8640    8.4030 ca        1 L01     -0.125500
     26 C27        -0.6870    1.8650    7.4780 ca        1 L01     -0.126000
     27 C28         2.0730    0.0080    3.9140 c3        1 L01      0.124100
     28 O30         2.5840    0.4970    2.6840 oh        1 L01     -0.610800
     29 C31         1.1170   -1.1450    3.5570 c3        1 L01      0.168800
     30 N32         1.8120   -2.2880    3.0010 n3        1 L01     -0.822200
     31 C35         0.9100   -3.2460    2.3850 c3        1 L01      0.208100
     32 C36         1.6190   -4.3180    1.6090 ca        1 L01     -0.062300
     33 C37         2.6750   -5.0340    2.1880 ca        1 L01     -0.143000
     34 C38         3.3030   -6.0500    1.4720 ca        1 L01     -0.101000
     35 C39         2.8900   -6.3720    0.1790 ca        1 L01     -0.201000
     36 C40         1.8330   -5.6550   -0.3930 ca        1 L01      0.120100
     37 O41         1.3280   -5.8810   -1.6600 os        1 L01     -0.328900
     38 C42         1.9800   -6.8890   -2.4230 c3        1 L01      0.114700
     39 C43         1.1940   -4.6220    0.3170 ca        1 L01     -0.151000
     40 H1C1       -8.4930    0.0460    1.7000 hc        1 L01      0.036867
     41 H1C2       -9.3400    1.4710    0.9680 hc        1 L01      0.036867
     42 H1C3       -8.1360    0.5330   -0.0080 hc        1 L01      0.036867
     43 H2C1       -7.5390    2.2320    2.5140 hc        1 L01      0.045450
     44 H2C2       -7.1780    2.7110    0.8070 hc        1 L01      0.045450
     45 H3C1       -6.0620    0.1810    2.2250 h1        1 L01      0.055700
     46 H3C2       -5.6990    0.7160    0.5150 h1        1 L01      0.055700
     47 H5C1       -5.7120    2.1590    3.9110 h1        1 L01      0.055700
     48 H5C2       -4.0600    2.8960    3.7060 h1        1 L01      0.055700
     49 H6C1       -4.6610   -0.1460    3.9510 hc        1 L01      0.045450
     50 H6C2       -3.0270    0.6000    3.7740 hc        1 L01      0.045450
     51 H7C1       -5.0350    1.1460    6.0730 hc        1 L01      0.036867
     52 H7C2       -3.5350    0.1350    6.1660 hc        1 L01      0.036867
     53 H7C3       -3.4090    1.9230    5.8940 hc        1 L01      0.036867
     54 H11        -3.7680    5.2800    1.0000 ha        1 L01      0.151000
     55 H12        -1.7860    6.6150    1.7400 ha        1 L01      0.145000
     56 H13         0.1900    5.4610    2.7610 ha        1 L01      0.160000
     57 H15        -1.8150    1.6480    2.2870 ha        1 L01      0.144000
     58 H18        -0.6230    1.4130    4.1950 hn        1 L01      0.314500
     59 H19         2.1770    1.9150    4.9260 h1        1 L01      0.082700
     60 H211        0.0860   -0.1330    6.0010 hc        1 L01      0.061200
     61 H212        1.8210   -0.0510    6.5080 hc        1 L01      0.061200
     62 H23         2.7020    2.2500    7.3300 ha        1 L01      0.130500
     63 H24         2.1660    4.0370    8.9800 ha        1 L01      0.133000
     64 H25        -0.1990    4.4330    9.6730 ha        1 L01      0.133000
     65 H26        -2.0280    3.0360    8.7070 ha        1 L01      0.133000
     66 H27        -1.4990    1.2530    7.0550 ha        1 L01      0.130500
     67 H28         2.9380   -0.3770    4.5280 h1        1 L01      0.053700
     68 H30         2.8420    1.4220    2.8080 ho        1 L01      0.431000
     69 H311        0.3270   -0.7410    2.8570 h1        1 L01      0.032200
     70 H312        0.6030   -1.4910    4.4970 h1        1 L01      0.032200
     71 H32         2.5140   -1.9880    2.3490 hn        1 L01      0.381800
     72 H351        0.1540   -2.7430    1.7090 h1        1 L01      0.036700
     73 H352        0.3290   -3.7390    3.2190 h1        1 L01      0.036700
     74 H37         3.0080   -4.7880    3.2070 ha        1 L01      0.147000
     75 H38         4.1340   -6.6080    1.9290 ha        1 L01      0.132000
     76 H39         3.3940   -7.1770   -0.3720 ha        1 L01      0.136000
     77 H421        3.0560   -6.6340   -2.5790 h1        1 L01      0.043700
     78 H422        1.4270   -6.8780   -3.3960 h1        1 L01      0.043700
     79 H423        1.8820   -7.8840   -1.9260 h1        1 L01      0.043700
     80 H43         0.3700   -4.0720   -0.1610 ha        1 L01      0.149000
@<TRIPOS>BOND
     1    1    2 1   
     2    1   40 1   
     3    1   41 1   
     4    1   42 1   
     5    2    3 1   
     6    2   43 1   
     7    2   44 1   
     8    3    4 1   
     9    3   45 1   
    10    3   46 1   
    11    4    5 1   
    12    4    8 1   
    13    5    6 1   
    14    5   47 1   
    15    5   48 1   
    16    6    7 1   
    17    6   49 1   
    18    6   50 1   
    19    7   51 1   
    20    7   52 1   
    21    7   53 1   
    22    8    9 2   
    23    8   10 1   
    24   10   11 ar  
    25   10   15 ar  
    26   11   12 ar  
    27   11   54 1   
    28   12   13 ar  
    29   12   55 1   
    30   13   14 ar  
    31   13   56 1   
    32   14   15 ar  
    33   14   16 1   
    34   15   57 1   
    35   16   17 2   
    36   16   18 1   
    37   18   19 1   
    38   18   58 1   
    39   19   20 1   
    40   19   27 1   
    41   19   59 1   
    42   20   21 1   
    43   20   60 1   
    44   20   61 1   
    45   21   22 ar  
    46   21   26 ar  
    47   22   23 ar  
    48   22   62 1   
    49   23   24 ar  
    50   23   63 1   
    51   24   25 ar  
    52   24   64 1   
    53   25   26 ar  
    54   25   65 1   
    55   26   66 1   
    56   27   28 1   
    57   27   29 1   
    58   27   67 1   
    59   28   68 1   
    60   29   30 1   
    61   29   69 1   
    62   29   70 1   
    63   30   31 1   
    64   30   71 1   
    65   31   32 1   
    66   31   72 1   
    67   31   73 1   
    68   32   33 ar  
    69   32   39 ar  
    70   33   34 ar  
    71   33   74 1   
    72   34   35 ar  
    73   34   75 1   
    74   35   36 ar  
    75   35   76 1   
    76   36   37 1   
    77   36   39 ar  
    78   37   38 1   
    79   38   77 1   
    80   38   78 1   
    81   38   79 1   
    82   39   80 1   
@<TRIPOS>SUBSTRUCTURE
     1 L01         1 TEMP              0 ****  ****    0 ROOT
