@<TRIPOS>MOLECULE
L01
   83    85     1     0     0
SMALL
bcc


@<TRIPOS>ATOM
      1 C1          2.0180   -1.9840   -2.3200 c3        1 L01     -0.105600
      2 C2          3.0890   -0.9280   -2.1950 c3        1 L01     -0.102900
      3 C3          2.6270    0.1330   -1.2040 c3        1 L01      0.107300
      4 N4          3.6340    1.2140   -0.8970 nx        1 L01     -0.585200
      5 C5          4.1740    1.8340   -2.1590 c3        1 L01      0.107300
      6 C6          4.8230    3.1920   -1.9270 c3        1 L01     -0.102900
      7 C7          5.3210    3.7350   -3.2450 c3        1 L01     -0.105600
      8 C8          4.7490    0.6860   -0.0330 c         1 L01      0.550700
      9 O9          5.5260   -0.1250   -0.5190 o         1 L01     -0.389100
     10 C10         4.8220    1.1750    1.3640 ca        1 L01     -0.182600
     11 C11         4.5870    2.5110    1.7100 ca        1 L01     -0.026000
     12 C12         4.7330    2.9210    3.0380 ca        1 L01     -0.106000
     13 C13         5.1290    2.0150    4.0200 ca        1 L01     -0.042000
     14 C14         5.3890    0.6790    3.6750 ca        1 L01     -0.195600
     15 C15         5.2290    0.2570    2.3440 ca        1 L01      0.017000
     16 C16         5.7960   -0.3450    4.6460 c         1 L01      0.584700
     17 O17         5.6470   -1.5560    4.5380 o         1 L01     -0.429100
     18 N18         6.4860    0.1280    5.9100 ny        1 L01     -0.673800
     19 C19         7.4630   -0.8750    6.4770 c3        1 L01      0.099500
     20 C21         8.6810   -0.1620    7.0860 c3        1 L01     -0.050100
     21 C22         9.3550    0.7180    6.0950 ca        1 L01     -0.183300
     22 C23        10.2490    0.1770    5.1630 ca        1 L01     -0.134000
     23 C24        10.9410    1.0140    4.2890 ca        1 L01     -0.107500
     24 C25        10.7480    2.3960    4.3420 ca        1 L01     -0.084000
     25 C26         9.8570    2.9400    5.2700 ca        1 L01     -0.107500
     26 C27         9.1610    2.1060    6.1440 ca        1 L01     -0.134000
     27 C28         6.8250   -1.8840    7.4710 c3        1 L01      0.110100
     28 O30         5.4520   -2.0760    7.1860 oh        1 L01     -0.625800
     29 C31         6.8900   -1.4270    8.9450 c3        1 L01      0.096800
     30 N32         6.2210   -2.3790    9.8700 ny        1 L01     -0.770000
     31 C35         6.2250   -1.8850   11.3030 c3        1 L01      0.189100
     32 C36         5.5350   -2.8700   12.1760 ca        1 L01     -0.176300
     33 C37         6.2740   -3.6870   13.0360 ca        1 L01     -0.127000
     34 C38         5.6080   -4.5630   13.8960 ca        1 L01     -0.073000
     35 C39         4.2190   -4.6420   13.8960 ca        1 L01     -0.141000
     36 C40         3.4790   -3.8250   13.0210 ca        1 L01      0.156100
     37 O41         2.1120   -3.8250   12.9150 os        1 L01     -0.320900
     38 C42         1.3940   -4.6300   13.8540 c3        1 L01      0.104700
     39 C43         4.1370   -2.9310   12.1580 ca        1 L01     -0.162000
     40 H1C1        1.0560   -1.5430   -2.6780 hc        1 L01      0.068867
     41 H1C2        2.3440   -2.7560   -3.0620 hc        1 L01      0.068867
     42 H1C3        1.8370   -2.4930   -1.3420 hc        1 L01      0.068867
     43 H2C1        4.0500   -1.3980   -1.8540 hc        1 L01      0.064200
     44 H2C2        3.2750   -0.4650   -3.2010 hc        1 L01      0.064200
     45 H3C1        1.7130    0.6530   -1.6170 hx        1 L01      0.114200
     46 H3C2        2.3550   -0.3530   -0.2230 hx        1 L01      0.114200
     47 H5C1        3.3080    1.9440   -2.8770 hx        1 L01      0.114200
     48 H5C2        4.9180    1.1120   -2.6060 hx        1 L01      0.114200
     49 H6C1        4.0820    3.9110   -1.4850 hc        1 L01      0.064200
     50 H6C2        5.6820    3.0960   -1.2110 hc        1 L01      0.064200
     51 H7C1        6.0800    3.0520   -3.6990 hc        1 L01      0.068867
     52 H7C2        4.4790    3.8640   -3.9690 hc        1 L01      0.068867
     53 H7C3        5.7980    4.7330   -3.0820 hc        1 L01      0.068867
     54 H11         4.3130    3.2640    0.9480 ha        1 L01      0.173000
     55 H12         4.5350    3.9750    3.3090 ha        1 L01      0.198000
     56 H13         5.2130    2.3740    5.0590 ha        1 L01      0.153000
     57 H15         5.4330   -0.7950    2.0660 ha        1 L01      0.193000
     58 H18         5.7600    0.3180    6.6110 hn        1 L01      0.474800
     59 H19         7.8310   -1.4840    5.5900 hx        1 L01      0.132700
     60 H211        9.3960   -0.9630    7.4260 hc        1 L01      0.088700
     61 H212        8.3790    0.4390    7.9850 hc        1 L01      0.088700
     62 H23        10.4330   -0.9090    5.1380 ha        1 L01      0.135500
     63 H24        11.6620    0.5850    3.5730 ha        1 L01      0.168500
     64 H25        11.3170    3.0590    3.6690 ha        1 L01      0.173000
     65 H26         9.7270    4.0330    5.3320 ha        1 L01      0.168500
     66 H27         8.5120    2.5510    6.9140 ha        1 L01      0.135500
     67 H28         7.4040   -2.8470    7.3530 h1        1 L01      0.104700
     68 H30         5.3710   -2.7260    6.4680 ho        1 L01      0.469000
     69 H311        7.9700   -1.3330    9.2610 hx        1 L01      0.113700
     70 H312        6.3830   -0.4270    9.0580 hx        1 L01      0.113700
     71 H32         5.2440   -2.5230    9.5720 hn        1 L01      0.462800
     72 H351        5.6940   -0.8910   11.3160 hx        1 L01      0.108200
     73 H352        7.3000   -1.7410   11.6120 hx        1 L01      0.108200
     74 H37         7.3730   -3.6300   13.0620 ha        1 L01      0.146000
     75 H38         6.1910   -5.1960   14.5880 ha        1 L01      0.173000
     76 H39         3.7070   -5.3350   14.5840 ha        1 L01      0.176000
     77 H421        1.6250   -4.3150   14.9000 h1        1 L01      0.067033
     78 H422        1.6290   -5.7110   13.6970 h1        1 L01      0.067033
     79 H423        0.3240   -4.4150   13.6000 h1        1 L01      0.067033
     80 H43         3.5370   -2.2750   11.5110 ha        1 L01      0.143000
     81 H41         3.1380    1.9460   -0.3730 hn        1 L01      0.446800
     82 H182        7.0060    1.0010    5.7060 hn        1 L01      0.474800
     83 H322        6.6910   -3.2930    9.8370 hn        1 L01      0.462800
@<TRIPOS>BOND
     1    1    2 1   
     2    1   40 1   
     3    1   41 1   
     4    1   42 1   
     5    2    3 1   
     6    2   43 1   
     7    2   44 1   
     8    3    4 1   
     9    3   45 1   
    10    3   46 1   
    11    4    5 1   
    12    4    8 1   
    13    4   81 1   
    14    5    6 1   
    15    5   47 1   
    16    5   48 1   
    17    6    7 1   
    18    6   49 1   
    19    6   50 1   
    20    7   51 1   
    21    7   52 1   
    22    7   53 1   
    23    8    9 2   
    24    8   10 1   
    25   10   11 ar  
    26   10   15 ar  
    27   11   12 ar  
    28   11   54 1   
    29   12   13 ar  
    30   12   55 1   
    31   13   14 ar  
    32   13   56 1   
    33   14   15 ar  
    34   14   16 1   
    35   15   57 1   
    36   16   17 2   
    37   16   18 1   
    38   18   19 1   
    39   18   58 1   
    40   18   82 1   
    41   19   20 1   
    42   19   27 1   
    43   19   59 1   
    44   20   21 1   
    45   20   60 1   
    46   20   61 1   
    47   21   22 ar  
    48   21   26 ar  
    49   22   23 ar  
    50   22   62 1   
    51   23   24 ar  
    52   23   63 1   
    53   24   25 ar  
    54   24   64 1   
    55   25   26 ar  
    56   25   65 1   
    57   26   66 1   
    58   27   28 1   
    59   27   29 1   
    60   27   67 1   
    61   28   68 1   
    62   29   30 1   
    63   29   69 1   
    64   29   70 1   
    65   30   31 1   
    66   30   71 1   
    67   30   83 1   
    68   31   32 1   
    69   31   72 1   
    70   31   73 1   
    71   32   33 ar  
    72   32   39 ar  
    73   33   34 ar  
    74   33   74 1   
    75   34   35 ar  
    76   34   75 1   
    77   35   36 ar  
    78   35   76 1   
    79   36   37 1   
    80   36   39 ar  
    81   37   38 1   
    82   38   77 1   
    83   38   78 1   
    84   38   79 1   
    85   39   80 1   
@<TRIPOS>SUBSTRUCTURE
     1 L01         1 TEMP              0 ****  ****    0 ROOT
