@<TRIPOS>MOLECULE
L02
   34    36     1     0     0
SMALL
bcc


@<TRIPOS>ATOM
      1 N1          1.3430    0.5450    1.5890 na        1 L02     -0.004600
      2 N3          1.5750    0.5820    0.2840 nc        1 L02     -0.503800
      3 C4          0.4360    0.1280   -0.3340 cd        1 L02      0.348800
      4 C5         -0.5550   -0.2090    0.6710 cd        1 L02     -0.278300
      5 C6          0.0600    0.0710    1.9020 cc        1 L02     -0.100600
      6 C7         -0.4730   -0.0780    3.2760 c3        1 L02     -0.001400
      7 C8          0.3480   -1.0700    4.0910 c3        1 L02     -0.074900
      8 C10        -0.2130   -1.1920    5.5070 c3        1 L02      0.162800
      9 N12        -0.3390    0.0850    6.1810 n3        1 L02     -0.822200
     10 C13        -1.0720    1.0780    5.4200 c3        1 L02      0.162800
     11 C15        -0.5340    1.2620    4.0010 c3        1 L02     -0.074900
     12 C20         1.0570    0.7460   -2.6600 ca        1 L02     -0.105000
     13 C21         0.2620    0.0080   -1.7700 ca        1 L02     -0.105500
     14 C22        -0.7190   -0.8560   -2.2820 ca        1 L02     -0.105000
     15 C24        -0.9070   -0.9780   -3.6550 ca        1 L02     -0.128500
     16 C26        -0.1100   -0.2350   -4.5310 ca        1 L02      0.018400
     17 C28         0.8730    0.6260   -4.0360 ca        1 L02     -0.128500
     18 CL1        -0.3380   -0.3810   -6.2100 cl        1 L02     -0.098400
     19 H1          2.0440    0.8250    2.2360 hn        1 L02      0.323700
     20 H5         -1.5560   -0.5840    0.4990 ha        1 L02      0.165000
     21 H7         -1.5240   -0.4790    3.1820 hc        1 L02      0.068700
     22 H8C1        0.3230   -2.0790    3.6050 hc        1 L02      0.052200
     23 H8C2        1.4170   -0.7370    4.1370 hc        1 L02      0.052200
     24 H101       -1.2010   -1.7390    5.4460 h1        1 L02      0.030700
     25 H102        0.4870   -1.8260    6.1220 h1        1 L02      0.030700
     26 H12        -0.7660   -0.0410    7.0790 hn        1 L02      0.365800
     27 H131       -2.1720    0.8290    5.3470 h1        1 L02      0.030700
     28 H132       -0.9810    2.0560    5.9720 h1        1 L02      0.030700
     29 H151        0.4870    1.7220    4.0410 hc        1 L02      0.052200
     30 H152       -1.2070    1.9660    3.4490 hc        1 L02      0.052200
     31 H22        -1.3410   -1.4460   -1.5930 ha        1 L02      0.145000
     32 H24        -1.6790   -1.6590   -4.0460 ha        1 L02      0.146500
     33 H28         1.5010    1.2090   -4.7260 ha        1 L02      0.146500
     34 H20         1.8330    1.4250   -2.2760 ha        1 L02      0.145000
@<TRIPOS>BOND
     1    1    2 1   
     2    1    5 1   
     3    1   19 1   
     4    2    3 2   
     5    3    4 1   
     6    3   13 1   
     7    4    5 2   
     8    4   20 1   
     9    5    6 1   
    10    6    7 1   
    11    6   11 1   
    12    6   21 1   
    13    7    8 1   
    14    7   22 1   
    15    7   23 1   
    16    8    9 1   
    17    8   24 1   
    18    8   25 1   
    19    9   10 1   
    20    9   26 1   
    21   10   11 1   
    22   10   27 1   
    23   10   28 1   
    24   11   29 1   
    25   11   30 1   
    26   12   13 ar  
    27   12   17 ar  
    28   12   34 1   
    29   13   14 ar  
    30   14   15 ar  
    31   14   31 1   
    32   15   16 ar  
    33   15   32 1   
    34   16   17 ar  
    35   16   18 1   
    36   17   33 1   
@<TRIPOS>SUBSTRUCTURE
     1 L02         1 TEMP              0 ****  ****    0 ROOT
