@<TRIPOS>MOLECULE
L02
   34    36     1     0     0
SMALL
bcc


@<TRIPOS>ATOM
      1 N1          0.0690   -0.6510    0.1700 na        1 L02     -0.004600
      2 N3          1.3940   -0.6370    0.1160 nc        1 L02     -0.503800
      3 C4          1.8360   -0.2200    1.3470 cd        1 L02      0.348800
      4 C5          0.6960    0.0380    2.2070 cd        1 L02     -0.278300
      5 C6         -0.4300   -0.2500    1.4180 cc        1 L02     -0.100600
      6 C7         -1.8680   -0.1700    1.7660 c3        1 L02     -0.001400
      7 C8         -2.6020    0.8350    0.8860 c3        1 L02     -0.074900
      8 C10        -4.0850    0.8860    1.2550 c3        1 L02      0.162800
      9 N12        -4.7200   -0.4160    1.2330 n7        1 L02     -0.822200
     10 C13        -4.0280   -1.4190    2.0180 c3        1 L02      0.162800
     11 C15        -2.5440   -1.5320    1.6700 c3        1 L02     -0.074900
     12 C20         4.2460   -0.7340    1.0200 ca        1 L02     -0.105000
     13 C21         3.2310   -0.0640    1.7190 ca        1 L02     -0.105500
     14 C22         3.5740    0.7650    2.7970 ca        1 L02     -0.105000
     15 C24         4.9040    0.9210    3.1760 ca        1 L02     -0.128500
     16 C26         5.9060    0.2450    2.4720 ca        1 L02      0.018400
     17 C28         5.5790   -0.5820    1.3940 ca        1 L02     -0.128500
     18 Cl1         7.5330    0.4320    2.9320 cl        1 L02     -0.098400
     19 H1         -0.4670   -0.9170   -0.6240 hn        1 L02      0.323700
     20 H5          0.7180    0.3690    3.2370 ha        1 L02      0.165000
     21 H7         -1.9310    0.1830    2.8370 hc        1 L02      0.068700
     22 H8C1       -2.1620    1.8560    1.0210 hc        1 L02      0.052200
     23 H8C2       -2.4920    0.5520   -0.1920 hc        1 L02      0.052200
     24 H101       -4.6230    1.5330    0.5060 h1        1 L02      0.030700
     25 H102       -4.1770    1.3860    2.2650 h1        1 L02      0.030700
     26 H12        -5.6720   -0.3380    1.5390 hn        1 L02      0.365800
     27 H131       -4.5260   -2.4080    1.8110 h1        1 L02      0.030700
     28 H132       -4.1130   -1.2210    3.1280 h1        1 L02      0.030700
     29 H151       -2.4300   -1.9440    0.6340 hc        1 L02      0.052200
     30 H152       -2.0610   -2.2500    2.3810 hc        1 L02      0.052200
     31 H22         2.7870    1.3030    3.3470 ha        1 L02      0.145000
     32 H24         5.1630    1.5740    4.0230 ha        1 L02      0.146500
     33 H28         6.3690   -1.1110    0.8400 ha        1 L02      0.146500
     34 H20         3.9950   -1.3870    0.1690 ha        1 L02      0.145000
@<TRIPOS>BOND
     1    1    2 1   
     2    1    5 1   
     3    1   19 1   
     4    2    3 2   
     5    3    4 1   
     6    3   13 1   
     7    4    5 2   
     8    4   20 1   
     9    5    6 1   
    10    6    7 1   
    11    6   11 1   
    12    6   21 1   
    13    7    8 1   
    14    7   22 1   
    15    7   23 1   
    16    8    9 1   
    17    8   24 1   
    18    8   25 1   
    19    9   10 1   
    20    9   26 1   
    21   10   11 1   
    22   10   27 1   
    23   10   28 1   
    24   11   29 1   
    25   11   30 1   
    26   12   13 ar  
    27   12   17 ar  
    28   12   34 1   
    29   13   14 ar  
    30   14   15 ar  
    31   14   31 1   
    32   15   16 ar  
    33   15   32 1   
    34   16   17 ar  
    35   16   18 1   
    36   17   33 1   
@<TRIPOS>SUBSTRUCTURE
     1 L02         1 TEMP              0 ****  ****    0 ROOT
