@<TRIPOS>MOLECULE
L02
   34    36     1     0     0
SMALL
bcc


@<TRIPOS>ATOM
      1 N1          0.0710   -0.6620    0.1730 na        1 L02     -0.004600
      2 N3          1.3960   -0.6460    0.1210 nc        1 L02     -0.503800
      3 C4          1.8360   -0.2190    1.3490 cd        1 L02      0.348800
      4 C5          0.6950    0.0430    2.2060 cd        1 L02     -0.278300
      5 C6         -0.4300   -0.2530    1.4190 cc        1 L02     -0.100600
      6 C7         -1.8680   -0.1720    1.7650 c3        1 L02     -0.001400
      7 C8         -2.6030    0.8260    0.8770 c3        1 L02     -0.074900
      8 C10        -4.0860    0.8770    1.2450 c3        1 L02      0.162800
      9 N12        -4.7200   -0.4270    1.2310 n3        1 L02     -0.822200
     10 C13        -4.0260   -1.4230    2.0240 c3        1 L02      0.162800
     11 C15        -2.5420   -1.5370    1.6780 c3        1 L02     -0.074900
     12 C20         4.2470   -0.7330    1.0280 ca        1 L02     -0.105000
     13 C21         3.2310   -0.0590    1.7200 ca        1 L02     -0.105500
     14 C22         3.5720    0.7800    2.7930 ca        1 L02     -0.105000
     15 C24         4.9020    0.9410    3.1710 ca        1 L02     -0.128500
     16 C26         5.9050    0.2600    2.4740 ca        1 L02      0.018400
     17 C28         5.5800   -0.5750    1.4010 ca        1 L02     -0.128500
     18 CL1         7.5310    0.4530    2.9330 cl        1 L02     -0.098400
     19 H1         -0.4640   -0.9350   -0.6180 hn        1 L02      0.323700
     20 H5          0.7160    0.3820    3.2340 ha        1 L02      0.165000
     21 H7         -1.9320    0.1880    2.8330 hc        1 L02      0.068700
     22 H8C1       -2.1640    1.8480    1.0060 hc        1 L02      0.052200
     23 H8C2       -2.4910    0.5350   -0.1990 hc        1 L02      0.052200
     24 H101       -4.1790    1.3840    2.2510 h1        1 L02      0.030700
     25 H102       -4.6240    1.5180    0.4910 h1        1 L02      0.030700
     26 H12        -5.6720   -0.3480    1.5360 hn        1 L02      0.365800
     27 H131       -4.5230   -2.4140    1.8230 h1        1 L02      0.030700
     28 H132       -4.1120   -1.2180    3.1330 h1        1 L02      0.030700
     29 H151       -2.4270   -1.9550    0.6450 hc        1 L02      0.052200
     30 H152       -2.0580   -2.2490    2.3940 hc        1 L02      0.052200
     31 H22         2.7830    1.3210    3.3370 ha        1 L02      0.145000
     32 H24         5.1590    1.6010    4.0130 ha        1 L02      0.146500
     33 H28         6.3710   -1.1080    0.8520 ha        1 L02      0.146500
     34 H20         3.9980   -1.3920    0.1820 ha        1 L02      0.145000
@<TRIPOS>BOND
     1    1    2 1   
     2    1    5 1   
     3    1   19 1   
     4    2    3 2   
     5    3    4 1   
     6    3   13 1   
     7    4    5 2   
     8    4   20 1   
     9    5    6 1   
    10    6    7 1   
    11    6   11 1   
    12    6   21 1   
    13    7    8 1   
    14    7   22 1   
    15    7   23 1   
    16    8    9 1   
    17    8   24 1   
    18    8   25 1   
    19    9   10 1   
    20    9   26 1   
    21   10   11 1   
    22   10   27 1   
    23   10   28 1   
    24   11   29 1   
    25   11   30 1   
    26   12   13 ar  
    27   12   17 ar  
    28   12   34 1   
    29   13   14 ar  
    30   14   15 ar  
    31   14   31 1   
    32   15   16 ar  
    33   15   32 1   
    34   16   17 ar  
    35   16   18 1   
    36   17   33 1   
@<TRIPOS>SUBSTRUCTURE
     1 L02         1 TEMP              0 ****  ****    0 ROOT
