@<TRIPOS>MOLECULE
L02
   34    36     1     0     0
SMALL
bcc


@<TRIPOS>ATOM
      1 N1          0.0700   -0.6420    0.1670 na        1 L02     -0.004600
      2 N3          1.3960   -0.6260    0.1160 nc        1 L02     -0.503800
      3 C4          1.8360   -0.2170    1.3500 cd        1 L02      0.348800
      4 C5          0.6950    0.0330    2.2100 cd        1 L02     -0.278300
      5 C6         -0.4300   -0.2490    1.4180 cc        1 L02     -0.100600
      6 C7         -1.8690   -0.1730    1.7650 c3        1 L02     -0.001400
      7 C8         -2.6020    0.8380    0.8900 c3        1 L02     -0.074900
      8 C10        -4.0850    0.8850    1.2570 c3        1 L02      0.162800
      9 N12        -4.7200   -0.4180    1.2260 n3        1 L02     -0.822200
     10 C13        -4.0280   -1.4250    2.0060 c3        1 L02      0.162800
     11 C15        -2.5430   -1.5350    1.6590 c3        1 L02     -0.074900
     12 C20         4.2470   -0.7280    1.0220 ca        1 L02     -0.105000
     13 C21         3.2300   -0.0640    1.7250 ca        1 L02     -0.105500
     14 C22         3.5720    0.7580    2.8100 ca        1 L02     -0.105000
     15 C24         4.9010    0.9110    3.1910 ca        1 L02     -0.128500
     16 C26         5.9040    0.2410    2.4840 ca        1 L02      0.018400
     17 C28         5.5790   -0.5780    1.3990 ca        1 L02     -0.128500
     18 CL1         7.5300    0.4250    2.9470 cl        1 L02     -0.098400
     19 H1         -0.4640   -0.9020   -0.6280 hn        1 L02      0.323700
     20 H5          0.7160    0.3570    3.2430 ha        1 L02      0.165000
     21 H7         -1.9330    0.1730    2.8380 hc        1 L02      0.068700
     22 H8C1       -2.4900    0.5620   -0.1900 hc        1 L02      0.052200
     23 H8C2       -2.1630    1.8580    1.0320 hc        1 L02      0.052200
     24 H101       -4.1790    1.3780    2.2710 h1        1 L02      0.030700
     25 H102       -4.6230    1.5370    0.5120 h1        1 L02      0.030700
     26 H12        -5.6720   -0.3430    1.5310 hn        1 L02      0.365800
     27 H131       -4.1140   -1.2350    3.1170 h1        1 L02      0.030700
     28 H132       -4.5250   -2.4130    1.7910 h1        1 L02      0.030700
     29 H151       -2.0610   -2.2580    2.3650 hc        1 L02      0.052200
     30 H152       -2.4280   -1.9400    0.6200 hc        1 L02      0.052200
     31 H22         2.7830    1.2910    3.3620 ha        1 L02      0.145000
     32 H24         5.1590    1.5580    4.0430 ha        1 L02      0.146500
     33 H28         6.3700   -1.1030    0.8420 ha        1 L02      0.146500
     34 H20         3.9970   -1.3750    0.1670 ha        1 L02      0.145000
@<TRIPOS>BOND
     1    1    2 1   
     2    1    5 1   
     3    1   19 1   
     4    2    3 2   
     5    3    4 1   
     6    3   13 1   
     7    4    5 2   
     8    4   20 1   
     9    5    6 1   
    10    6    7 1   
    11    6   11 1   
    12    6   21 1   
    13    7    8 1   
    14    7   22 1   
    15    7   23 1   
    16    8    9 1   
    17    8   24 1   
    18    8   25 1   
    19    9   10 1   
    20    9   26 1   
    21   10   11 1   
    22   10   27 1   
    23   10   28 1   
    24   11   29 1   
    25   11   30 1   
    26   12   13 ar  
    27   12   17 ar  
    28   12   34 1   
    29   13   14 ar  
    30   14   15 ar  
    31   14   31 1   
    32   15   16 ar  
    33   15   32 1   
    34   16   17 ar  
    35   16   18 1   
    36   17   33 1   
@<TRIPOS>SUBSTRUCTURE
     1 L02         1 TEMP              0 ****  ****    0 ROOT
