@<TRIPOS>MOLECULE
L03
   22    23     1     0     0
SMALL
bcc


@<TRIPOS>ATOM
      1 C1          0.0590   -0.0100   -0.0660 c3        1 L03     -0.052000
      2 S2          1.7920   -0.1990    0.1150 ss        1 L03     -0.211400
      3 C3          2.0360   -0.0470    1.7760 cc        1 L03      0.423800
      4 N4          1.1010    0.1830    2.7630 nd        1 L03     -0.360000
      5 N5          1.6930    0.2340    3.9280 nd        1 L03     -0.325000
      6 C6          3.0460    0.0390    3.7650 cc        1 L03      0.408000
      7 N7          3.2890   -0.1460    2.3900 na        1 L03     -0.418700
      8 C8          4.0730    0.0220    4.7960 ca        1 L03     -0.117500
      9 C9          3.8380    0.6820    6.0110 ca        1 L03     -0.099000
     10 C10         4.8080    0.6770    7.0110 ca        1 L03     -0.125500
     11 C11         6.0200    0.0120    6.7980 ca        1 L03      0.025400
     12 Cl12        7.2070    0.0080    8.0130 cl        1 L03     -0.086400
     13 C13         6.2610   -0.6540    5.5910 ca        1 L03     -0.125500
     14 C14         5.2870   -0.6490    4.5950 ca        1 L03     -0.099000
     15 H1C1       -0.5110   -0.7950    0.4790 h1        1 L03      0.082033
     16 H1C2       -0.2960    0.9860    0.2820 h1        1 L03      0.082033
     17 H1C3       -0.1260   -0.1100   -1.1620 h1        1 L03      0.082033
     18 H7          4.1590   -0.2910    1.9510 hn        1 L03      0.317700
     19 H9          2.8820    1.2040    6.1820 ha        1 L03      0.147500
     20 H10         4.6180    1.1950    7.9630 ha        1 L03      0.152000
     21 H13         7.2120   -1.1830    5.4280 ha        1 L03      0.152000
     22 H14         5.4840   -1.1920    3.6590 ha        1 L03      0.147500
@<TRIPOS>BOND
     1    1    2 1   
     2    1   15 1   
     3    1   16 1   
     4    1   17 1   
     5    2    3 1   
     6    3    4 2   
     7    3    7 1   
     8    4    5 1   
     9    5    6 2   
    10    6    7 1   
    11    6    8 1   
    12    7   18 1   
    13    8    9 ar  
    14    8   14 ar  
    15    9   10 ar  
    16    9   19 1   
    17   10   11 ar  
    18   10   20 1   
    19   11   12 1   
    20   11   13 ar  
    21   13   14 ar  
    22   13   21 1   
    23   14   22 1   
@<TRIPOS>SUBSTRUCTURE
     1 L03         1 TEMP              0 ****  ****    0 ROOT
