@<TRIPOS>MOLECULE
L03
   22    19     1     0     0
SMALL
bcc


@<TRIPOS>ATOM
      1 C1         -3.6880   -1.2310   -3.3420 c3        1 L03     -0.052000
      2 S2         -2.0160   -0.6400   -3.3100 ss        1 L03     -0.211400
      3 C3         -1.4420   -0.5780   -1.6330 cc        1 L03      0.335300
      4 N4         -2.0300   -1.1600   -0.5770 n1        1 L03     -0.097000
      5 N5         -1.2740   -0.9140    0.5070 nd        1 L03     -0.325000
      6 C6         -0.2210   -0.1800    0.1200 cd        1 L03      0.582000
      7 N7         -0.3240    0.0280   -1.2030 nc        1 L03     -0.718000
      8 C8          0.8200    0.2440    0.9330 ch        1 L03     -0.117000
      9 C9          0.7170    1.4420    1.6210 c1        1 L03     -0.046000
     10 C10         1.7500    1.8570    2.4480 c1        1 L03     -0.046000
     11 C11         2.8850    1.0740    2.5870 c1        1 L03      0.036900
     12 CL12        4.1960    1.6100    3.6040 cl        1 L03     -0.097900
     13 C13         2.9870   -0.1250    1.8980 c1        1 L03     -0.067500
     14 C14         1.9550   -0.5400    1.0710 c1        1 L03     -0.059500
     15 H1C1       -4.2570   -0.6320   -2.8150 h1        1 L03      0.082033
     16 H1C2       -3.7220   -2.1330   -2.9610 h1        1 L03      0.082033
     17 H1C3       -4.0080   -1.2550   -4.2680 h1        1 L03      0.082033
     18 H7          0.2630    0.4980   -1.7190 DU        1 L03      0.268000
     19 H9         -0.0820    1.9940    1.5240 ha        1 L03      0.101500
     20 H10         1.6770    2.7010    2.9330 ha        1 L03      0.101500
     21 H13         3.7860   -0.6770    1.9960 ha        1 L03      0.092500
     22 H14         2.0270   -1.3840    0.5860 ha        1 L03      0.073500
@<TRIPOS>BOND
     1    1    2 1   
     2    1   15 1   
     3    1   16 1   
     4    1   17 1   
     5    2    3 1   
     6    3    4 2   
     7    3    7 1   
     8    4    5 2   
     9    5    6 1   
    10    6    7 2   
    11    6    8 1   
    12    8   14 3   
    13    9   10 3   
    14    9   19 1   
    15   10   20 1   
    16   11   12 1   
    17   11   13 3   
    18   13   21 1   
    19   14   22 1   
@<TRIPOS>SUBSTRUCTURE
     1 L03         1 TEMP              0 ****  ****    0 ROOT
