@<TRIPOS>MOLECULE
L03
   22    23     1     0     0
SMALL
bcc


@<TRIPOS>ATOM
      1 C1          0.3870   -0.1310    5.5360 c3        1 L03     -0.052000
      2 S2         -0.8740    0.0730    4.3360 ss        1 L03     -0.211400
      3 C3         -0.0470   -0.0340    2.8720 cc        1 L03      0.423800
      4 N4          1.3020   -0.2230    2.6590 nd        1 L03     -0.360000
      5 N5          1.5470   -0.2480    1.3740 nd        1 L03     -0.325000
      6 C6          0.3720   -0.0790    0.6790 cc        1 L03      0.408000
      7 N7         -0.6660    0.0600    1.6200 na        1 L03     -0.418700
      8 C8          0.1900   -0.0390   -0.7650 ca        1 L03     -0.117500
      9 C9          1.2740    0.3070   -1.5850 ca        1 L03     -0.099000
     10 C10         1.1200    0.3490   -2.9690 ca        1 L03     -0.125500
     11 C11        -0.1200    0.0460   -3.5390 ca        1 L03      0.025400
     12 CL12       -0.3120    0.1020   -5.2250 cl        1 L03     -0.086400
     13 C13        -1.2050   -0.3050   -2.7290 ca        1 L03     -0.125500
     14 C14        -1.0480   -0.3490   -1.3460 ca        1 L03     -0.099000
     15 H1C1       -0.1400   -0.0660    6.5170 h1        1 L03      0.082033
     16 H1C2        0.8950   -1.1170    5.4520 h1        1 L03      0.082033
     17 H1C3        1.1600    0.6670    5.4770 h1        1 L03      0.082033
     18 H7         -1.6230    0.2120    1.4370 hn        1 L03      0.317700
     19 H9          2.2530    0.5430   -1.1380 ha        1 L03      0.147500
     20 H10         1.9750    0.6200   -3.6070 ha        1 L03      0.152000
     21 H13        -2.1790   -0.5510   -3.1790 ha        1 L03      0.152000
     22 H14        -1.9050   -0.6460   -0.7240 ha        1 L03      0.147500
@<TRIPOS>BOND
     1    1    2 1   
     2    1   15 1   
     3    1   16 1   
     4    1   17 1   
     5    2    3 1   
     6    3    4 2   
     7    3    7 1   
     8    4    5 1   
     9    5    6 2   
    10    6    7 1   
    11    6    8 1   
    12    7   18 1   
    13    8    9 ar  
    14    8   14 ar  
    15    9   10 ar  
    16    9   19 1   
    17   10   11 ar  
    18   10   20 1   
    19   11   12 1   
    20   11   13 ar  
    21   13   14 ar  
    22   13   21 1   
    23   14   22 1   
@<TRIPOS>SUBSTRUCTURE
     1 L03         1 TEMP              0 ****  ****    0 ROOT
