@<TRIPOS>MOLECULE
L03
   22    23     1     0     0
SMALL
bcc


@<TRIPOS>ATOM
      1 C1          0.0570   -0.0030   -0.0640 c3        1 L03     -0.052000
      2 S2          1.7860   -0.2210    0.1190 ss        1 L03     -0.211400
      3 C3          2.0340   -0.0510    1.7770 cc        1 L03      0.423800
      4 N4          1.1040    0.2120    2.7610 nd        1 L03     -0.360000
      5 N5          1.6980    0.2680    3.9250 nd        1 L03     -0.325000
      6 C6          3.0460    0.0450    3.7650 cc        1 L03      0.408000
      7 N7          3.2850   -0.1640    2.3920 na        1 L03     -0.418700
      8 C8          4.0740    0.0240    4.7950 ca        1 L03     -0.117500
      9 C9          3.8530    0.7060    6.0010 ca        1 L03     -0.099000
     10 C10         4.8230    0.6970    7.0000 ca        1 L03     -0.125500
     11 C11         6.0220    0.0060    6.7960 ca        1 L03      0.025400
     12 CL12        7.2100   -0.0030    8.0100 cl        1 L03     -0.086400
     13 C13         6.2490   -0.6810    5.5990 ca        1 L03     -0.125500
     14 C14         5.2760   -0.6730    4.6040 ca        1 L03     -0.099000
     15 H1C1       -0.5270   -0.7690    0.4930 h1        1 L03      0.082033
     16 H1C2       -0.2800    1.0040    0.2700 h1        1 L03      0.082033
     17 H1C3       -0.1310   -0.1140   -1.1580 h1        1 L03      0.082033
     18 H7          4.1520   -0.3320    1.9550 hn        1 L03      0.317700
     19 H9          2.9070    1.2480    6.1640 ha        1 L03      0.147500
     20 H10         4.6430    1.2320    7.9440 ha        1 L03      0.152000
     21 H13         7.1900   -1.2310    5.4430 ha        1 L03      0.152000
     22 H14         5.4610   -1.2330    3.6760 ha        1 L03      0.147500
@<TRIPOS>BOND
     1    1    2 1   
     2    1   15 1   
     3    1   16 1   
     4    1   17 1   
     5    2    3 1   
     6    3    4 2   
     7    3    7 1   
     8    4    5 1   
     9    5    6 2   
    10    6    7 1   
    11    6    8 1   
    12    7   18 1   
    13    8    9 ar  
    14    8   14 ar  
    15    9   10 ar  
    16    9   19 1   
    17   10   11 ar  
    18   10   20 1   
    19   11   12 1   
    20   11   13 ar  
    21   13   14 ar  
    22   13   21 1   
    23   14   22 1   
@<TRIPOS>SUBSTRUCTURE
     1 L03         1 TEMP              0 ****  ****    0 ROOT
