@<TRIPOS>MOLECULE
L04
   99   103     1     0     0
SMALL
bcc


@<TRIPOS>ATOM
      1 C1         -1.0820    0.1820   -3.0040 c3        1 L04     -0.050400
      2 C2         -1.0110   -0.4870   -1.6420 c3        1 L04     -0.192700
      3 C3         -2.2480   -1.3990   -1.4420 c         1 L04      0.914600
      4 C4         -6.6590    1.3930   -0.2640 c3        1 L04     -0.083600
      5 C5          6.4440   -0.0860    4.3530 cp        1 L04     -0.030000
      6 C6          7.1420   -1.1450    4.9520 ca        1 L04     -0.100500
      7 C7         -0.7010   -0.0800    0.8210 c3        1 L04     -0.126700
      8 C8          0.7510    0.0480    1.2490 c3        1 L04     -0.063400
      9 C9          1.0630   -0.8460    2.4360 c3        1 L04     -0.049100
     10 C10         2.4570   -0.6530    2.9200 ca        1 L04     -0.050300
     11 C11         2.8150    0.5330    3.5740 ca        1 L04     -0.130500
     12 C12         4.1130    0.7190    4.0390 ca        1 L04     -0.118000
     13 C13         5.0820   -0.2800    3.8630 cp        1 L04     -0.063000
     14 C14         4.7220   -1.4670    3.2100 ca        1 L04     -0.118000
     15 C15         3.4230   -1.6490    2.7420 ca        1 L04     -0.130500
     16 C16        -1.6340    0.5710    1.8390 c         1 L04      0.661100
     17 C17         8.4390   -0.9700    5.4220 ca        1 L04     -0.166500
     18 C18        -0.9320    0.5610   -0.5470 c3        1 L04     -0.053400
     19 C19        -3.9790    0.9180    2.4900 c3        1 L04      0.044700
     20 C20        -5.3300    0.9000    1.7620 c3        1 L04     -0.071400
     21 C21        -5.2740    1.4620    0.3510 c3        1 L04     -0.094700
     22 C22        -4.7650    2.8880    0.3310 c3        1 L04     -0.083600
     23 C23        -0.8900   -0.8260   -4.1170 c3        1 L04     -0.085400
     24 C24        -1.0020   -0.1680   -5.4760 c3        1 L04     -0.106400
     25 C25        -0.8180   -1.2130   -6.5780 c3        1 L04      0.088000
     26 C26        -1.5890   -0.3080   -8.7880 c         1 L04      0.703100
     27 C27        -4.2180    0.3970    3.9390 c         1 L04      0.655100
     28 C28         0.6770    0.0080   -8.1870 c3        1 L04      0.116300
     29 C29        -0.9690    0.6160   -9.7910 ca        1 L04     -0.154600
     30 C30        -3.0570    0.0990    6.1340 ca        1 L04      0.089600
     31 C31        -4.1360   -0.4860    6.8360 ca        1 L04     -0.179000
     32 C32        -3.9870   -0.8500    8.1710 ca        1 L04     -0.107500
     33 C33        -2.7830   -0.6500    8.8410 ca        1 L04     -0.178000
     34 C34        -1.7100   -0.0760    8.1600 ca        1 L04     -0.107500
     35 C35        -1.8340    0.2960    6.8280 ca        1 L04     -0.179000
     36 C36         0.3890    0.8160   -9.4300 ca        1 L04     -0.080300
     37 C37        -1.5140    1.2380  -10.8980 ca        1 L04     -0.060000
     38 C38         1.2050    1.6370  -10.1840 ca        1 L04     -0.124000
     39 C39         0.6510    2.2690  -11.3080 ca        1 L04     -0.112000
     40 C40        -0.6820    2.0740  -11.6590 ca        1 L04     -0.148000
     41 C41         9.0590    0.2860    5.2930 ca        1 L04      0.112900
     42 C42         8.3700    1.3550    4.6920 ca        1 L04     -0.166500
     43 C43         7.0740    1.1610    4.2300 ca        1 L04     -0.100500
     44 N1         -0.5660   -0.7130   -7.9030 n         1 L04     -0.459800
     45 N18        -2.9530    0.1690    1.8130 n         1 L04     -0.549900
     46 O4         -3.2870   -0.9060   -0.9020 o         1 L04     -0.844800
     47 O5         -2.1630   -2.5970   -1.8220 o         1 L04     -0.844800
     48 O17        -1.2300    1.4110    2.6820 o         1 L04     -0.687100
     49 O28        -5.3300   -0.0310    4.2950 o         1 L04     -0.608100
     50 F1         10.3240    0.4660    5.7470 f         1 L04     -0.148900
     51 H11A       -2.0800    0.6830   -3.1140 hc        1 L04      0.024700
     52 H12A       -0.2950    0.9790   -3.0790 hc        1 L04      0.024700
     53 H2         -0.0960   -1.1380   -1.6000 hc        1 L04      0.041700
     54 H41        -6.6290    1.7610   -1.3170 hc        1 L04      0.027033
     55 H42A       -7.0260    0.3390   -0.2680 hc        1 L04      0.027033
     56 H43A       -7.3810    2.0210    0.3120 hc        1 L04      0.027033
     57 H6          6.6540   -2.1260    5.0590 ha        1 L04      0.142500
     58 H7         -0.9620   -1.1780    0.7500 hc        1 L04      0.098700
     59 H81         1.4050   -0.2350    0.3830 hc        1 L04      0.052200
     60 H82         0.9700    1.1150    1.5170 hc        1 L04      0.052200
     61 H91         0.3470   -0.6030    3.2680 hc        1 L04      0.058200
     62 H92         0.8970   -1.9190    2.1500 hc        1 L04      0.058200
     63 H11         2.0570    1.3190    3.7170 ha        1 L04      0.142500
     64 H12         4.3800    1.6530    4.5570 ha        1 L04      0.127500
     65 H14         5.4730   -2.2560    3.0570 ha        1 L04      0.127500
     66 H15         3.1550   -2.5840    2.2260 ha        1 L04      0.142500
     67 H17         8.9830   -1.8000    5.8940 ha        1 L04      0.144000
     68 H181       -1.8990    1.1340   -0.5510 hc        1 L04      0.040200
     69 H182       -0.1070    1.2900   -0.7650 hc        1 L04      0.040200
     70 H19        -3.6430    1.9970    2.5990 h1        1 L04      0.071700
     71 H201       -6.0500    1.4960    2.3830 hc        1 L04      0.060200
     72 H202       -5.7150   -0.1540    1.7230 hc        1 L04      0.060200
     73 H21        -4.5840    0.8190   -0.2780 hc        1 L04      0.122700
     74 H221       -5.3310    3.5240    1.0530 hc        1 L04      0.027033
     75 H222       -3.6810    2.9210    0.5980 hc        1 L04      0.027033
     76 H223       -4.8840    3.3230   -0.6910 hc        1 L04      0.027033
     77 H231        0.1180   -1.3080   -4.0150 hc        1 L04      0.062200
     78 H232       -1.6570   -1.6410   -4.0040 hc        1 L04      0.062200
     79 H241       -2.0070    0.3180   -5.5820 hc        1 L04      0.037200
     80 H242       -0.2300    0.6410   -5.5610 hc        1 L04      0.037200
     81 H251        0.0530   -1.8790   -6.3100 h1        1 L04      0.066700
     82 H252       -1.7480   -1.8490   -6.6320 h1        1 L04      0.066700
     83 H281        0.9770    0.6760   -7.3330 h1        1 L04      0.065700
     84 H282        1.4990   -0.7380   -8.3680 h1        1 L04      0.065700
     85 H31        -5.1000   -0.6610    6.3320 ha        1 L04      0.153500
     86 H32        -4.8380   -1.3060    8.6980 ha        1 L04      0.122000
     87 H33        -2.6770   -0.9420    9.8950 ha        1 L04      0.120000
     88 H34        -0.7530    0.0840    8.6780 ha        1 L04      0.122000
     89 H35        -0.9710    0.7440    6.3110 ha        1 L04      0.153500
     90 H37        -2.5670    1.0810  -11.1720 ha        1 L04      0.152000
     91 H38         2.2580    1.7990   -9.9160 ha        1 L04      0.136000
     92 H39         1.2850    2.9290  -11.9180 ha        1 L04      0.128000
     93 H40        -1.0940    2.5810  -12.5450 ha        1 L04      0.131000
     94 H42         8.8630    2.3330    4.5930 ha        1 L04      0.144000
     95 H43         6.5360    1.9960    3.7540 ha        1 L04      0.142500
     96 HN8        -3.2510   -0.4160    1.0420 hn        1 L04      0.385500
     97 HN9        -2.2840    0.8700    4.4090 hn        1 L04      0.350500
     98 N29        -3.1310    0.4980    4.7960 n         1 L04     -0.470100
     99 O1         -2.7630   -0.7000   -8.7630 o         1 L04     -0.604500
@<TRIPOS>BOND
     1    1    2 1   
     2    1   23 1   
     3    1   51 1   
     4    1   52 1   
     5    2    3 1   
     6    2   18 1   
     7    2   53 1   
     8    3   46 1   
     9    3   47 1   
    10    4   21 1   
    11    4   54 1   
    12    4   55 1   
    13    4   56 1   
    14    5    6 ar  
    15    5   13 1   
    16    5   43 ar  
    17    6   17 ar  
    18    6   57 1   
    19    7    8 1   
    20    7   16 1   
    21    7   18 1   
    22    7   58 1   
    23    8    9 1   
    24    8   59 1   
    25    8   60 1   
    26    9   10 1   
    27    9   61 1   
    28    9   62 1   
    29   10   11 ar  
    30   10   15 ar  
    31   11   12 ar  
    32   11   63 1   
    33   12   13 ar  
    34   12   64 1   
    35   13   14 ar  
    36   14   15 ar  
    37   14   65 1   
    38   15   66 1   
    39   16   45 1   
    40   16   48 2   
    41   17   41 ar  
    42   17   67 1   
    43   18   68 1   
    44   18   69 1   
    45   19   20 1   
    46   19   27 1   
    47   19   45 1   
    48   19   70 1   
    49   20   21 1   
    50   20   71 1   
    51   20   72 1   
    52   21   22 1   
    53   21   73 1   
    54   22   74 1   
    55   22   75 1   
    56   22   76 1   
    57   23   24 1   
    58   23   77 1   
    59   23   78 1   
    60   24   25 1   
    61   24   79 1   
    62   24   80 1   
    63   25   44 1   
    64   25   81 1   
    65   25   82 1   
    66   26   29 1   
    67   26   44 1   
    68   26   99 2   
    69   27   49 2   
    70   27   98 1   
    71   28   36 1   
    72   28   44 1   
    73   28   83 1   
    74   28   84 1   
    75   29   36 ar  
    76   29   37 ar  
    77   30   31 ar  
    78   30   35 ar  
    79   30   98 1   
    80   31   32 ar  
    81   31   85 1   
    82   32   33 ar  
    83   32   86 1   
    84   33   34 ar  
    85   33   87 1   
    86   34   35 ar  
    87   34   88 1   
    88   35   89 1   
    89   36   38 ar  
    90   37   40 ar  
    91   37   90 1   
    92   38   39 ar  
    93   38   91 1   
    94   39   40 ar  
    95   39   92 1   
    96   40   93 1   
    97   41   42 ar  
    98   41   50 1   
    99   42   43 ar  
   100   42   94 1   
   101   43   95 1   
   102   45   96 1   
   103   97   98 1   
@<TRIPOS>SUBSTRUCTURE
     1 L04         1 TEMP              0 ****  ****    0 ROOT
