@<TRIPOS>MOLECULE
L04
  100   104     1     0     0
SMALL
bcc


@<TRIPOS>ATOM
      1 C1         -0.0540    0.1320   -0.0630 c3        1 L04     -0.074400
      2 C2          1.4520    0.2890    0.1100 c3        1 L04     -0.108700
      3 C3          1.7560    0.9820    1.4130 c         1 L04      0.642100
      4 C4          0.8950    6.6510    0.3510 c3        1 L04     -0.092600
      5 C5          8.0410   -4.0780   -4.9920 cp        1 L04     -0.049000
      6 C6          9.1210   -4.8500   -4.5410 ca        1 L04     -0.095500
      7 C7          3.5570    1.1560   -0.9930 c3        1 L04     -0.130700
      8 C8          4.1760    0.0680   -1.8570 c3        1 L04     -0.068400
      9 C9          5.6530   -0.1130   -1.5600 c3        1 L04     -0.040100
     10 C10         6.2620   -1.1450   -2.4430 ca        1 L04     -0.074300
     11 C11         6.4590   -0.8770   -3.8030 ca        1 L04     -0.127000
     12 C12         7.0370   -1.8320   -4.6350 ca        1 L04     -0.117500
     13 C13         7.4330   -3.0750   -4.1200 cp        1 L04     -0.041000
     14 C14         7.2390   -3.3400   -2.7580 ca        1 L04     -0.117500
     15 C15         6.6580   -2.3840   -1.9290 ca        1 L04     -0.127000
     16 C16         4.0260    2.5420   -1.4380 c         1 L04      0.663100
     17 C17         9.7070   -5.8060   -5.3630 ca        1 L04     -0.166000
     18 C18         2.0340    1.0930   -1.0470 c3        1 L04     -0.077400
     19 C19         4.1220    4.9470   -0.8930 c3        1 L04      0.037700
     20 C20         3.2160    5.9600   -0.1810 c3        1 L04     -0.082400
     21 C21         1.7650    5.8870   -0.6290 c3        1 L04     -0.068700
     22 C22         1.5840    6.4430   -2.0260 c3        1 L04     -0.092600
     23 C23        -0.6130   -0.9720    0.8090 c3        1 L04     -0.085400
     24 C24        -2.1200   -1.0390    0.6960 c3        1 L04     -0.112400
     25 C25        -2.6580   -2.1620    1.5880 c3        1 L04      0.097000
     26 C26        -4.9440   -1.5280    2.3800 c         1 L04      0.707100
     27 C27         5.6010    5.3000   -0.5450 c         1 L04      0.647100
     28 C28        -4.7780   -2.8510    0.4200 c3        1 L04      0.121300
     29 C29        -6.3090   -1.6370    1.7810 ca        1 L04     -0.158600
     30 C30         7.9470    4.8070   -1.2470 ca        1 L04      0.068600
     31 C31         8.5950    5.6340   -0.3040 ca        1 L04     -0.171000
     32 C32         9.9850    5.7110   -0.2820 ca        1 L04     -0.106000
     33 C33        10.7590    4.9800   -1.1800 ca        1 L04     -0.161000
     34 C34        10.1290    4.1600   -2.1150 ca        1 L04     -0.106000
     35 C35         8.7430    4.0670   -2.1570 ca        1 L04     -0.171000
     36 C36        -6.2150   -2.4200    0.6000 ca        1 L04     -0.083300
     37 C37        -7.5160   -1.1120    2.1980 ca        1 L04     -0.054000
     38 C38        -7.3350   -2.6790   -0.1650 ca        1 L04     -0.120000
     39 C39        -8.5620   -2.1430    0.2580 ca        1 L04     -0.104000
     40 C40        -8.6530   -1.3750    1.4160 ca        1 L04     -0.142000
     41 C41         9.2060   -6.0030   -6.6630 ca        1 L04      0.125900
     42 C42         8.1210   -5.2340   -7.1260 ca        1 L04     -0.166000
     43 C43         7.5510   -4.2810   -6.2900 ca        1 L04     -0.095500
     44 N1         -4.0800   -2.3330    1.5990 n         1 L04     -0.469800
     45 N18         3.8240    3.5780   -0.5540 n         1 L04     -0.562900
     46 O4          1.7280    0.1710    2.5050 oh        1 L04     -0.599100
     47 O5          2.0410    2.1680    1.6150 o         1 L04     -0.572000
     48 O17         4.5810    2.7370   -2.5420 o         1 L04     -0.637100
     49 F1          9.7680   -6.9330   -7.4710 f         1 L04     -0.140900
     50 H11A       -0.5630    1.1030    0.1740 hc        1 L04      0.056200
     51 H12A       -0.2690   -0.1020   -1.1400 hc        1 L04      0.056200
     52 H2          1.9310   -0.7310    0.1400 hc        1 L04      0.089700
     53 H41         1.2150    7.7190    0.4070 hc        1 L04      0.036367
     54 H42A       -0.1730    6.6170    0.0270 hc        1 L04      0.036367
     55 H43A        0.9710    6.2040    1.3710 hc        1 L04      0.036367
     56 H6          9.5180   -4.6920   -3.5260 ha        1 L04      0.141000
     57 H7          3.9000    1.0020    0.0720 hc        1 L04      0.071700
     58 H81         4.0450    0.3320   -2.9400 hc        1 L04      0.058700
     59 H82         3.6330   -0.8950   -1.6670 hc        1 L04      0.058700
     60 H91         5.7900   -0.3980   -0.4830 hc        1 L04      0.055700
     61 H92         6.1780    0.8690   -1.7200 hc        1 L04      0.055700
     62 H11         6.1570    0.1000   -4.2130 ha        1 L04      0.137500
     63 H12         7.1930   -1.6070   -5.7000 ha        1 L04      0.135000
     64 H14         7.5410   -4.3130   -2.3420 ha        1 L04      0.135000
     65 H15         6.5120   -2.6060   -0.8610 ha        1 L04      0.137500
     66 H17        10.5560   -6.4080   -5.0100 ha        1 L04      0.149000
     67 H181        1.5910    2.1250   -1.0160 hc        1 L04      0.067700
     68 H182        1.7130    0.6210   -2.0140 hc        1 L04      0.067700
     69 H19         3.9970    5.0740   -2.0140 h1        1 L04      0.086700
     70 H201        3.2810    5.8040    0.9290 hc        1 L04      0.070700
     71 H202        3.6250    6.9840   -0.3910 hc        1 L04      0.070700
     72 H21         1.4290    4.8110   -0.6270 hc        1 L04      0.046700
     73 H221        2.1630    5.8460   -2.7700 hc        1 L04      0.036367
     74 H222        1.9310    7.5040   -2.0740 hc        1 L04      0.036367
     75 H223        0.5050    6.4130   -2.3150 hc        1 L04      0.036367
     76 H231       -0.3190   -0.7920    1.8790 hc        1 L04      0.054200
     77 H232       -0.1660   -1.9550    0.5050 hc        1 L04      0.054200
     78 H241       -2.5680   -0.0590    1.0090 hc        1 L04      0.047700
     79 H242       -2.4120   -1.2170   -0.3720 hc        1 L04      0.047700
     80 H251       -2.3400   -1.9580    2.6520 h1        1 L04      0.063700
     81 H252       -2.2000   -3.1380    1.2580 h1        1 L04      0.063700
     82 H281       -4.6880   -3.9710    0.4010 h1        1 L04      0.063200
     83 H282       -4.3470   -2.4350   -0.5320 h1        1 L04      0.063200
     84 H31         8.0110    6.2260    0.4200 ha        1 L04      0.152500
     85 H32        10.4730    6.3610    0.4600 ha        1 L04      0.131000
     86 H33        11.8550    5.0480   -1.1530 ha        1 L04      0.131000
     87 H34        10.7310    3.5780   -2.8290 ha        1 L04      0.131000
     88 H35         8.2710    3.4120   -2.9060 ha        1 L04      0.152500
     89 H37        -7.5850   -0.5070    3.1140 ha        1 L04      0.155000
     90 H38        -7.2780   -3.2870   -1.0780 ha        1 L04      0.140000
     91 H39        -9.4660   -2.3370   -0.3390 ha        1 L04      0.137000
     92 H40        -9.6260   -0.9670    1.7270 ha        1 L04      0.139000
     93 H42         7.7350   -5.3950   -8.1430 ha        1 L04      0.149000
     94 H43         6.7000   -3.6830   -6.6510 ha        1 L04      0.141000
     95 HN8         3.3540    3.4090    0.3090 hn        1 L04      0.346500
     96 HN9         6.2190    4.0590   -2.0460 hn        1 L04      0.342500
     97 N29         6.5520    4.6780   -1.3310 n         1 L04     -0.466100
     98 O1         -4.6030   -0.8940    3.3860 o         1 L04     -0.604500
     99 H183        1.9170    0.6890    3.3060 ho        1 L04      0.450000
    100 O28         5.8610    6.0970    0.3720 o         1 L04     -0.594100
@<TRIPOS>BOND
     1    1    2 1   
     2    1   23 1   
     3    1   50 1   
     4    1   51 1   
     5    2    3 1   
     6    2   18 1   
     7    2   52 1   
     8    3   46 1   
     9    3   47 2   
    10    4   21 1   
    11    4   53 1   
    12    4   54 1   
    13    4   55 1   
    14    5    6 ar  
    15    5   13 1   
    16    5   43 ar  
    17    6   17 ar  
    18    6   56 1   
    19    7    8 1   
    20    7   16 1   
    21    7   18 1   
    22    7   57 1   
    23    8    9 1   
    24    8   58 1   
    25    8   59 1   
    26    9   10 1   
    27    9   60 1   
    28    9   61 1   
    29   10   11 ar  
    30   10   15 ar  
    31   11   12 ar  
    32   11   62 1   
    33   12   13 ar  
    34   12   63 1   
    35   13   14 ar  
    36   14   15 ar  
    37   14   64 1   
    38   15   65 1   
    39   16   45 1   
    40   16   48 2   
    41   17   41 ar  
    42   17   66 1   
    43   18   67 1   
    44   18   68 1   
    45   19   20 1   
    46   19   27 1   
    47   19   45 1   
    48   19   69 1   
    49   20   21 1   
    50   20   70 1   
    51   20   71 1   
    52   21   22 1   
    53   21   72 1   
    54   22   73 1   
    55   22   74 1   
    56   22   75 1   
    57   23   24 1   
    58   23   76 1   
    59   23   77 1   
    60   24   25 1   
    61   24   78 1   
    62   24   79 1   
    63   25   44 1   
    64   25   80 1   
    65   25   81 1   
    66   26   29 1   
    67   26   44 1   
    68   26   98 2   
    69   27   97 1   
    70   27  100 2   
    71   28   36 1   
    72   28   44 1   
    73   28   82 1   
    74   28   83 1   
    75   29   36 ar  
    76   29   37 ar  
    77   30   31 ar  
    78   30   35 ar  
    79   30   97 1   
    80   31   32 ar  
    81   31   84 1   
    82   32   33 ar  
    83   32   85 1   
    84   33   34 ar  
    85   33   86 1   
    86   34   35 ar  
    87   34   87 1   
    88   35   88 1   
    89   36   38 ar  
    90   37   40 ar  
    91   37   89 1   
    92   38   39 ar  
    93   38   90 1   
    94   39   40 ar  
    95   39   91 1   
    96   40   92 1   
    97   41   42 ar  
    98   41   49 1   
    99   42   43 ar  
   100   42   93 1   
   101   43   94 1   
   102   45   95 1   
   103   46   99 1   
   104   96   97 1   
@<TRIPOS>SUBSTRUCTURE
     1 L04         1 TEMP              0 ****  ****    0 ROOT
