@<TRIPOS>MOLECULE
L04
   99    91     1     0     0
SMALL
bcc


@<TRIPOS>ATOM
      1 C1         -3.0560   -0.5600    0.8230 c3        1 L04     -0.129000
      2 C2         -1.5440   -0.6850    0.6640 c3        1 L04     -0.182000
      3 C3         -0.8850   -0.5460    2.0070 c2        1 L04      0.334000
      4 C4         -0.0060    6.7660   -0.6670 c3        1 L04     -0.201500
      5 C5          3.6250   -5.3430   -5.1220 c1        1 L04     -0.046500
      6 C6          2.6210   -5.9700   -5.8590 c1        1 L04     -0.135875
      7 C7          0.4430    0.2680   -0.4310 c3        1 L04     -0.116000
      8 C8          0.7350   -0.7870   -1.4600 c3        1 L04     -0.142000
      9 C9          2.2120   -1.1770   -1.3880 c3        1 L04     -0.135000
     10 C10         2.5000   -2.2990   -2.4080 c2        1 L04     -0.043000
     11 C11         2.6080   -3.6200   -1.9740 c2        1 L04     -0.132000
     12 C12         3.0030   -4.6230   -2.8680 c1        1 L04     -0.118000
     13 C13         3.2900   -4.3030   -4.1920 c1        1 L04     -0.046500
     14 C14         3.1830   -2.9790   -4.6310 c1        1 L04     -0.109500
     15 C15         2.7870   -1.9750   -3.7360 c1        1 L04     -0.129000
     16 C16         1.0330    1.6180   -0.9030 c2        1 L04      0.305000
     17 C17         2.9430   -7.0050   -6.7340 c1        1 L04     -0.135875
     18 C18        -1.0440    0.4020   -0.2600 c3        1 L04     -0.132000
     19 C19         2.2260    3.7250   -0.2910 c3        1 L04      0.018000
     20 C20         1.6400    5.0630    0.1570 c3        1 L04     -0.150000
     21 C21         1.1170    5.8440   -1.0860 c3        1 L04     -0.134000
     22 C22         2.2660    6.6810   -1.6930 c3        1 L04     -0.201500
     23 C23        -3.5940   -1.7400    1.7460 c3        1 L04     -0.164000
     24 C24        -5.0520   -1.4080    2.2190 c3        1 L04     -0.185000
     25 C25        -5.3610   -2.1680    3.4950 c3        1 L04     -0.028000
     26 C26        -6.9930   -0.5650    4.7590 c1        1 L04      0.340000
     27 C27         3.5300    3.5010    0.3890 c2        1 L04      0.299000
     28 C28        -7.9120   -2.5390    3.9250 c3        1 L04     -0.007000
     29 C29        -8.4810   -0.6000    5.1480 c1        1 L04     -0.134000
     30 C30         6.0230    3.5480    0.3290 c1        1 L04      0.097000
     31 C31         6.1410    3.9230    1.6650 c1        1 L04     -0.135875
     32 C32         7.3470    3.7180    2.3450 c1        1 L04     -0.135875
     33 C33         8.4340    3.1350    1.6830 c1        1 L04     -0.135875
     34 C34         8.3150    2.7580    0.3420 c1        1 L04     -0.135875
     35 C35         7.1130    2.9630   -0.3360 c1        1 L04     -0.190000
     36 C36        -9.0190   -1.7830    4.6740 c2        1 L04     -0.073000
     37 C37        -9.3130    0.3460    5.7910 c1        1 L04     -0.060000
     38 C38       -10.3940   -2.0450    4.8320 c1        1 L04     -0.124000
     39 C39       -11.2160   -1.1080    5.4690 c1        1 L04     -0.135875
     40 C40       -10.6740    0.0860    5.9470 c1        1 L04     -0.135875
     41 C41         4.2610   -7.4120   -6.8720 c1        1 L04      0.078000
     42 C42         5.2640   -6.7860   -6.1350 c1        1 L04     -0.167000
     43 C43         4.9430   -5.7510   -5.2600 c1        1 L04     -0.109500
     44 N1         -6.7030   -1.7580    4.0030 n3        1 L04     -0.318000
     45 N18         1.3130    2.6550    0.0510 n         1 L04     -0.359000
     46 N29         4.7720    3.6910   -0.3420 n         1 L04     -0.324000
     47 O1         -6.1860    0.2870    5.0910 o         1 L04     -0.329000
     48 O4         -0.9990    0.5360    2.6610 o         1 L04     -0.579500
     49 O5         -0.2600   -1.5010    2.4930 o         1 L04     -0.579500
     50 O17         1.1390    1.8430   -2.0740 o         1 L04     -0.448000
     51 O28         3.5570    3.2190    1.5690 o         1 L04     -0.369000
     52 F1          4.5570   -8.4330   -7.6510 f         1 L04     -0.114000
     53 H11A       -3.4790   -0.6130   -0.0520 hc        1 L04      0.064000
     54 H12A       -3.2660    0.2870    1.2300 hc        1 L04      0.064000
     55 H2         -1.3240   -1.5720    0.2790 hc        1 L04      0.081000
     56 H41         0.3210    7.3920    0.0160 hc        1 L04      0.066333
     57 H42A       -0.7500    6.2340   -0.2960 hc        1 L04      0.066333
     58 H43A       -0.3140    7.2570   -1.4270 hc        1 L04      0.066333
     59 H6          1.6670   -5.6760   -5.7580 ha        1 L04      0.135250
     60 H7          0.8550    0.0090    0.4370 hc        1 L04      0.138000
     61 H81         0.5360   -0.4400   -2.3420 hc        1 L04      0.091500
     62 H82         0.1810   -1.5740   -1.2870 hc        1 L04      0.091500
     63 H91         2.4240   -1.4980   -0.4750 hc        1 L04      0.097500
     64 H92         2.7650   -0.3990   -1.5960 hc        1 L04      0.097500
     65 H11         2.4050   -3.8480   -1.0380 ha        1 L04      0.137000
     66 H12         3.0790   -5.5530   -2.5600 ha        1 L04      0.127000
     67 H14         3.3840   -2.7540   -5.5620 ha        1 L04      0.135000
     68 H15         2.7110   -1.0340   -4.0460 ha        1 L04      0.148000
     69 H17         2.2510   -7.3870   -7.3130 ha        1 L04      0.135250
     70 H181       -1.4930    0.3140   -1.1530 hc        1 L04      0.079500
     71 H182       -1.2470    1.2600    0.1170 hc        1 L04      0.079500
     72 H19         2.3600    3.7390   -1.2370 h1        1 L04      0.111000
     73 H201        0.8980    4.9030    0.7790 hc        1 L04      0.099500
     74 H202        2.3470    5.5990    0.6140 hc        1 L04      0.099500
     75 H21         0.7820    5.2000   -1.7640 hc        1 L04      0.162000
     76 H221        2.9070    6.1010   -2.0890 hc        1 L04      0.066333
     77 H222        1.9110    7.2720   -2.3640 hc        1 L04      0.066333
     78 H223        2.6890    7.2020   -0.9970 hc        1 L04      0.066333
     79 H231       -3.6000   -2.5890    1.2280 hc        1 L04      0.101500
     80 H232       -3.0070   -1.8380    2.5330 hc        1 L04      0.101500
     81 H241       -5.6800   -1.6640    1.5310 hc        1 L04      0.076500
     82 H242       -5.1270   -0.4590    2.3850 hc        1 L04      0.076500
     83 H251       -5.3620   -3.1270    3.3110 h1        1 L04      0.106500
     84 H252       -4.6740   -1.9640    4.1760 h1        1 L04      0.106500
     85 H281       -8.1710   -2.6580    2.9840 h1        1 L04      0.105000
     86 H282       -7.7670   -3.4170    4.3430 h1        1 L04      0.105000
     87 H31         5.3690    4.3370    2.1350 ha        1 L04      0.135250
     88 H32         7.4330    3.9920    3.3180 ha        1 L04      0.135250
     89 H33         9.3030    2.9890    2.1710 ha        1 L04      0.135250
     90 H34         9.0980    2.3380   -0.1340 ha        1 L04      0.135250
     91 H35         7.0070    2.6330   -1.2680 ha        1 L04      0.135000
     92 H37        -8.9340    1.1820    6.1260 ha        1 L04      0.152000
     93 H38       -10.7750   -2.8840    4.4960 ha        1 L04      0.136000
     94 H39       -12.1730   -1.2760    5.5500 ha        1 L04      0.135250
     95 H40       -11.2730    0.7680    6.4100 ha        1 L04      0.135250
     96 H42         6.1790   -7.0690   -6.2310 ha        1 L04      0.144000
     97 H43         5.6450   -5.3350   -4.7130 ha        1 L04      0.135000
     98 HN8         0.9010    2.6520    0.8570 hn        1 L04      0.299000
     99 HN9         4.7530    3.8620   -1.2270 hn        1 L04      0.264000
@<TRIPOS>BOND
     1    1    2 1   
     2    1   23 1   
     3    1   53 1   
     4    1   54 1   
     5    2    3 1   
     6    2   18 1   
     7    2   55 1   
     8    3   48 1   
     9    3   49 1   
    10    4   21 1   
    11    4   56 1   
    12    4   57 1   
    13    4   58 1   
    14    5   43 1   
    15    6   17 1   
    16    6   59 1   
    17    7    8 1   
    18    7   16 1   
    19    7   18 1   
    20    7   60 1   
    21    8    9 1   
    22    8   61 1   
    23    8   62 1   
    24    9   10 1   
    25    9   63 1   
    26    9   64 1   
    27   10   11 1   
    28   10   15 1   
    29   11   12 1   
    30   11   65 1   
    31   12   66 1   
    32   13   14 1   
    33   14   67 1   
    34   15   68 1   
    35   16   45 1   
    36   16   50 1   
    37   17   69 1   
    38   18   70 1   
    39   18   71 1   
    40   19   20 1   
    41   19   27 1   
    42   19   45 1   
    43   19   72 1   
    44   20   21 1   
    45   20   73 1   
    46   20   74 1   
    47   21   22 1   
    48   21   75 1   
    49   22   76 1   
    50   22   77 1   
    51   22   78 1   
    52   23   24 1   
    53   23   79 1   
    54   23   80 1   
    55   24   25 1   
    56   24   81 1   
    57   24   82 1   
    58   25   44 1   
    59   25   83 1   
    60   25   84 1   
    61   26   44 1   
    62   26   47 1   
    63   27   46 1   
    64   27   51 1   
    65   28   36 1   
    66   28   44 1   
    67   28   85 1   
    68   28   86 1   
    69   29   36 1   
    70   29   37 1   
    71   30   35 1   
    72   30   46 1   
    73   31   32 1   
    74   31   87 1   
    75   32   88 1   
    76   33   34 1   
    77   33   89 1   
    78   34   90 1   
    79   35   91 1   
    80   36   38 1   
    81   37   92 1   
    82   38   93 1   
    83   39   40 1   
    84   39   94 1   
    85   40   95 1   
    86   41   42 1   
    87   41   52 1   
    88   42   96 1   
    89   43   97 1   
    90   45   98 1   
    91   46   99 1   
@<TRIPOS>SUBSTRUCTURE
     1 L04         1 TEMP              0 ****  ****    0 ROOT
