@<TRIPOS>MOLECULE
L05
   49    52     1     0     0
SMALL
bcc


@<TRIPOS>ATOM
      1 C1          0.7630    1.7100   -0.4200 c3        1 L05      0.112700
      2 O2          1.9730    1.3380    0.2310 os        1 L05     -0.324900
      3 C3          1.8390    0.7170    1.4560 ca        1 L05      0.128100
      4 C4          3.0520    0.3980    2.0940 ca        1 L05     -0.170500
      5 C5          3.0310   -0.2290    3.3300 ca        1 L05     -0.088500
      6 C6          1.8040   -0.5550    3.9510 ca        1 L05      0.063600
      7 N7          1.8080   -1.2830    5.1690 nu        1 L05     -0.583400
      8 C8          1.3540   -0.8040    6.3650 cc        1 L05      0.126800
      9 C9          1.6640   -1.2860    7.6260 cd        1 L05     -0.229400
     10 C10         0.9170   -0.4790    8.6420 c         1 L05      0.733700
     11 O11         0.9480   -0.5500    9.8730 o         1 L05     -0.577500
     12 N12         0.1060    0.4530    7.9240 n         1 L05     -0.523400
     13 C13        -0.7010    1.4780    8.5270 c3        1 L05      0.153300
     14 C14         0.0410    2.7300    8.9040 ca        1 L05     -0.125300
     15 C15        -0.0870    3.8860    8.1280 ca        1 L05     -0.110000
     16 C16         0.5720    5.0550    8.5070 ca        1 L05     -0.135500
     17 C17         1.3640    5.0720    9.6550 ca        1 L05     -0.121000
     18 C18         1.4990    3.9170   10.4250 ca        1 L05     -0.135500
     19 C19         0.8410    2.7470   10.0510 ca        1 L05     -0.110000
     20 C20         0.3310    0.3270    6.5380 c         1 L05      0.708700
     21 O21        -0.2320    0.9820    5.6590 o         1 L05     -0.570500
     22 C22         2.5570   -2.3570    7.9910 ca        1 L05     -0.021800
     23 C23         3.3990   -2.2190    9.1080 ca        1 L05     -0.122000
     24 C24         4.2860   -3.2350    9.4500 ca        1 L05     -0.129000
     25 C25         4.3420   -4.4050    8.6920 ca        1 L05     -0.127000
     26 C26         3.4940   -4.5600    7.5970 ca        1 L05     -0.129000
     27 C27         2.6020   -3.5480    7.2480 ca        1 L05     -0.122000
     28 C28         0.6000   -0.2330    3.2990 ca        1 L05     -0.088500
     29 C29         0.6170    0.4040    2.0600 ca        1 L05     -0.170500
     30 H11         0.1810    2.4290    0.2070 h1        1 L05      0.047033
     31 H12         1.1160    2.2040   -1.3610 h1        1 L05      0.047033
     32 H13         0.1480    0.8080   -0.6550 h1        1 L05      0.047033
     33 H4          4.0030    0.6540    1.6050 ha        1 L05      0.149000
     34 H5          3.9870   -0.4720    3.8210 ha        1 L05      0.147000
     35 HN7         2.5740   -1.9260    5.2520 hn        1 L05      0.438800
     36 H131       -1.1570    1.0350    9.4610 h1        1 L05      0.074200
     37 H132       -1.5260    1.7340    7.8000 h1        1 L05      0.074200
     38 H15        -0.7060    3.8720    7.2180 ha        1 L05      0.145000
     39 H16         0.4680    5.9640    7.8960 ha        1 L05      0.132500
     40 H17         1.8830    5.9950    9.9520 ha        1 L05      0.131000
     41 H18         2.1260    3.9280   11.3290 ha        1 L05      0.132500
     42 H19         0.9480    1.8270   10.6510 ha        1 L05      0.145000
     43 H23         3.3370   -1.3050    9.7200 ha        1 L05      0.141500
     44 H24         4.9410   -3.1150   10.3260 ha        1 L05      0.133500
     45 H25         5.0460   -5.2050    8.9630 ha        1 L05      0.133000
     46 H26         3.5210   -5.4890    7.0080 ha        1 L05      0.133500
     47 H27         1.9070   -3.7070    6.4110 ha        1 L05      0.141500
     48 H28        -0.3690   -0.4590    3.7740 ha        1 L05      0.147000
     49 H29        -0.3370    0.6540    1.5740 ha        1 L05      0.149000
@<TRIPOS>BOND
     1    1    2 1   
     2    1   30 1   
     3    1   31 1   
     4    1   32 1   
     5    2    3 1   
     6    3    4 ar  
     7    3   29 ar  
     8    4    5 ar  
     9    4   33 1   
    10    5    6 ar  
    11    5   34 1   
    12    6    7 1   
    13    6   28 ar  
    14    7    8 1   
    15    7   35 1   
    16    8    9 2   
    17    8   20 1   
    18    9   10 1   
    19    9   22 1   
    20   10   11 2   
    21   10   12 1   
    22   12   13 1   
    23   12   20 1   
    24   13   14 1   
    25   13   36 1   
    26   13   37 1   
    27   14   15 ar  
    28   14   19 ar  
    29   15   16 ar  
    30   15   38 1   
    31   16   17 ar  
    32   16   39 1   
    33   17   18 ar  
    34   17   40 1   
    35   18   19 ar  
    36   18   41 1   
    37   19   42 1   
    38   20   21 2   
    39   22   23 ar  
    40   22   27 ar  
    41   23   24 ar  
    42   23   43 1   
    43   24   25 ar  
    44   24   44 1   
    45   25   26 ar  
    46   25   45 1   
    47   26   27 ar  
    48   26   46 1   
    49   27   47 1   
    50   28   29 ar  
    51   28   48 1   
    52   29   49 1   
@<TRIPOS>SUBSTRUCTURE
     1 L05         1 TEMP              0 ****  ****    0 ROOT
