@<TRIPOS>MOLECULE
L05
   50    53     1     0     0
SMALL
bcc


@<TRIPOS>ATOM
      1 C1          0.0700   -0.5320   -0.4700 c3        1 L05      0.103700
      2 O2          1.2430   -1.0900    0.1290 os        1 L05     -0.298900
      3 C3          1.5870   -0.6320    1.3680 ca        1 L05      0.195100
      4 C4          2.7620   -1.2070    1.9090 ca        1 L05     -0.171000
      5 C5          3.2030   -0.8210    3.1610 ca        1 L05     -0.059000
      6 C6          2.4780    0.1450    3.8900 ca        1 L05     -0.117400
      7 N7          2.9780    0.5800    5.2020 n4        1 L05     -0.456200
      8 C8          2.0470    0.4300    6.2920 cc        1 L05     -0.204200
      9 C9          1.9110   -0.5750    7.2100 cd        1 L05      0.080600
     10 C10         0.8030   -0.1270    8.1810 c         1 L05      0.695700
     11 O11         0.3910   -0.7430    9.1580 o         1 L05     -0.495500
     12 N12         0.3200    1.1260    7.7200 n         1 L05     -0.485400
     13 C13        -0.6170    1.9590    8.4440 c3        1 L05      0.150300
     14 C14         0.0150    2.9110    9.4130 ca        1 L05     -0.151300
     15 C15         0.5210    4.1350    8.9600 ca        1 L05     -0.108500
     16 C16         1.0660    5.0420    9.8670 ca        1 L05     -0.129000
     17 C17         1.1090    4.7300   11.2270 ca        1 L05     -0.103000
     18 C18         0.6090    3.5090   11.6790 ca        1 L05     -0.129000
     19 C19         0.0640    2.5980   10.7750 ca        1 L05     -0.108500
     20 C20         1.0580    1.5480    6.6020 c         1 L05      0.724700
     21 O21         0.9560    2.5960    5.9610 o         1 L05     -0.565500
     22 C22         2.6140   -1.8130    7.3710 ca        1 L05     -0.139800
     23 C23         2.8390   -2.3320    8.6600 ca        1 L05     -0.080500
     24 C24         3.5390   -3.5260    8.8230 ca        1 L05     -0.130000
     25 C25         4.0020   -4.2270    7.7100 ca        1 L05     -0.062000
     26 C26         3.7590   -3.7330    6.4240 ca        1 L05     -0.130000
     27 C27         3.0730   -2.5370    6.2530 ca        1 L05     -0.080500
     28 C28         1.3160    0.7230    3.3520 ca        1 L05     -0.059000
     29 C29         0.8720    0.3340    2.0940 ca        1 L05     -0.171000
     30 H11         0.0180   -1.0630   -1.4550 h1        1 L05      0.065700
     31 H12        -0.8290   -0.7580    0.1530 h1        1 L05      0.065700
     32 H13         0.1930    0.5680   -0.6160 h1        1 L05      0.065700
     33 H4          3.3140   -1.9570    1.3180 ha        1 L05      0.177500
     34 H5          4.1270   -1.2700    3.5640 ha        1 L05      0.163000
     35 HN7         3.8340    0.0500    5.4240 hn        1 L05      0.467300
     36 H131       -1.2030    2.5420    7.6730 h1        1 L05      0.089700
     37 H132       -1.3180    1.2620    8.9910 h1        1 L05      0.089700
     38 H15         0.4800    4.3800    7.8870 ha        1 L05      0.141500
     39 H16         1.4550    6.0080    9.5110 ha        1 L05      0.145000
     40 H17         1.5340    5.4500   11.9430 ha        1 L05      0.146000
     41 H18         0.6390    3.2640   12.7520 ha        1 L05      0.145000
     42 H19        -0.3350    1.6370   11.1350 ha        1 L05      0.141500
     43 H23         2.4560   -1.7960    9.5450 ha        1 L05      0.148000
     44 H24         3.7170   -3.9190    9.8370 ha        1 L05      0.160000
     45 H25         4.5490   -5.1750    7.8410 ha        1 L05      0.161000
     46 H26         4.1020   -4.3010    5.5450 ha        1 L05      0.160000
     47 H27         2.8420   -2.1870    5.2350 ha        1 L05      0.148000
     48 H28         0.7520    1.4920    3.9110 ha        1 L05      0.163000
     49 H29        -0.0390    0.7930    1.6780 ha        1 L05      0.177500
     50 H72         3.2040    1.5880    5.1310 hn        1 L05      0.467300
@<TRIPOS>BOND
     1    1    2 1   
     2    1   30 1   
     3    1   31 1   
     4    1   32 1   
     5    2    3 1   
     6    3    4 ar  
     7    3   29 ar  
     8    4    5 ar  
     9    4   33 1   
    10    5    6 ar  
    11    5   34 1   
    12    6    7 1   
    13    6   28 ar  
    14    7    8 1   
    15    7   35 1   
    16    7   50 1   
    17    8    9 2   
    18    8   20 1   
    19    9   10 1   
    20    9   22 1   
    21   10   11 2   
    22   10   12 1   
    23   12   13 1   
    24   12   20 1   
    25   13   14 1   
    26   13   36 1   
    27   13   37 1   
    28   14   15 ar  
    29   14   19 ar  
    30   15   16 ar  
    31   15   38 1   
    32   16   17 ar  
    33   16   39 1   
    34   17   18 ar  
    35   17   40 1   
    36   18   19 ar  
    37   18   41 1   
    38   19   42 1   
    39   20   21 2   
    40   22   23 ar  
    41   22   27 ar  
    42   23   24 ar  
    43   23   43 1   
    44   24   25 ar  
    45   24   44 1   
    46   25   26 ar  
    47   25   45 1   
    48   26   27 ar  
    49   26   46 1   
    50   27   47 1   
    51   28   29 ar  
    52   28   48 1   
    53   29   49 1   
@<TRIPOS>SUBSTRUCTURE
     1 L05         1 TEMP              0 ****  ****    0 ROOT
