@<TRIPOS>MOLECULE
L05
   49    52     1     0     0
SMALL
bcc


@<TRIPOS>ATOM
      1 C1          0.8160    1.7280   -0.4230 c3        1 L05      0.112700
      2 O2          2.0170    1.3380    0.2340 os        1 L05     -0.324900
      3 C3          1.8680    0.7180    1.4580 ca        1 L05      0.128100
      4 C4          3.0750    0.3820    2.1010 ca        1 L05     -0.170500
      5 C5          3.0390   -0.2450    3.3360 ca        1 L05     -0.088500
      6 C6          1.8040   -0.5560    3.9510 ca        1 L05      0.063600
      7 N7          1.7920   -1.2850    5.1680 nh        1 L05     -0.583400
      8 C8          1.3390   -0.8010    6.3620 cc        1 L05      0.126800
      9 C9          1.6360   -1.2880    7.6250 cd        1 L05     -0.229400
     10 C10         0.8960   -0.4730    8.6380 c         1 L05      0.733700
     11 O11         0.9200   -0.5450    9.8690 o         1 L05     -0.577500
     12 N12         0.1000    0.4710    7.9160 n         1 L05     -0.523400
     13 C13        -0.6960    1.5060    8.5170 c3        1 L05      0.153300
     14 C14         0.0600    2.7480    8.8990 ca        1 L05     -0.125300
     15 C15        -0.0480    3.9050    8.1230 ca        1 L05     -0.110000
     16 C16         0.6240    5.0660    8.5070 ca        1 L05     -0.135500
     17 C17         1.4090    5.0710    9.6590 ca        1 L05     -0.121000
     18 C18         1.5250    3.9140   10.4300 ca        1 L05     -0.135500
     19 C19         0.8530    2.7530   10.0510 ca        1 L05     -0.110000
     20 C20         0.3300    0.3430    6.5320 c         1 L05      0.708700
     21 O21        -0.2200    1.0060    5.6510 o         1 L05     -0.570500
     22 C22         2.5130   -2.3720    7.9930 ca        1 L05     -0.021800
     23 C23         3.3510   -2.2450    9.1140 ca        1 L05     -0.122000
     24 C24         4.2230   -3.2740    9.4600 ca        1 L05     -0.129000
     25 C25         4.2670   -4.4440    8.7010 ca        1 L05     -0.127000
     26 C26         3.4230   -4.5870    7.6020 ca        1 L05     -0.129000
     27 C27         2.5460   -3.5620    7.2500 ca        1 L05     -0.122000
     28 C28         0.6080   -0.2170    3.2930 ca        1 L05     -0.088500
     29 C29         0.6400    0.4200    2.0550 ca        1 L05     -0.170500
     30 H11         0.1910    0.8340   -0.6620 h1        1 L05      0.047033
     31 H12         0.2410    2.4530    0.2030 h1        1 L05      0.047033
     32 H13         1.1810    2.2170   -1.3610 h1        1 L05      0.047033
     33 H4          4.0320    0.6260    1.6180 ha        1 L05      0.149000
     34 H5          3.9890   -0.5020    3.8320 ha        1 L05      0.147000
     35 HN7         2.5500   -1.9390    5.2540 hn        1 L05      0.438800
     36 H131       -1.1630    1.0680    9.4480 h1        1 L05      0.074200
     37 H132       -1.5140    1.7730    7.7860 h1        1 L05      0.074200
     38 H15        -0.6620    3.9010    7.2090 ha        1 L05      0.145000
     39 H16         0.5350    5.9760    7.8960 ha        1 L05      0.132500
     40 H17         1.9380    5.9870    9.9600 ha        1 L05      0.131000
     41 H18         2.1470    3.9160   11.3370 ha        1 L05      0.132500
     42 H19         0.9450    1.8320   10.6500 ha        1 L05      0.145000
     43 H23         3.2980   -1.3310    9.7260 ha        1 L05      0.141500
     44 H24         4.8760   -3.1630   10.3390 ha        1 L05      0.133500
     45 H25         4.9590   -5.2530    8.9750 ha        1 L05      0.133000
     46 H26         3.4400   -5.5150    7.0120 ha        1 L05      0.133500
     47 H27         1.8530   -3.7120    6.4080 ha        1 L05      0.141500
     48 H28        -0.3660   -0.4300    3.7630 ha        1 L05      0.147000
     49 H29        -0.3080    0.6840    1.5650 ha        1 L05      0.149000
@<TRIPOS>BOND
     1    1    2 1   
     2    1   30 1   
     3    1   31 1   
     4    1   32 1   
     5    2    3 1   
     6    3    4 ar  
     7    3   29 ar  
     8    4    5 ar  
     9    4   33 1   
    10    5    6 ar  
    11    5   34 1   
    12    6    7 1   
    13    6   28 ar  
    14    7    8 1   
    15    7   35 1   
    16    8    9 2   
    17    8   20 1   
    18    9   10 1   
    19    9   22 1   
    20   10   11 2   
    21   10   12 1   
    22   12   13 1   
    23   12   20 1   
    24   13   14 1   
    25   13   36 1   
    26   13   37 1   
    27   14   15 ar  
    28   14   19 ar  
    29   15   16 ar  
    30   15   38 1   
    31   16   17 ar  
    32   16   39 1   
    33   17   18 ar  
    34   17   40 1   
    35   18   19 ar  
    36   18   41 1   
    37   19   42 1   
    38   20   21 2   
    39   22   23 ar  
    40   22   27 ar  
    41   23   24 ar  
    42   23   43 1   
    43   24   25 ar  
    44   24   44 1   
    45   25   26 ar  
    46   25   45 1   
    47   26   27 ar  
    48   26   46 1   
    49   27   47 1   
    50   28   29 ar  
    51   28   48 1   
    52   29   49 1   
@<TRIPOS>SUBSTRUCTURE
     1 L05         1 TEMP              0 ****  ****    0 ROOT
