@<TRIPOS>MOLECULE
L05
   49    52     1     0     0
SMALL
bcc


@<TRIPOS>ATOM
      1 C1          5.5820    4.1820   -0.1820 c3        1 L05      0.112700
      2 O2          5.3080    3.1680    0.7800 os        1 L05     -0.324900
      3 C3          4.3910    2.2060    0.4060 ca        1 L05      0.128100
      4 C4          4.1100    1.2420    1.3930 ca        1 L05     -0.170500
      5 C5          3.2040    0.2300    1.1210 ca        1 L05     -0.088500
      6 C6          2.5660    0.1530   -0.1390 ca        1 L05      0.062600
      7 N7          1.7160   -0.9460   -0.4280 nh        1 L05     -0.583400
      8 C8          0.3740   -0.8540   -0.6600 cc        1 L05      0.126800
      9 C9         -0.5590   -1.8750   -0.5700 cd        1 L05     -0.229400
     10 C10        -1.9020   -1.3290   -0.9410 c         1 L05      0.733700
     11 O11        -3.0000   -1.8900   -0.9440 o         1 L05     -0.577500
     12 N12        -1.7100    0.0370   -1.3160 n         1 L05     -0.523400
     13 C13        -2.7650    0.9530   -1.6550 c3        1 L05      0.153300
     14 C14        -3.4540    1.5890   -0.4810 ca        1 L05     -0.125300
     15 C15        -3.1870    2.9180   -0.1400 ca        1 L05     -0.110000
     16 C16        -3.8620    3.5130    0.9260 ca        1 L05     -0.135500
     17 C17        -4.7980    2.7830    1.6570 ca        1 L05     -0.121000
     18 C18        -5.0610    1.4540    1.3230 ca        1 L05     -0.135500
     19 C19        -4.3900    0.8560    0.2570 ca        1 L05     -0.110000
     20 C20        -0.3580    0.4010   -1.1540 c         1 L05      0.708700
     21 O21         0.1210    1.5070   -1.4100 o         1 L05     -0.570500
     22 C22        -0.3620   -3.2470   -0.1730 ca        1 L05     -0.021800
     23 C23        -1.3070   -3.8810    0.6510 ca        1 L05     -0.122000
     24 C24        -1.1120   -5.1960    1.0640 ca        1 L05     -0.129000
     25 C25         0.0220   -5.8990    0.6560 ca        1 L05     -0.127000
     26 C26         0.9530   -5.2860   -0.1810 ca        1 L05     -0.129000
     27 C27         0.7630   -3.9700   -0.6000 ca        1 L05     -0.122000
     28 C28         2.8610    1.1230   -1.1150 ca        1 L05     -0.088500
     29 C29         3.7650    2.1460   -0.8430 ca        1 L05     -0.170500
     30 H11         6.3180    4.8430    0.3420 h1        1 L05      0.047033
     31 H12         6.0350    3.7390   -1.1020 h1        1 L05      0.047033
     32 H13         4.6520    4.7470   -0.4350 h1        1 L05      0.047033
     33 H4          4.6110    1.3060    2.3700 ha        1 L05      0.149000
     34 H5          2.9900   -0.5180    1.9010 ha        1 L05      0.147000
     35 HN7         1.9950   -1.8000    0.0220 hn        1 L05      0.438800
     36 H131       -2.3190    1.7580   -2.3100 h1        1 L05      0.074200
     37 H132       -3.5290    0.3740   -2.2520 h1        1 L05      0.074200
     38 H15        -2.4430    3.4930   -0.7110 ha        1 L05      0.145000
     39 H16        -3.6510    4.5600    1.1900 ha        1 L05      0.132500
     40 H17        -5.3300    3.2540    2.4970 ha        1 L05      0.131000
     41 H18        -5.7970    0.8760    1.9000 ha        1 L05      0.132500
     42 H19        -4.5860   -0.1960   -0.0080 ha        1 L05      0.145000
     43 H23        -2.2130   -3.3320    0.9530 ha        1 L05      0.141500
     44 H24        -1.8570   -5.6810    1.7110 ha        1 L05      0.133500
     45 H25         0.1750   -6.9370    0.9860 ha        1 L05      0.133000
     46 H26         1.8380   -5.8440   -0.5210 ha        1 L05      0.133500
     47 H27         1.4830   -3.5180   -1.2980 ha        1 L05      0.141500
     48 H28         2.3590    1.0950   -2.0960 ha        1 L05      0.147000
     49 H29         3.9720    2.8970   -1.6180 ha        1 L05      0.149000
@<TRIPOS>BOND
     1    1    2 1   
     2    1   30 1   
     3    1   31 1   
     4    1   32 1   
     5    2    3 1   
     6    3    4 ar  
     7    3   29 ar  
     8    4    5 ar  
     9    4   33 1   
    10    5    6 ar  
    11    5   34 1   
    12    6    7 1   
    13    6   28 ar  
    14    7    8 1   
    15    7   35 1   
    16    8    9 2   
    17    8   20 1   
    18    9   10 1   
    19    9   22 1   
    20   10   11 2   
    21   10   12 1   
    22   12   13 1   
    23   12   20 1   
    24   13   14 1   
    25   13   36 1   
    26   13   37 1   
    27   14   15 ar  
    28   14   19 ar  
    29   15   16 ar  
    30   15   38 1   
    31   16   17 ar  
    32   16   39 1   
    33   17   18 ar  
    34   17   40 1   
    35   18   19 ar  
    36   18   41 1   
    37   19   42 1   
    38   20   21 2   
    39   22   23 ar  
    40   22   27 ar  
    41   23   24 ar  
    42   23   43 1   
    43   24   25 ar  
    44   24   44 1   
    45   25   26 ar  
    46   25   45 1   
    47   26   27 ar  
    48   26   46 1   
    49   27   47 1   
    50   28   29 ar  
    51   28   48 1   
    52   29   49 1   
@<TRIPOS>SUBSTRUCTURE
     1 L05         1 TEMP              0 ****  ****    0 ROOT
