@<TRIPOS>MOLECULE
L06
   27    25     1     0     0
SMALL
bcc


@<TRIPOS>ATOM
      1 S          -4.5180   -0.5750   -1.8460 sh        1 L06     -0.517900
      2 C1         -2.7460   -0.5340   -1.8800 c3        1 L06      0.073700
      3 C2         -2.2140   -0.5340   -0.4620 c3        1 L06     -0.198700
      4 C3         -0.7190   -0.7460   -0.4850 c3        1 L06     -0.043400
      5 C4         -0.0520    0.2680    0.4150 c3        1 L06     -0.104400
      6 C5          1.4320   -0.0180    0.4830 c3        1 L06      0.178800
      7 N6          2.1260    1.1670    0.8600 nh        1 L06     -0.771000
      8 C7          3.5050    1.1060    1.1950 c2        1 L06      0.320000
      9 N8          4.0000    0.0200    1.7280 n1        1 L06     -0.375000
     10 N9          4.3450    2.2240    0.9500 nh        1 L06     -0.813600
     11 C10        -2.8700   -1.6480    0.3230 c         1 L06      0.910600
     12 O11        -3.4720   -1.3910    1.3990 o         1 L06     -0.840800
     13 O12        -2.8010   -2.8330   -0.0910 o         1 L06     -0.840800
     14 HS         -4.9380   -0.2750   -2.9030 hs        1 L06      0.284800
     15 H11        -2.4100   -1.3220   -2.3540 h1        1 L06      0.054200
     16 H12A       -2.4470    0.2760   -2.3400 h1        1 L06      0.054200
     17 H2         -2.4150    0.3250   -0.0390 hc        1 L06      0.053700
     18 H31        -0.3890   -0.6380   -1.3980 hc        1 L06      0.021200
     19 H32        -0.5120   -1.6500   -0.1680 hc        1 L06      0.021200
     20 H41        -0.4370    0.2100    1.3130 hc        1 L06      0.075700
     21 H42        -0.1950    1.1660    0.0550 hc        1 L06      0.075700
     22 H51         1.5990   -0.7190    1.1470 h1        1 L06      0.030700
     23 H52         1.7470   -0.3160   -0.3940 h1        1 L06      0.030700
     24 HN6         1.6920    1.9690    0.8620 hn        1 L06      0.407800
     25 HN8         3.4570   -0.7020    1.8860 DU        1 L06      0.147000
     26 HN91        3.9980    2.9850    0.5790 hn        1 L06      0.382800
     27 HN92        5.2320    2.1850    1.1680 hn        1 L06      0.382800
@<TRIPOS>BOND
     1    1    2 1   
     2    1   14 1   
     3    2    3 1   
     4    2   15 1   
     5    2   16 1   
     6    3    4 1   
     7    3   11 1   
     8    3   17 1   
     9    4    5 1   
    10    4   18 1   
    11    4   19 1   
    12    5    6 1   
    13    5   20 1   
    14    5   21 1   
    15    6    7 1   
    16    6   22 1   
    17    6   23 1   
    18    7    8 1   
    19    7   24 1   
    20    8    9 2   
    21    8   10 1   
    22   10   26 1   
    23   10   27 1   
    24   11   12 1   
    25   11   13 1   
@<TRIPOS>SUBSTRUCTURE
     1 L06         1 TEMP              0 ****  ****    0 ROOT
