@<TRIPOS>MOLECULE
L06
   27    26     1     0     0
SMALL
bcc


@<TRIPOS>ATOM
      1 S           1.4070   -0.0160   -0.2550 sh        1 L06     -0.462900
      2 C1          2.3320   -0.9700    0.9450 c3        1 L06      0.066700
      3 C2          2.8180   -0.0620    2.0460 c3        1 L06     -0.173700
      4 C3          3.9630    0.8220    1.5710 c3        1 L06     -0.063400
      5 C4          4.2860    1.9260    2.5590 c3        1 L06     -0.110400
      6 C5          5.7360    1.8910    3.0520 c3        1 L06      0.190800
      7 N6          6.0450    0.8990    4.0550 nh        1 L06     -0.843200
      8 C7          6.7320   -0.3010    3.6220 c2        1 L06      0.767100
      9 N8          7.8100   -0.3090    2.8630 n2        1 L06     -0.929100
     10 N9          6.2980   -1.5200    4.2190 nh        1 L06     -0.894800
     11 C10         3.3030   -0.9160    3.2400 c         1 L06      0.908600
     12 O11         3.6490   -2.1160    3.0430 o         1 L06     -0.848300
     13 O12         3.3780   -0.3620    4.3780 o         1 L06     -0.848300
     14 HS          1.0200   -1.0030   -1.0390 hs        1 L06      0.183800
     15 H11         1.6750   -1.7630    1.3760 h1        1 L06      0.067700
     16 H12A        3.1950   -1.4700    0.4460 h1        1 L06      0.067700
     17 H2          1.9700    0.5820    2.4040 hc        1 L06      0.057700
     18 H31         4.8650    0.1760    1.3980 hc        1 L06      0.036700
     19 H32         3.6860    1.2740    0.5810 hc        1 L06      0.036700
     20 H41         3.5920    1.8570    3.4420 hc        1 L06      0.050200
     21 H42         4.1180    2.9230    2.0740 hc        1 L06      0.050200
     22 H51         6.4150    1.8050    2.1590 h1        1 L06      0.028200
     23 H52         5.9520    2.8900    3.5370 h1        1 L06      0.028200
     24 HN6         5.2290    0.6940    4.6160 hn        1 L06      0.432800
     25 HN8         8.1160    0.5930    2.5690 hn        1 L06      0.364400
     26 HN91        6.5960   -2.3270    3.7120 hn        1 L06      0.417800
     27 HN92        5.3090   -1.5540    4.4120 hn        1 L06      0.417800
@<TRIPOS>BOND
     1    1    2 1   
     2    1   14 1   
     3    2    3 1   
     4    2   15 1   
     5    2   16 1   
     6    3    4 1   
     7    3   11 1   
     8    3   17 1   
     9    4    5 1   
    10    4   18 1   
    11    4   19 1   
    12    5    6 1   
    13    5   20 1   
    14    5   21 1   
    15    6    7 1   
    16    6   22 1   
    17    6   23 1   
    18    7    8 1   
    19    7   24 1   
    20    8    9 2   
    21    8   10 1   
    22    9   25 1   
    23   10   26 1   
    24   10   27 1   
    25   11   12 1   
    26   11   13 1   
@<TRIPOS>SUBSTRUCTURE
     1 L06         1 TEMP              0 ****  ****    0 ROOT
