@<TRIPOS>MOLECULE
L06
   29    28     1     0     0
SMALL
bcc


@<TRIPOS>ATOM
      1 S           0.0000    0.0000    0.0000 sh        1 L06     -0.241900
      2 C1          1.8140    0.0000    0.0000 c3        1 L06      0.101700
      3 C2          2.3240    0.0000    1.4420 c3        1 L06     -0.123700
      4 C3          3.8500    0.1260    1.4440 c3        1 L06      0.004600
      5 C4          4.3480    0.2520    2.8840 c3        1 L06     -0.050400
      6 C5          5.8740    0.3770    2.8870 c3        1 L06     -0.060200
      7 N6          6.3520    0.4970    4.2660 ny        1 L06      0.145000
      8 C7          7.6980    0.6230    4.5180 c2        1 L06     -0.236900
      9 N8          8.1470    0.7360    5.8130 n2        1 L06     -0.516100
     10 N9          8.5480    0.6350    3.5300 nz        1 L06      0.297400
     11 C10         1.9260   -1.2870    2.1150 c         1 L06      0.958600
     12 O11         2.7750   -2.0280    2.5530 o         1 L06     -0.671800
     13 O12         0.6280   -1.6110    2.2310 o         1 L06     -0.671800
     14 HS         -0.4430    0.2850   -1.2190 hs        1 L06      0.181800
     15 H11         2.1760   -0.8850   -0.5110 h1        1 L06      0.038200
     16 H12A        2.1760    0.8850   -0.5110 h1        1 L06      0.038200
     17 H2          1.8920    0.8360    1.9780 hc        1 L06      0.057700
     18 H31         4.2850   -0.7540    0.9860 hc        1 L06      0.024200
     19 H32         4.1400    1.0060    0.8830 hc        1 L06      0.024200
     20 H41         3.9130    1.1320    3.3420 hc        1 L06      0.063200
     21 H42         4.0580   -0.6280    3.4450 hc        1 L06      0.063200
     22 H51         6.1650    1.2580    2.3260 hx        1 L06      0.070200
     23 H52         6.3090   -0.5020    2.4290 hx        1 L06      0.070200
     24 HN6         5.9060    1.3020    4.6600 hn        1 L06      0.237800
     25 HN8         7.4950    0.7260    6.5720 hn        1 L06      0.363400
     26 HN91        9.4780    0.7210    3.8920 hn        1 L06      0.198133
     27 HN92        8.4710   -0.2170    3.0110 hn        1 L06      0.198133
     28 H62         6.0400   -0.3190    4.7550 hn        1 L06      0.237800
     29 H93         8.3520    1.4120    2.9300 hn        1 L06      0.198133
@<TRIPOS>BOND
     1    1    2 1   
     2    1   14 1   
     3    2    3 1   
     4    2   15 1   
     5    2   16 1   
     6    3    4 1   
     7    3   11 1   
     8    3   17 1   
     9    4    5 1   
    10    4   18 1   
    11    4   19 1   
    12    5    6 1   
    13    5   20 1   
    14    5   21 1   
    15    6    7 1   
    16    6   22 1   
    17    6   23 1   
    18    7    8 1   
    19    7   24 1   
    20    7   28 1   
    21    8    9 2   
    22    8   10 1   
    23    9   25 1   
    24   10   26 1   
    25   10   27 1   
    26   10   29 1   
    27   11   12 1   
    28   11   13 1   
@<TRIPOS>SUBSTRUCTURE
     1 L06         1 TEMP              0 ****  ****    0 ROOT
