@<TRIPOS>MOLECULE
L06
   27    26     1     0     0
SMALL
bcc


@<TRIPOS>ATOM
      1 S          -3.2960    1.2350   -0.4180 sh        1 L06     -0.462900
      2 C1         -2.0310    0.0560   -0.8810 c3        1 L06      0.066700
      3 C2         -0.9900   -0.0220    0.2070 c3        1 L06     -0.173700
      4 C3         -0.1080    1.2200    0.2200 c3        1 L06     -0.063400
      5 C4          0.7580    1.2970    1.4620 c3        1 L06     -0.110400
      6 C5          2.2570    1.3610    1.1510 c3        1 L06      0.190800
      7 N6          2.8860    0.1130    0.7850 nh        1 L06     -0.843200
      8 C7          3.1540   -0.1170   -0.6200 c2        1 L06      0.767100
      9 N8          3.7450    0.7500   -1.4170 n2        1 L06     -0.929100
     10 N9          2.9160   -1.4400   -1.0930 nh        1 L06     -0.894800
     11 C10        -0.1020   -1.2680   -0.0180 c         1 L06      0.908600
     12 O11        -0.0230   -1.7710   -1.1750 o         1 L06     -0.848300
     13 O12         0.5560   -1.7160    0.9680 o         1 L06     -0.848300
     14 HS         -4.1110    1.0640   -1.4410 hs        1 L06      0.183800
     15 H11        -1.5610    0.3640   -1.8450 h1        1 L06      0.067700
     16 H12A       -2.4940   -0.9490   -1.0280 h1        1 L06      0.067700
     17 H2         -1.4950   -0.1340    1.2040 hc        1 L06      0.057700
     18 H31        -0.7630    2.1300    0.1630 hc        1 L06      0.036700
     19 H32         0.5310    1.2140   -0.7030 hc        1 L06      0.036700
     20 H41         0.5540    0.4090    2.1210 hc        1 L06      0.050200
     21 H42         0.4950    2.2190    2.0450 hc        1 L06      0.050200
     22 H51         2.7840    1.7010    2.0910 h1        1 L06      0.028200
     23 H52         2.4260    2.1550    0.3720 h1        1 L06      0.028200
     24 HN6         2.4090   -0.6660    1.2190 hn        1 L06      0.432800
     25 HN8         3.9760    1.6180   -0.9850 hn        1 L06      0.364400
     26 HN91        2.8520   -1.4900   -2.0880 hn        1 L06      0.417800
     27 HN92        2.1350   -1.9000   -0.6520 hn        1 L06      0.417800
@<TRIPOS>BOND
     1    1    2 1   
     2    1   14 1   
     3    2    3 1   
     4    2   15 1   
     5    2   16 1   
     6    3    4 1   
     7    3   11 1   
     8    3   17 1   
     9    4    5 1   
    10    4   18 1   
    11    4   19 1   
    12    5    6 1   
    13    5   20 1   
    14    5   21 1   
    15    6    7 1   
    16    6   22 1   
    17    6   23 1   
    18    7    8 1   
    19    7   24 1   
    20    8    9 2   
    21    8   10 1   
    22    9   25 1   
    23   10   26 1   
    24   10   27 1   
    25   11   12 1   
    26   11   13 1   
@<TRIPOS>SUBSTRUCTURE
     1 L06         1 TEMP              0 ****  ****    0 ROOT
