@<TRIPOS>MOLECULE
L07
   30    32     1     0     0
SMALL
bcc


@<TRIPOS>ATOM
      1 C7          0.0390   -0.3020    0.0730 c3        1 L07     -0.076400
      2 C8          1.5260   -0.0580    0.0600 c3        1 L07     -0.095100
      3 C12        -8.1700    0.0490    1.4660 ca        1 L07     -0.183300
      4 C11        -8.5800    1.3590    1.5460 ca        1 L07     -0.111000
      5 C10        -7.6440    2.4130    1.5990 ca        1 L07     -0.144000
      6 C9         -6.2960    2.1380    1.5700 ca        1 L07     -0.100000
      7 N2         -2.6940   -1.1160    1.3180 nc        1 L07     -0.514100
      8 N1         -6.4090   -1.6030    1.3550 nb        1 L07     -0.757000
      9 N          -4.7230   -3.2610    1.3720 nh        1 L07     -0.944500
     10 C2         -5.8390    0.8030    1.4870 ca        1 L07     -0.147300
     11 C3         -4.4630    0.4620    1.4460 ca        1 L07     -0.042100
     12 C4         -4.0680   -0.8970    1.3670 ca        1 L07     -0.071900
     13 C5         -2.0600    0.0500    1.3640 cd        1 L07      0.335200
     14 C6         -0.5870    0.2350    1.3460 c3        1 L07     -0.093700
     15 C1         -6.7760   -0.2760    1.4350 ca        1 L07      0.457600
     16 C          -5.1050   -1.9300    1.3440 ca        1 L07      0.726200
     17 S          -3.0960    1.4410    1.4650 ss        1 L07      0.014900
     18 H1         -0.1660   -1.4020   -0.0090 hc        1 L07      0.052200
     19 H2         -0.4340    0.1910   -0.8170 hc        1 L07      0.052200
     20 H3          1.9740   -0.4610   -0.8810 hc        1 L07      0.036033
     21 H4          1.7490    1.0350    0.1150 hc        1 L07      0.036033
     22 H5          2.0170   -0.5600    0.9280 hc        1 L07      0.036033
     23 H6         -8.9080   -0.7670    1.4260 ha        1 L07      0.150000
     24 H7         -9.6550    1.5980    1.5700 ha        1 L07      0.134000
     25 H8         -8.0020    3.4500    1.6650 ha        1 L07      0.134000
     26 H9         -5.5550    2.9510    1.6110 ha        1 L07      0.131000
     27 H10        -5.4120   -3.9510    1.1860 hn        1 L07      0.431300
     28 H11        -3.7920   -3.4700    1.1010 hn        1 L07      0.431300
     29 H12        -0.3570    1.3310    1.4460 hc        1 L07      0.061700
     30 H13        -0.1360   -0.2860    2.2340 hc        1 L07      0.061700
@<TRIPOS>BOND
     1    1    2 1   
     2    1   14 1   
     3    1   18 1   
     4    1   19 1   
     5    2   20 1   
     6    2   21 1   
     7    2   22 1   
     8    3    4 ar  
     9    3   15 ar  
    10    3   23 1   
    11    4    5 ar  
    12    4   24 1   
    13    5    6 ar  
    14    5   25 1   
    15    6   10 ar  
    16    6   26 1   
    17    7   12 1   
    18    7   13 2   
    19    8   15 ar  
    20    8   16 ar  
    21    9   16 1   
    22    9   27 1   
    23    9   28 1   
    24   10   11 ar  
    25   10   15 ar  
    26   11   12 ar  
    27   11   17 1   
    28   12   16 ar  
    29   13   14 1   
    30   13   17 1   
    31   14   29 1   
    32   14   30 1   
@<TRIPOS>SUBSTRUCTURE
     1 L07         1 TEMP              0 ****  ****    0 ROOT
