@<TRIPOS>MOLECULE
L07
   30    32     1     0     0
SMALL
bcc


@<TRIPOS>ATOM
      1 C7         -4.3730    0.0450    0.7190 c3        1 L07     -0.076400
      2 C8         -5.8270    0.4010    0.5410 c3        1 L07     -0.095100
      3 C12         3.9540   -0.3160    0.2150 ca        1 L07     -0.183300
      4 C11         4.4770    0.9520    0.1350 ca        1 L07     -0.111000
      5 C10         3.6390    2.0760   -0.0310 ca        1 L07     -0.144000
      6 C9          2.2760    1.9110   -0.1150 ca        1 L07     -0.101000
      7 N2         -1.5890   -1.0370   -0.1530 nc        1 L07     -0.514100
      8 N1          2.0570   -1.8160    0.2190 nb        1 L07     -0.757000
      9 N           0.2280   -3.3090    0.3560 nh        1 L07     -0.943500
     10 C2          1.7040    0.6210   -0.0380 ca        1 L07     -0.146300
     11 C3          0.3070    0.3920   -0.1270 ca        1 L07     -0.042100
     12 C4         -0.2050   -0.9260   -0.0360 ca        1 L07     -0.070900
     13 C5         -2.1140    0.1710   -0.3200 cd        1 L07      0.335200
     14 C6         -3.5590    0.4690   -0.4890 c3        1 L07     -0.093700
     15 C1          2.5390   -0.5270    0.1330 ca        1 L07      0.457600
     16 C           0.7320   -2.0330    0.1630 ca        1 L07      0.726200
     17 S          -0.9630    1.4720   -0.3450 ss        1 L07      0.014900
     18 H1         -3.9700    0.5450    1.6390 hc        1 L07      0.053700
     19 H2         -4.2680   -1.0620    0.8700 hc        1 L07      0.053700
     20 H3         -5.9530    1.5030    0.4140 hc        1 L07      0.035700
     21 H4         -6.2500   -0.1070   -0.3590 hc        1 L07      0.035700
     22 H5         -6.4130    0.0800    1.4350 hc        1 L07      0.035700
     23 H6          4.6150   -1.1870    0.3460 ha        1 L07      0.150000
     24 H7          5.5650    1.1040    0.2000 ha        1 L07      0.134000
     25 H8          4.0870    3.0790   -0.0910 ha        1 L07      0.134000
     26 H9          1.6110    2.7790   -0.2450 ha        1 L07      0.131000
     27 H10         0.8610   -4.0730    0.3190 hn        1 L07      0.430800
     28 H11        -0.6990   -3.4790    0.0470 hn        1 L07      0.430800
     29 H12        -3.9430   -0.0590   -1.4040 hc        1 L07      0.061200
     30 H13        -3.6850    1.5730   -0.6600 hc        1 L07      0.061200
@<TRIPOS>BOND
     1    1    2 1   
     2    1   14 1   
     3    1   18 1   
     4    1   19 1   
     5    2   20 1   
     6    2   21 1   
     7    2   22 1   
     8    3    4 ar  
     9    3   15 ar  
    10    3   23 1   
    11    4    5 ar  
    12    4   24 1   
    13    5    6 ar  
    14    5   25 1   
    15    6   10 ar  
    16    6   26 1   
    17    7   12 1   
    18    7   13 2   
    19    8   15 ar  
    20    8   16 ar  
    21    9   16 1   
    22    9   27 1   
    23    9   28 1   
    24   10   11 ar  
    25   10   15 ar  
    26   11   12 ar  
    27   11   17 1   
    28   12   16 ar  
    29   13   14 1   
    30   13   17 1   
    31   14   29 1   
    32   14   30 1   
@<TRIPOS>SUBSTRUCTURE
     1 L07         1 TEMP              0 ****  ****    0 ROOT
