@<TRIPOS>MOLECULE
L07
   30    32     1     0     0
SMALL
bcc


@<TRIPOS>ATOM
      1 C7          0.0550   -0.2890    0.0970 c3        1 L07     -0.076400
      2 C8          1.5440   -0.0530    0.1150 c3        1 L07     -0.095100
      3 C12        -8.1730    0.0520    1.4720 ca        1 L07     -0.183300
      4 C11        -8.5800    1.3610    1.5720 ca        1 L07     -0.111000
      5 C10        -7.6420    2.4130    1.6200 ca        1 L07     -0.144000
      6 C9         -6.2950    2.1370    1.5670 ca        1 L07     -0.101000
      7 N2         -2.6990   -1.1210    1.2830 nc        1 L07     -0.514100
      8 N1         -6.4150   -1.6010    1.3120 nb        1 L07     -0.757000
      9 N          -4.7370   -3.2430    1.0260 nv        1 L07     -0.943500
     10 C2         -5.8410    0.8020    1.4650 ca        1 L07     -0.146300
     11 C3         -4.4650    0.4600    1.4150 ca        1 L07     -0.042100
     12 C4         -4.0740   -0.8980    1.3070 ca        1 L07     -0.070900
     13 C5         -2.0630    0.0420    1.3620 cd        1 L07      0.335200
     14 C6         -0.5900    0.2220    1.3720 c3        1 L07     -0.093700
     15 C1         -6.7800   -0.2750    1.4130 ca        1 L07      0.457600
     16 C          -5.1140   -1.9260    1.2350 ca        1 L07      0.726200
     17 S          -3.0960    1.4340    1.4720 ss        1 L07      0.014900
     18 H1         -0.4000    0.2280   -0.7880 hc        1 L07      0.053700
     19 H2         -0.1540   -1.3860   -0.0140 hc        1 L07      0.053700
     20 H3          2.0180   -0.5790    0.9790 hc        1 L07      0.035700
     21 H4          1.7720    1.0380    0.2000 hc        1 L07      0.035700
     22 H5          2.0040   -0.4360   -0.8280 hc        1 L07      0.035700
     23 H6         -8.9120   -0.7640    1.4330 ha        1 L07      0.150000
     24 H7         -9.6540    1.6010    1.6160 ha        1 L07      0.134000
     25 H8         -7.9980    3.4510    1.6990 ha        1 L07      0.134000
     26 H9         -5.5530    2.9490    1.6030 ha        1 L07      0.131000
     27 H10        -5.4230   -3.9510    1.1490 hn        1 L07      0.430800
     28 H11        -3.8000   -3.4840    1.2410 hn        1 L07      0.430800
     29 H12        -0.3570    1.3140    1.5010 hc        1 L07      0.061200
     30 H13        -0.1540   -0.3210    2.2560 hc        1 L07      0.061200
@<TRIPOS>BOND
     1    1    2 1   
     2    1   14 1   
     3    1   18 1   
     4    1   19 1   
     5    2   20 1   
     6    2   21 1   
     7    2   22 1   
     8    3    4 ar  
     9    3   15 ar  
    10    3   23 1   
    11    4    5 ar  
    12    4   24 1   
    13    5    6 ar  
    14    5   25 1   
    15    6   10 ar  
    16    6   26 1   
    17    7   12 1   
    18    7   13 2   
    19    8   15 ar  
    20    8   16 ar  
    21    9   16 1   
    22    9   27 1   
    23    9   28 1   
    24   10   11 ar  
    25   10   15 ar  
    26   11   12 ar  
    27   11   17 1   
    28   12   16 ar  
    29   13   14 1   
    30   13   17 1   
    31   14   29 1   
    32   14   30 1   
@<TRIPOS>SUBSTRUCTURE
     1 L07         1 TEMP              0 ****  ****    0 ROOT
