@<TRIPOS>MOLECULE
L07
   31    33     1     0     0
SMALL
bcc


@<TRIPOS>ATOM
      1 C7          0.0240   -0.3020    0.0850 c3        1 L07     -0.072400
      2 C8          1.5130   -0.0660    0.0910 c3        1 L07     -0.100100
      3 C12        -8.2040    0.0680    1.4780 ca        1 L07     -0.140300
      4 C11        -8.6110    1.3800    1.5650 ca        1 L07     -0.107000
      5 C10        -7.6690    2.4300    1.6130 ca        1 L07     -0.068000
      6 C9         -6.3180    2.1590    1.5730 ca        1 L07     -0.128000
      7 N2         -2.7240   -1.1230    1.3150 nc        1 L07     -0.563100
      8 N1         -6.4340   -1.5750    1.3490 nb        1 L07     -0.610000
      9 N          -4.7200   -3.2760    1.2180 n4        1 L07     -0.814300
     10 C2         -5.8580    0.8260    1.4850 ca        1 L07     -0.057300
     11 C3         -4.4790    0.4910    1.4410 ca        1 L07     -0.080100
     12 C4         -4.0910   -0.8770    1.3510 ca        1 L07     -0.047900
     13 C5         -2.0800    0.0440    1.3750 cd        1 L07      0.378200
     14 C6         -0.6040    0.2120    1.3680 c3        1 L07     -0.112700
     15 C1         -6.8110   -0.2480    1.4360 ca        1 L07      0.385600
     16 C          -5.1410   -1.8610    1.3100 ca        1 L07      0.506200
     17 S          -3.1000    1.4390    1.4750 ss        1 L07      0.151900
     18 H1         -0.4370    0.2170   -0.7960 hc        1 L07      0.050200
     19 H2         -0.1850   -1.3980   -0.0230 hc        1 L07      0.050200
     20 H3          1.7430    1.0240    0.1720 hc        1 L07      0.047033
     21 H4          1.9950   -0.5920    0.9500 hc        1 L07      0.047033
     22 H5          1.9640   -0.4520   -0.8560 hc        1 L07      0.047033
     23 H6         -8.9460   -0.7470    1.4420 ha        1 L07      0.169000
     24 H7         -9.6870    1.6230    1.5980 ha        1 L07      0.166000
     25 H8         -8.0250    3.4720    1.6820 ha        1 L07      0.165000
     26 H9         -5.5810    2.9780    1.6110 ha        1 L07      0.155000
     27 H10        -4.1330   -3.4910    2.0330 hn        1 L07      0.474467
     28 H11        -4.1620   -3.3910    0.3630 hn        1 L07      0.474467
     29 H12        -0.3620    1.3020    1.4970 hc        1 L07      0.079700
     30 H13        -0.1640   -0.3370    2.2470 hc        1 L07      0.079700
     31 HN3        -5.5280   -3.9100    1.1940 hn        1 L07      0.474467
@<TRIPOS>BOND
     1    1    2 1   
     2    1   14 1   
     3    1   18 1   
     4    1   19 1   
     5    2   20 1   
     6    2   21 1   
     7    2   22 1   
     8    3    4 ar  
     9    3   15 ar  
    10    3   23 1   
    11    4    5 ar  
    12    4   24 1   
    13    5    6 ar  
    14    5   25 1   
    15    6   10 ar  
    16    6   26 1   
    17    7   12 1   
    18    7   13 2   
    19    8   15 ar  
    20    8   16 ar  
    21    9   16 1   
    22    9   27 1   
    23    9   28 1   
    24    9   31 1   
    25   10   11 ar  
    26   10   15 ar  
    27   11   12 ar  
    28   11   17 1   
    29   12   16 ar  
    30   13   14 1   
    31   13   17 1   
    32   14   29 1   
    33   14   30 1   
@<TRIPOS>SUBSTRUCTURE
     1 L07         1 TEMP              0 ****  ****    0 ROOT
