@<TRIPOS>MOLECULE
L07
   30    25     1     0     0
SMALL
bcc


@<TRIPOS>ATOM
      1 C7          3.6120    0.5740   -1.5080 c3        1 L07     -0.155000
      2 C8          5.1010    0.8350   -1.5800 c3        1 L07     -0.213000
      3 C12        -4.3680   -0.2090    0.8130 c1        1 L07     -0.109000
      4 C11        -4.7410    1.1190    0.9980 c1        1 L07     -0.127500
      5 C10        -3.7730    2.1240    0.9880 c1        1 L07     -0.127500
      6 C9         -2.4350    1.8000    0.7930 c1        1 L07     -0.109000
      7 N2          1.2150   -1.2600   -0.0740 n2        1 L07     -0.087000
      8 N1         -2.6420   -1.8820    0.4020 n1        1 L07     -0.231000
      9 N          -1.1550   -3.6070    0.3210 n3        1 L07     -0.342000
     10 C2         -2.0560    0.4600    0.6060 c1        1 L07     -0.009000
     11 C3         -0.7240    0.1370    0.3850 c1        1 L07     -0.269000
     12 C4         -0.3520   -1.2070    0.1720 c1        1 L07     -0.146000
     13 C5          1.7250    0.0600    0.0020 c1        1 L07     -0.252000
     14 C6          3.2060    0.3580   -0.0660 c2        1 L07     -0.097000
     15 C1         -3.0160   -0.5380    0.6160 c1        1 L07     -0.009000
     16 C          -1.3200   -2.2050    0.1830 c1        1 L07      0.205000
     17 S           0.5510    1.0010    0.2910 s         1 L07      0.466000
     18 H1          3.3950   -0.2230   -2.0310 hc        1 L07      0.091500
     19 H2          3.1280    1.3440   -1.8710 hc        1 L07      0.091500
     20 H3          5.4290    0.6120   -2.4770 hc        1 L07      0.075333
     21 H4          5.2770    1.7810   -1.3950 hc        1 L07      0.075333
     22 H5          5.5620    0.2800   -0.9170 hc        1 L07      0.075333
     23 H6         -5.0450   -0.9120    0.8200 ha        1 L07      0.140500
     24 H7         -5.6800    1.3470    1.1350 ha        1 L07      0.134000
     25 H8         -4.0360    3.0550    1.1180 ha        1 L07      0.134000
     26 H9         -1.7590    2.5040    0.7860 ha        1 L07      0.140500
     27 H10        -1.8700   -4.1330    0.5410 hn        1 L07      0.226500
     28 H11        -0.3330   -3.9860    0.1910 hn        1 L07      0.226500
     29 H12         3.4000    1.1650    0.4520 ha        1 L07      0.101000
     30 H13         3.7080   -0.3950    0.3040 ha        1 L07      0.101000
@<TRIPOS>BOND
     1    1    2 1   
     2    1   14 1   
     3    1   18 1   
     4    1   19 1   
     5    2   20 1   
     6    2   21 1   
     7    2   22 1   
     8    3   15 1   
     9    3   23 1   
    10    4    5 1   
    11    4   24 1   
    12    5   25 1   
    13    6   10 1   
    14    6   26 1   
    15    7   12 1   
    16    7   13 1   
    17    8   16 1   
    18    9   16 1   
    19    9   27 1   
    20    9   28 1   
    21   10   15 1   
    22   11   12 1   
    23   13   17 1   
    24   14   29 1   
    25   14   30 1   
@<TRIPOS>SUBSTRUCTURE
     1 L07         1 TEMP              0 ****  ****    0 ROOT
