@<TRIPOS>MOLECULE
L08
   60    63     1     0     0
SMALL
bcc


@<TRIPOS>ATOM
      1 O4          0.1280   -0.2210    0.0580 o         1 L08     -0.210000
      2 N3          1.3290   -0.1510    0.0610 no        1 L08      0.312200
      3 C11         2.0440    0.0000    1.3480 ca        1 L08     -0.200200
      4 C10         3.4550    0.1210    1.3730 ca        1 L08      0.029900
      5 C15         4.0540    0.2700    2.6400 ca        1 L08     -0.156000
      6 C14         3.3110    0.2860    3.8060 ca        1 L08     -0.056000
      7 C13         1.9100    0.1580    3.7660 cp        1 L08     -0.081000
      8 C12         1.2820    0.0190    2.5300 ca        1 L08     -0.033000
      9 C16         1.1250    0.1760    4.9980 cp        1 L08      0.020000
     10 C8         -0.1140    0.8300    5.0490 ca        1 L08     -0.263300
     11 C35        -0.8230    0.8080    6.2600 ca        1 L08      0.424200
     12 N20        -0.3950    0.2100    7.3810 nb        1 L08     -0.704000
     13 C18         0.8110   -0.4380    7.3380 ca        1 L08      0.613200
     14 N1          1.2840   -1.1750    8.4690 nh        1 L08     -0.729300
     15 C19         0.3190   -1.4230    9.5340 c3        1 L08      0.159300
     16 C20         0.8870   -2.3610   10.6230 c3        1 L08      0.083500
     17 N2          2.1920   -1.9650   11.1080 n         1 L08     -0.468800
     18 C21         3.1370   -1.6590   10.0640 c3        1 L08      0.083500
     19 C22         2.5720   -0.7170    8.9730 c3        1 L08      0.159300
     20 C23         2.3540   -1.5460   12.4260 c         1 L08      0.656100
     21 O2          1.4100   -1.6540   13.2350 o         1 L08     -0.603100
     22 C24         3.6960   -1.0330   12.8850 c3        1 L08     -0.170100
     23 C17         1.5960   -0.4660    6.1480 ca        1 L08     -0.253300
     24 S1          4.3170    0.0680   -0.0620 ss        1 L08      0.092200
     25 C1          5.9700    0.1830    0.3250 ca        1 L08     -0.156100
     26 C2          6.6390    1.3530    0.7460 ca        1 L08      0.183100
     27 C3          8.0380    1.3830    0.8560 ca        1 L08     -0.221000
     28 C4          8.7760    0.2450    0.5470 ca        1 L08     -0.059000
     29 C5          8.1320   -0.9240    0.1390 ca        1 L08     -0.180000
     30 C6          6.7440   -0.9500    0.0410 ca        1 L08     -0.041000
     31 O7          5.8330    2.4220    1.0670 os        1 L08     -0.327900
     32 C9          6.4880    3.6910    1.2280 c3        1 L08      0.129400
     33 C33         5.3820    4.7130    1.3460 c3        1 L08     -0.102100
     34 O3          1.9680   -0.2010   -0.9610 o         1 L08     -0.210000
     35 H15         5.1490    0.3940    2.6910 ha        1 L08      0.154000
     36 H14         3.8170    0.4070    4.7770 ha        1 L08      0.142000
     37 H12         0.1830   -0.0850    2.4740 ha        1 L08      0.173000
     38 H8         -0.5210    1.3500    4.1730 ha        1 L08      0.151000
     39 H35        -1.8050    1.3100    6.3450 h4        1 L08      0.026100
     40 H191       -0.0230   -0.4650   10.0210 h1        1 L08      0.052450
     41 H192       -0.5800   -1.9270    9.0820 h1        1 L08      0.052450
     42 H201        0.1520   -2.3850   11.4760 h1        1 L08      0.065200
     43 H202        0.9820   -3.4020   10.2000 h1        1 L08      0.065200
     44 H211        4.0610   -1.1750   10.4810 h1        1 L08      0.065200
     45 H212        3.4380   -2.6320    9.5780 h1        1 L08      0.065200
     46 H221        2.5010    0.3280    9.3950 h1        1 L08      0.052450
     47 H222        3.3090   -0.7000    8.1240 h1        1 L08      0.052450
     48 H241        3.9200   -0.0500   12.4050 hc        1 L08      0.065700
     49 H242        4.5080   -1.7590   12.6430 hc        1 L08      0.065700
     50 H243        3.6580   -0.8910   13.9940 hc        1 L08      0.065700
     51 H17         2.5490   -1.0130    6.1200 ha        1 L08      0.148000
     52 H3          8.5570    2.2960    1.1800 ha        1 L08      0.143000
     53 H4          9.8730    0.2690    0.6280 ha        1 L08      0.138000
     54 H5          8.7180   -1.8230   -0.1020 ha        1 L08      0.142000
     55 H6          6.2340   -1.8750   -0.2780 ha        1 L08      0.150000
     56 H91         7.1400    3.8950    0.3390 h1        1 L08      0.041700
     57 H92         7.1150    3.6590    2.1590 h1        1 L08      0.041700
     58 H331        4.7530    4.7160    0.4230 hc        1 L08      0.053033
     59 H332        4.7250    4.4800    2.2170 hc        1 L08      0.053033
     60 H333        5.8350    5.7230    1.4860 hc        1 L08      0.053033
@<TRIPOS>BOND
     1    1    2 1   
     2    2    3 1   
     3    2   34 1   
     4    3    4 ar  
     5    3    8 ar  
     6    4    5 ar  
     7    4   24 1   
     8    5    6 ar  
     9    5   35 1   
    10    6    7 ar  
    11    6   36 1   
    12    7    8 ar  
    13    7    9 1   
    14    8   37 1   
    15    9   10 ar  
    16    9   23 ar  
    17   10   11 ar  
    18   10   38 1   
    19   11   12 ar  
    20   11   39 1   
    21   12   13 ar  
    22   13   14 1   
    23   13   23 ar  
    24   14   15 1   
    25   14   19 1   
    26   15   16 1   
    27   15   40 1   
    28   15   41 1   
    29   16   17 1   
    30   16   42 1   
    31   16   43 1   
    32   17   18 1   
    33   17   20 1   
    34   18   19 1   
    35   18   44 1   
    36   18   45 1   
    37   19   46 1   
    38   19   47 1   
    39   20   21 2   
    40   20   22 1   
    41   22   48 1   
    42   22   49 1   
    43   22   50 1   
    44   23   51 1   
    45   24   25 1   
    46   25   26 ar  
    47   25   30 ar  
    48   26   27 ar  
    49   26   31 1   
    50   27   28 ar  
    51   27   52 1   
    52   28   29 ar  
    53   28   53 1   
    54   29   30 ar  
    55   29   54 1   
    56   30   55 1   
    57   31   32 1   
    58   32   33 1   
    59   32   56 1   
    60   32   57 1   
    61   33   58 1   
    62   33   59 1   
    63   33   60 1   
@<TRIPOS>SUBSTRUCTURE
     1 L08         1 TEMP              0 ****  ****    0 ROOT
