@<TRIPOS>MOLECULE
L08
   60    54     1     0     0
SMALL
bcc


@<TRIPOS>ATOM
      1 O4         -0.5870    0.1640   -4.1840 o         1 L08     -0.306200
      2 N3          0.1850   -0.7400   -3.9700 n2        1 L08      0.458400
      3 C11         0.8910   -0.7890   -2.7460 c1        1 L08     -0.155000
      4 C10         1.5620   -1.9670   -2.3660 c2        1 L08     -0.196000
      5 C15         2.2540   -2.0140   -1.1630 c1        1 L08     -0.156000
      6 C14         2.2820   -0.8880   -0.3280 c1        1 L08     -0.128500
      7 C13         1.6170    0.2770   -0.7050 c1        1 L08     -0.030000
      8 C12         0.9200    0.3250   -1.9170 c1        1 L08     -0.034000
      9 C16         1.6610    1.4110    0.1190 c1        1 L08     -0.030000
     10 C8          2.6090    2.3930   -0.1080 c1        1 L08     -0.128500
     11 C35         2.5970    3.5610    0.6480 c1        1 L08     -0.042000
     12 N20         1.6420    3.7390    1.6220 n1        1 L08     -0.185000
     13 C18         0.6930    2.7600    1.8520 c1        1 L08      0.097000
     14 N1         -0.3640    2.9810    2.8510 n3        1 L08     -0.221000
     15 C19        -1.1500    4.1020    2.4580 c3        1 L08     -0.077500
     16 C20        -2.1610    4.5000    3.5230 c3        1 L08     -0.035000
     17 N2         -1.5460    4.6610    4.8180 n         1 L08     -0.325000
     18 C21        -0.7690    3.5640    5.2170 c3        1 L08     -0.035000
     19 C22         0.2450    3.1630    4.1620 c3        1 L08     -0.077500
     20 C23        -1.7120    5.8430    5.6360 c2        1 L08      0.299000
     21 O2         -2.4220    6.7960    5.2270 o         1 L08     -0.366000
     22 C24        -1.0780    5.9110    6.9970 c3        1 L08     -0.238000
     23 C17         0.7040    1.5920    1.0970 c1        1 L08     -0.186000
     24 S1          1.6170   -3.3820   -3.4970 ss        1 L08      0.546000
     25 C1          0.6170   -4.6760   -2.8650 c2        1 L08     -0.383000
     26 C2         -0.0680   -5.5000   -3.7330 c2        1 L08      0.138000
     27 C3         -0.7600   -6.6330   -3.2340 c1        1 L08     -0.221000
     28 C4         -0.7470   -6.9160   -1.8540 c1        1 L08     -0.119500
     29 C5         -0.0660   -6.0970   -0.9930 c1        1 L08     -0.119500
     30 C6          0.6290   -4.9600   -1.4910 c1        1 L08     -0.040000
     31 O7         -0.0770   -5.2220   -5.0840 os        1 L08     -0.211000
     32 C9         -1.3580   -5.2360   -5.6620 c3        1 L08     -0.021000
     33 C33        -1.2980   -4.5700   -7.0670 c3        1 L08     -0.220000
     34 O3          0.4930   -1.6130   -4.9610 o         1 L08     -0.306200
     35 H15         2.7400   -2.8660   -0.8880 ha        1 L08      0.154000
     36 H14         2.7650   -0.9190    0.5130 ha        1 L08      0.145000
     37 H12         0.4520    1.1510   -2.1820 ha        1 L08      0.171000
     38 H8          3.3220    2.2600   -0.8370 ha        1 L08      0.145000
     39 H35         3.2940    4.2820    0.4800 ha        1 L08      0.159000
     40 H191       -0.5900    4.8170    2.2960 h1        1 L08      0.093250
     41 H192       -1.6480    3.8710    1.5960 h1        1 L08      0.093250
     42 H201       -2.6150    5.4050    3.2440 h1        1 L08      0.106000
     43 H202       -2.8600    3.7940    3.5850 h1        1 L08      0.106000
     44 H211       -0.3320    3.7750    5.9860 h1        1 L08      0.106000
     45 H212       -1.3630    2.8020    5.3890 h1        1 L08      0.106000
     46 H221        0.6580    2.3440    4.4280 h1        1 L08      0.093250
     47 H222        0.9120    3.8390    4.1010 h1        1 L08      0.093250
     48 H241       -1.3280    6.8020    7.4430 hc        1 L08      0.105667
     49 H242       -1.4030    5.1680    7.5460 hc        1 L08      0.105667
     50 H243       -0.1050    5.8500    6.9080 hc        1 L08      0.105667
     51 H17        -0.0000    0.8670    1.2660 ha        1 L08      0.154000
     52 H3         -1.2480   -7.2180   -3.8480 ha        1 L08      0.143000
     53 H4         -1.2190   -7.6900   -1.5120 ha        1 L08      0.140000
     54 H5         -0.0570   -6.2960   -0.0230 ha        1 L08      0.140000
     55 H6          1.1110   -4.3800   -0.8790 ha        1 L08      0.150000
     56 H91        -1.6760   -6.1940   -5.7580 h1        1 L08      0.081000
     57 H92        -2.0260   -4.7040   -5.0490 h1        1 L08      0.081000
     58 H331       -1.0500   -5.2580   -7.7530 hc        1 L08      0.092333
     59 H332       -2.1740   -4.1900   -7.2890 hc        1 L08      0.092333
     60 H333       -0.6170   -3.8500   -7.0620 hc        1 L08      0.092333
@<TRIPOS>BOND
     1    1    2 2   
     2    2   34 2   
     3    3    4 1   
     4    3    8 1   
     5    4    5 1   
     6    4   24 1   
     7    5   35 1   
     8    6    7 1   
     9    6   36 1   
    10    8   37 1   
    11    9   10 1   
    12   10   38 1   
    13   11   12 1   
    14   11   39 1   
    15   13   14 1   
    16   13   23 1   
    17   14   15 1   
    18   14   19 1   
    19   15   16 1   
    20   15   40 1   
    21   15   41 1   
    22   16   17 1   
    23   16   42 1   
    24   16   43 1   
    25   17   18 1   
    26   17   20 1   
    27   18   19 1   
    28   18   44 1   
    29   18   45 1   
    30   19   46 1   
    31   19   47 1   
    32   20   21 1   
    33   20   22 1   
    34   22   48 1   
    35   22   49 1   
    36   22   50 1   
    37   23   51 1   
    38   24   25 1   
    39   25   26 1   
    40   25   30 1   
    41   26   27 1   
    42   26   31 1   
    43   27   52 1   
    44   28   29 1   
    45   28   53 1   
    46   29   54 1   
    47   30   55 1   
    48   31   32 1   
    49   32   33 1   
    50   32   56 1   
    51   32   57 1   
    52   33   58 1   
    53   33   59 1   
    54   33   60 1   
@<TRIPOS>SUBSTRUCTURE
     1 L08         1 TEMP              0 ****  ****    0 ROOT
