@<TRIPOS>MOLECULE
L08
   60    63     1     0     0
SMALL
bcc


@<TRIPOS>ATOM
      1 O4          3.1200    4.2300   -0.6200 o         1 L08     -0.210000
      2 N3          3.4920    3.0880   -0.6900 no        1 L08      0.312200
      3 C11         2.5360    1.9950   -0.4070 ca        1 L08     -0.200200
      4 C10         2.9600    0.6440   -0.4480 ca        1 L08      0.029900
      5 C15         1.9870   -0.3330   -0.1570 ca        1 L08     -0.156000
      6 C14         0.6790   -0.0000    0.1420 ca        1 L08     -0.056000
      7 C13         0.2700    1.3460    0.1730 cp        1 L08     -0.081000
      8 C12         1.2070    2.3400   -0.0990 ca        1 L08     -0.033000
      9 C16        -1.1120    1.6980    0.4910 cp        1 L08      0.020000
     10 C8         -1.4030    2.8180    1.2820 ca        1 L08     -0.263300
     11 C35        -2.7500    3.1080    1.5480 ca        1 L08      0.424200
     12 N20        -3.7860    2.3800    1.1050 nb        1 L08     -0.704000
     13 C18        -3.5110    1.2880    0.3240 ca        1 L08      0.613200
     14 N1         -4.5700    0.5240   -0.2580 nh        1 L08     -0.729300
     15 C19        -5.9020    1.1140   -0.2090 c3        1 L08      0.159300
     16 C20        -6.9330    0.2830   -1.0070 c3        1 L08      0.083500
     17 N2         -6.9160   -1.1280   -0.6850 n         1 L08     -0.468800
     18 C21        -5.5970   -1.7090   -0.6710 c3        1 L08      0.083500
     19 C22        -4.5630   -0.8810    0.1290 c3        1 L08      0.159300
     20 C23        -8.0140   -1.7210   -0.0680 c         1 L08      0.656100
     21 O2         -9.0730   -1.0780    0.0730 o         1 L08     -0.603100
     22 C24        -7.9370   -3.1660    0.3600 c3        1 L08     -0.170100
     23 C17        -2.1700    0.9240    0.0040 ca        1 L08     -0.253300
     24 S1          4.5480    0.2850   -0.8430 ss        1 L08      0.092200
     25 C1          4.7060   -1.4080   -0.8570 ca        1 L08     -0.156100
     26 C2          4.7420   -2.2440    0.2810 ca        1 L08      0.183100
     27 C3          5.0670   -3.6050    0.1650 ca        1 L08     -0.221000
     28 C4          5.3550   -4.1380   -1.0880 ca        1 L08     -0.059000
     29 C5          5.3130   -3.3310   -2.2250 ca        1 L08     -0.180000
     30 C6          4.9820   -1.9850   -2.1040 ca        1 L08     -0.041000
     31 O7          4.4100   -1.6450    1.4740 os        1 L08     -0.327900
     32 C9          4.7030   -2.3920    2.6670 c3        1 L08      0.129400
     33 C33         4.4590   -1.4420    3.8170 c3        1 L08     -0.102100
     34 O3          4.6280    2.8100   -0.9850 o         1 L08     -0.210000
     35 H15         2.2920   -1.3940   -0.1540 ha        1 L08      0.154000
     36 H14        -0.0510   -0.7940    0.3670 ha        1 L08      0.142000
     37 H12         0.9090    3.4050   -0.0830 ha        1 L08      0.173000
     38 H8         -0.6040    3.4520    1.6880 ha        1 L08      0.151000
     39 H35        -3.0250    3.9820    2.1670 h4        1 L08      0.026100
     40 H191       -6.2710    1.2310    0.8500 h1        1 L08      0.052450
     41 H192       -5.8500    2.1360   -0.6770 h1        1 L08      0.052450
     42 H201       -7.9550    0.7100   -0.8010 h1        1 L08      0.065200
     43 H202       -6.7150    0.3840   -2.1080 h1        1 L08      0.065200
     44 H211       -5.6120   -2.7440   -0.2320 h1        1 L08      0.065200
     45 H212       -5.2460   -1.7870   -1.7410 h1        1 L08      0.065200
     46 H221       -3.5450   -1.3110   -0.0840 h1        1 L08      0.052450
     47 H222       -4.7710   -1.0050    1.2310 h1        1 L08      0.052450
     48 H241       -7.2270   -3.2800    1.2140 hc        1 L08      0.065700
     49 H242       -8.9550   -3.4880    0.6940 hc        1 L08      0.065700
     50 H243       -7.6120   -3.8180   -0.4850 hc        1 L08      0.065700
     51 H17        -1.9660    0.0610   -0.6450 ha        1 L08      0.148000
     52 H3          5.0990   -4.2530    1.0520 ha        1 L08      0.143000
     53 H4          5.6140   -5.2040   -1.1790 ha        1 L08      0.138000
     54 H5          5.5390   -3.7560   -3.2130 ha        1 L08      0.142000
     55 H6          4.9460   -1.3470   -3.0040 ha        1 L08      0.150000
     56 H91         5.7690   -2.7390    2.6430 h1        1 L08      0.041700
     57 H92         4.0160   -3.2780    2.7180 h1        1 L08      0.041700
     58 H331        3.4020   -1.0830    3.8100 hc        1 L08      0.053033
     59 H332        4.6600   -1.9750    4.7770 hc        1 L08      0.053033
     60 H333        5.1320   -0.5550    3.7400 hc        1 L08      0.053033
@<TRIPOS>BOND
     1    1    2 1   
     2    2    3 1   
     3    2   34 1   
     4    3    4 ar  
     5    3    8 ar  
     6    4    5 ar  
     7    4   24 1   
     8    5    6 ar  
     9    5   35 1   
    10    6    7 ar  
    11    6   36 1   
    12    7    8 ar  
    13    7    9 1   
    14    8   37 1   
    15    9   10 ar  
    16    9   23 ar  
    17   10   11 ar  
    18   10   38 1   
    19   11   12 ar  
    20   11   39 1   
    21   12   13 ar  
    22   13   14 1   
    23   13   23 ar  
    24   14   15 1   
    25   14   19 1   
    26   15   16 1   
    27   15   40 1   
    28   15   41 1   
    29   16   17 1   
    30   16   42 1   
    31   16   43 1   
    32   17   18 1   
    33   17   20 1   
    34   18   19 1   
    35   18   44 1   
    36   18   45 1   
    37   19   46 1   
    38   19   47 1   
    39   20   21 2   
    40   20   22 1   
    41   22   48 1   
    42   22   49 1   
    43   22   50 1   
    44   23   51 1   
    45   24   25 1   
    46   25   26 ar  
    47   25   30 ar  
    48   26   27 ar  
    49   26   31 1   
    50   27   28 ar  
    51   27   52 1   
    52   28   29 ar  
    53   28   53 1   
    54   29   30 ar  
    55   29   54 1   
    56   30   55 1   
    57   31   32 1   
    58   32   33 1   
    59   32   56 1   
    60   32   57 1   
    61   33   58 1   
    62   33   59 1   
    63   33   60 1   
@<TRIPOS>SUBSTRUCTURE
     1 L08         1 TEMP              0 ****  ****    0 ROOT
