@<TRIPOS>MOLECULE
L08
   60    63     1     0     0
SMALL
bcc


@<TRIPOS>ATOM
      1 O4          0.1290   -0.2490    0.0580 o         1 L08     -0.210000
      2 N3          1.3290   -0.1720    0.0600 no        1 L08      0.312200
      3 C11         2.0430   -0.0150    1.3470 ca        1 L08     -0.200200
      4 C10         3.4540    0.1140    1.3720 ca        1 L08      0.029900
      5 C15         4.0530    0.2680    2.6380 ca        1 L08     -0.156000
      6 C14         3.3090    0.2810    3.8040 ca        1 L08     -0.056000
      7 C13         1.9090    0.1470    3.7650 cp        1 L08     -0.081000
      8 C12         1.2820    0.0020    2.5290 ca        1 L08     -0.033000
      9 C16         1.1240    0.1630    4.9970 cp        1 L08      0.020000
     10 C8         -0.1180    0.8090    5.0470 ca        1 L08     -0.263300
     11 C35        -0.8280    0.7850    6.2580 ca        1 L08      0.424200
     12 N20        -0.3960    0.1930    7.3800 nb        1 L08     -0.704000
     13 C18         0.8150   -0.4480    7.3390 ca        1 L08      0.613200
     14 N1          1.2920   -1.1790    8.4720 nh        1 L08     -0.729300
     15 C19         0.3290   -1.4300    9.5360 c3        1 L08      0.159300
     16 C20         0.9030   -2.3620   10.6280 c3        1 L08      0.083500
     17 N2          2.2050   -1.9560   11.1120 n         1 L08     -0.468800
     18 C21         3.1480   -1.6460   10.0680 c3        1 L08      0.083500
     19 C22         2.5770   -0.7110    8.9740 c3        1 L08      0.159300
     20 C23         2.3640   -1.5310   12.4290 c         1 L08      0.656100
     21 O2          1.4210   -1.6420   13.2390 o         1 L08     -0.603100
     22 C24         3.7020   -1.0070   12.8870 c3        1 L08     -0.170100
     23 C17         1.5990   -0.4740    6.1490 ca        1 L08     -0.253300
     24 S1          4.3160    0.0630   -0.0640 ss        1 L08      0.092200
     25 C1          5.9680    0.1860    0.3230 ca        1 L08     -0.156100
     26 C2          6.6320    1.3590    0.7440 ca        1 L08      0.183100
     27 C3          8.0310    1.3950    0.8520 ca        1 L08     -0.221000
     28 C4          8.7740    0.2600    0.5420 ca        1 L08     -0.059000
     29 C5          8.1350   -0.9120    0.1350 ca        1 L08     -0.180000
     30 C6          6.7470   -0.9440    0.0380 ca        1 L08     -0.041000
     31 O7          5.8220    2.4240    1.0650 os        1 L08     -0.327900
     32 C9          6.4710    3.6950    1.2280 c3        1 L08      0.129400
     33 C33         5.3610    4.7120    1.3480 c3        1 L08     -0.102100
     34 O3          1.9670   -0.2190   -0.9620 o         1 L08     -0.210000
     35 H15         5.1470    0.3970    2.6890 ha        1 L08      0.154000
     36 H14         3.8150    0.4070    4.7750 ha        1 L08      0.142000
     37 H12         0.1830   -0.1070    2.4740 ha        1 L08      0.173000
     38 H8         -0.5290    1.3240    4.1690 ha        1 L08      0.151000
     39 H35        -1.8130    1.2820    6.3410 h4        1 L08      0.026100
     40 H191       -0.0200   -0.4740   10.0210 h1        1 L08      0.052450
     41 H192       -0.5670   -1.9420    9.0860 h1        1 L08      0.052450
     42 H201        0.1680   -2.3890   11.4820 h1        1 L08      0.065200
     43 H202        1.0050   -3.4030   10.2080 h1        1 L08      0.065200
     44 H211        3.4560   -2.6190    9.5850 h1        1 L08      0.065200
     45 H212        4.0690   -1.1550   10.4830 h1        1 L08      0.065200
     46 H221        3.3140   -0.6920    8.1250 h1        1 L08      0.052450
     47 H222        2.4990    0.3340    9.3930 h1        1 L08      0.052450
     48 H241        4.5190   -1.7290   12.6470 hc        1 L08      0.065700
     49 H242        3.9200   -0.0240   12.4040 hc        1 L08      0.065700
     50 H243        3.6630   -0.8620   13.9950 hc        1 L08      0.065700
     51 H17         2.5560   -1.0150    6.1220 ha        1 L08      0.148000
     52 H3          8.5470    2.3100    1.1760 ha        1 L08      0.143000
     53 H4          9.8710    0.2890    0.6230 ha        1 L08      0.138000
     54 H5          8.7250   -1.8080   -0.1070 ha        1 L08      0.142000
     55 H6          6.2420   -1.8710   -0.2810 ha        1 L08      0.150000
     56 H91         7.0980    3.6650    2.1580 h1        1 L08      0.041700
     57 H92         7.1220    3.9030    0.3390 h1        1 L08      0.041700
     58 H331        4.7320    4.7150    0.4250 hc        1 L08      0.053033
     59 H332        5.8090    5.7240    1.4900 hc        1 L08      0.053033
     60 H333        4.7050    4.4750    2.2190 hc        1 L08      0.053033
@<TRIPOS>BOND
     1    1    2 1   
     2    2    3 1   
     3    2   34 1   
     4    3    4 ar  
     5    3    8 ar  
     6    4    5 ar  
     7    4   24 1   
     8    5    6 ar  
     9    5   35 1   
    10    6    7 ar  
    11    6   36 1   
    12    7    8 ar  
    13    7    9 1   
    14    8   37 1   
    15    9   10 ar  
    16    9   23 ar  
    17   10   11 ar  
    18   10   38 1   
    19   11   12 ar  
    20   11   39 1   
    21   12   13 ar  
    22   13   14 1   
    23   13   23 ar  
    24   14   15 1   
    25   14   19 1   
    26   15   16 1   
    27   15   40 1   
    28   15   41 1   
    29   16   17 1   
    30   16   42 1   
    31   16   43 1   
    32   17   18 1   
    33   17   20 1   
    34   18   19 1   
    35   18   44 1   
    36   18   45 1   
    37   19   46 1   
    38   19   47 1   
    39   20   21 2   
    40   20   22 1   
    41   22   48 1   
    42   22   49 1   
    43   22   50 1   
    44   23   51 1   
    45   24   25 1   
    46   25   26 ar  
    47   25   30 ar  
    48   26   27 ar  
    49   26   31 1   
    50   27   28 ar  
    51   27   52 1   
    52   28   29 ar  
    53   28   53 1   
    54   29   30 ar  
    55   29   54 1   
    56   30   55 1   
    57   31   32 1   
    58   32   33 1   
    59   32   56 1   
    60   32   57 1   
    61   33   58 1   
    62   33   59 1   
    63   33   60 1   
@<TRIPOS>SUBSTRUCTURE
     1 L08         1 TEMP              0 ****  ****    0 ROOT
