@<TRIPOS>MOLECULE
L09
   50    52     1     0     0
SMALL
bcc


@<TRIPOS>ATOM
      1 C1         -0.4220    0.2240   -0.4750 c3        1 L09     -0.085100
      2 C2          1.0610    0.0620   -0.1680 c3        1 L09     -0.078300
      3 C3          1.2400   -0.1390    1.3330 c3        1 L09     -0.085100
      4 C4          1.5920   -1.1610   -0.9110 c3        1 L09     -0.085100
      5 C5          1.8530    1.2600   -0.5910 cc        1 L09      0.337600
      6 C6          3.2880    1.3950   -0.3990 cc        1 L09     -0.263300
      7 C7          3.6080    2.6520   -0.9420 cd        1 L09     -0.008700
      8 N8          4.8370    3.3160   -1.0060 ns        1 L09     -0.430100
      9 C9          6.0250    2.5650   -1.2260 c         1 L09      0.765100
     10 O10         6.0460    1.3300   -1.0500 o         1 L09     -0.587100
     11 N11         7.1670    3.2920   -1.6280 ns        1 L09     -0.459100
     12 C12         8.4650    2.7410   -1.6200 ca        1 L09      0.061600
     13 C13         8.7140    1.3850   -1.9110 ca        1 L09     -0.125000
     14 C14        10.0210    0.9120   -1.9580 ca        1 L09     -0.101000
     15 C15        11.0980    1.7700   -1.7260 ca        1 L09     -0.004600
     16 Cl16       12.6800    1.1480   -1.8000 cl        1 L09     -0.091400
     17 C17        10.8700    3.1250   -1.4350 ca        1 L09     -0.060300
     18 C18        12.0380    4.0230   -1.1870 c3        1 L09      0.170700
     19 O19        11.5490    5.3480   -0.9250 os        1 L09     -0.327900
     20 C20        12.5200    6.2900   -0.6600 ca        1 L09      0.010800
     21 C21        12.0480    7.5870   -0.3790 ca        1 L09     -0.123000
     22 C22        12.9840    8.5790   -0.1070 ca        1 L09     -0.213300
     23 C23        14.3540    8.2470   -0.1240 ca        1 L09      0.361200
     24 N24        14.8130    7.0110   -0.3900 nb        1 L09     -0.633000
     25 C25        13.9120    6.0470   -0.6540 ca        1 L09      0.327200
     26 C26         9.5620    3.6010   -1.3770 ca        1 L09     -0.148000
     27 N27         2.3900    3.1670   -1.4970 na        1 L09     -0.036600
     28 N28         1.3580    2.3700   -1.2010 nd        1 L09     -0.514800
     29 H1C1       -0.8390    1.1090    0.0620 hc        1 L09      0.039589
     30 H1C2       -0.5840    0.3600   -1.5710 hc        1 L09      0.039589
     31 H1C3       -0.9750   -0.6880   -0.1430 hc        1 L09      0.039589
     32 H3C1        2.3210   -0.2570    1.5840 hc        1 L09      0.039589
     33 H3C2        0.6930   -1.0560    1.6590 hc        1 L09      0.039589
     34 H3C3        0.8350    0.7380    1.8930 hc        1 L09      0.039589
     35 H4C1        1.0440   -2.0740   -0.5760 hc        1 L09      0.039589
     36 H4C2        2.6810   -1.2980   -0.7040 hc        1 L09      0.039589
     37 H4C3        1.4480   -1.0390   -2.0100 hc        1 L09      0.039589
     38 H6          3.9690    0.6720    0.0390 ha        1 L09      0.190000
     39 H8          4.8070    4.2490   -1.3550 hn        1 L09      0.305500
     40 H11         7.1440    4.2840   -1.5280 hn        1 L09      0.310500
     41 H13         7.8810    0.6850   -2.0930 ha        1 L09      0.177000
     42 H14        10.2030   -0.1510   -2.1840 ha        1 L09      0.154000
     43 H181       12.6210    3.6620   -0.2950 h1        1 L09      0.064200
     44 H182       12.7040    4.0500   -2.0930 h1        1 L09      0.064200
     45 H21        10.9690    7.7920   -0.3790 ha        1 L09      0.151000
     46 H22        12.6660    9.6050    0.1170 ha        1 L09      0.146000
     47 H23        15.1230    9.0100    0.0870 h4        1 L09      0.026100
     48 H25        14.3310    5.0490   -0.8670 h4        1 L09      0.029100
     49 H26         9.3990    4.6670   -1.1440 ha        1 L09      0.154000
     50 H27         2.2040    4.1370   -1.6230 hn        1 L09      0.299700
@<TRIPOS>BOND
     1    1    2 1   
     2    1   29 1   
     3    1   30 1   
     4    1   31 1   
     5    2    3 1   
     6    2    4 1   
     7    2    5 1   
     8    3   32 1   
     9    3   33 1   
    10    3   34 1   
    11    4   35 1   
    12    4   36 1   
    13    4   37 1   
    14    5    6 1   
    15    5   28 2   
    16    6    7 2   
    17    6   38 1   
    18    7    8 1   
    19    7   27 1   
    20    8    9 1   
    21    8   39 1   
    22    9   10 2   
    23    9   11 1   
    24   11   12 1   
    25   11   40 1   
    26   12   13 ar  
    27   12   26 ar  
    28   13   14 ar  
    29   13   41 1   
    30   14   15 ar  
    31   14   42 1   
    32   15   16 1   
    33   15   17 ar  
    34   17   18 1   
    35   17   26 ar  
    36   18   19 1   
    37   18   43 1   
    38   18   44 1   
    39   19   20 1   
    40   20   21 ar  
    41   20   25 ar  
    42   21   22 ar  
    43   21   45 1   
    44   22   23 ar  
    45   22   46 1   
    46   23   24 ar  
    47   23   47 1   
    48   24   25 ar  
    49   25   48 1   
    50   26   49 1   
    51   27   28 1   
    52   27   50 1   
@<TRIPOS>SUBSTRUCTURE
     1 L09         1 TEMP              0 ****  ****    0 ROOT
