@<TRIPOS>MOLECULE
L09
   50    45     1     0     0
SMALL
bcc


@<TRIPOS>ATOM
      1 C1         -7.5890   -2.2850    0.3940 c3        1 L09     -0.203000
      2 C2         -6.8160   -1.5950   -0.7030 c3        1 L09      0.021000
      3 C3         -6.5890   -2.5600   -1.8420 c3        1 L09     -0.203000
      4 C4         -7.6020   -0.4040   -1.2020 c3        1 L09     -0.203000
      5 C5         -5.4780   -1.1280   -0.1620 c2        1 L09     -0.091000
      6 C6         -4.5910   -0.3150   -0.8090 c1        1 L09     -0.262000
      7 C7         -3.4830   -0.1900   -0.0210 c1        1 L09      0.039000
      8 N8         -2.3210    0.5700   -0.3260 n2        1 L09     -0.294000
      9 C9         -1.0340   -0.0250   -0.2230 c2        1 L09      0.401000
     10 O10        -0.9280   -1.1840    0.1260 o         1 L09     -0.386000
     11 N11         0.1300    0.7550   -0.4600 n         1 L09     -0.312000
     12 C12         1.4190    0.1790   -0.2890 c2        1 L09      0.074000
     13 C13         1.6220   -1.1630   -0.5750 c2        1 L09     -0.125000
     14 C14         2.8810   -1.7220   -0.4180 c1        1 L09     -0.102000
     15 C15         3.9370   -0.9390    0.0260 c1        1 L09     -0.081000
     16 CL16        5.5100   -1.6530    0.2650 cl        1 L09     -0.012000
     17 C17         3.7340    0.4020    0.3120 c1        1 L09     -0.087000
     18 C18         4.8670    1.2350    0.8890 c2        1 L09      0.011000
     19 O19         5.9280    1.2890   -0.0360 os        1 L09     -0.204000
     20 C20         7.0600    1.9790    0.4360 c2        1 L09      0.017000
     21 C21         8.0300    1.3090    1.1240 c2        1 L09     -0.159000
     22 C22         9.1000    1.9890    1.6300 c1        1 L09     -0.145000
     23 C23         9.2000    3.3590    1.4460 c1        1 L09     -0.106000
     24 N24         8.2300    4.0270    0.7600 n1        1 L09     -0.114000
     25 C25         7.1620    3.3500    0.2530 c1        1 L09     -0.091000
     26 C26         2.4740    0.9610    0.1550 c2        1 L09     -0.154000
     27 N27        -3.6830   -0.9170    1.0990 n2        1 L09     -0.141000
     28 N28        -4.9240   -1.5000    1.0110 n2        1 L09     -0.079000
     29 H1C1       -7.0420   -3.0000    0.7790 hc        1 L09      0.078222
     30 H1C2       -7.8160   -1.6360    1.0910 hc        1 L09      0.078222
     31 H1C3       -8.4120   -2.6680    0.0230 hc        1 L09      0.078222
     32 H3C1       -6.2820   -2.0680   -2.6320 hc        1 L09      0.078222
     33 H3C2       -5.9090   -3.2170   -1.5830 hc        1 L09      0.078222
     34 H3C3       -7.4270   -3.0230   -2.0510 hc        1 L09      0.078222
     35 H4C1       -7.2100   -0.0820   -2.0400 hc        1 L09      0.078222
     36 H4C2       -7.5730    0.3100   -0.5310 hc        1 L09      0.078222
     37 H4C3       -8.5330   -0.6690   -1.3570 hc        1 L09      0.078222
     38 H6         -4.7410    0.1320   -1.6630 DU        1 L09      0.231000
     39 H8         -2.4000    1.4460   -0.5690 hn        1 L09      0.240000
     40 H11         0.0500    1.6290   -0.7080 hn        1 L09      0.230000
     41 H13         0.8790   -1.7130   -0.8880 ha        1 L09      0.178000
     42 H14         3.0250   -2.6660   -0.6200 ha        1 L09      0.155000
     43 H181        5.1800    0.8270    1.7230 h4        1 L09      0.119500
     44 H182        4.5450    2.1430    1.0710 h4        1 L09      0.119500
     45 H21         7.9590    0.3440    1.2530 ha        1 L09      0.151000
     46 H22         9.7940    1.5110    2.1220 ha        1 L09      0.146000
     47 H23         9.9640    3.8460    1.8080 ha        1 L09      0.162000
     48 H25         6.4690    3.8290   -0.2380 ha        1 L09      0.173000
     49 H26         2.3310    1.9050    0.3570 ha        1 L09      0.153000
     50 H27        -3.0970   -1.0060    1.7930 DU        1 L09      0.231000
@<TRIPOS>BOND
     1    1    2 1   
     2    1   29 1   
     3    1   30 1   
     4    1   31 1   
     5    2    3 1   
     6    2    4 1   
     7    2    5 1   
     8    3   32 1   
     9    3   33 1   
    10    3   34 1   
    11    4   35 1   
    12    4   36 1   
    13    4   37 1   
    14    5    6 1   
    15    5   28 1   
    16    6    7 1   
    17    7   27 1   
    18    8    9 1   
    19    8   39 1   
    20    9   10 1   
    21    9   11 1   
    22   11   12 1   
    23   11   40 1   
    24   12   13 1   
    25   12   26 1   
    26   13   14 1   
    27   13   41 1   
    28   14   42 1   
    29   15   16 1   
    30   15   17 1   
    31   17   26 1   
    32   18   19 1   
    33   18   43 1   
    34   18   44 1   
    35   19   20 1   
    36   20   21 1   
    37   20   25 1   
    38   21   22 1   
    39   21   45 1   
    40   22   46 1   
    41   23   24 1   
    42   23   47 1   
    43   25   48 1   
    44   26   49 1   
    45   27   28 1   
@<TRIPOS>SUBSTRUCTURE
     1 L09         1 TEMP              0 ****  ****    0 ROOT
