@<TRIPOS>MOLECULE
L09
   50    52     1     0     0
SMALL
bcc


@<TRIPOS>ATOM
      1 C1         -0.5890    0.5180    8.6300 c3        1 L09     -0.085100
      2 C2          0.1010    0.8730    7.3200 c3        1 L09     -0.078300
      3 C3          0.2240    2.3900    7.2160 c3        1 L09     -0.085100
      4 C4          1.4940    0.2490    7.3050 c3        1 L09     -0.085100
      5 C5         -0.6610    0.3710    6.1330 cc        1 L09      0.337600
      6 C6         -0.2540    0.5860    4.7540 cc        1 L09     -0.263300
      7 C7         -1.2400   -0.0530    3.9820 cd        1 L09     -0.008700
      8 N8         -1.3750   -0.1420    2.5930 n         1 L09     -0.430100
      9 C9         -0.2110   -0.2680    1.7850 c         1 L09      0.765100
     10 O10         0.9170    0.0140    2.2370 o         1 L09     -0.587100
     11 N11        -0.4070   -0.7030    0.4560 n         1 L09     -0.459100
     12 C12         0.5940   -0.6160   -0.5320 ca        1 L09      0.061600
     13 C13         1.9640   -0.7820   -0.2400 ca        1 L09     -0.125000
     14 C14         2.9010   -0.7570   -1.2670 ca        1 L09     -0.101000
     15 C15         2.5030   -0.5730   -2.5920 ca        1 L09     -0.004600
     16 CL16        3.6870   -0.5540   -3.8140 cl        1 L09     -0.091400
     17 C17         1.1440   -0.4060   -2.9030 ca        1 L09     -0.060300
     18 C18         0.7420   -0.2090   -4.3290 c3        1 L09      0.170700
     19 O19        -0.6880   -0.0780   -4.3870 os        1 L09     -0.327900
     20 C20        -1.2060    0.1250   -5.6480 ca        1 L09      0.010800
     21 C21        -2.6060    0.2750   -5.7120 ca        1 L09     -0.123000
     22 C22        -3.1850    0.4790   -6.9600 ca        1 L09     -0.213300
     23 C23        -2.3540    0.5280   -8.0970 ca        1 L09      0.361200
     24 N24        -1.0180    0.3870   -8.0450 nb        1 L09     -0.633000
     25 C25        -0.4520    0.1880   -6.8400 ca        1 L09      0.327200
     26 C26         0.2010   -0.4220   -1.8770 ca        1 L09     -0.148000
     27 N27        -2.1310   -0.6790    4.9140 na        1 L09     -0.036600
     28 N28        -1.8180   -0.3430    6.1700 nd        1 L09     -0.514800
     29 H1C1        0.0090    0.9120    9.4870 hc        1 L09      0.039589
     30 H1C2       -1.6090    0.9680    8.6710 hc        1 L09      0.039589
     31 H1C3       -0.6810   -0.5890    8.7380 hc        1 L09      0.039589
     32 H3C1       -0.7860    2.8640    7.2490 hc        1 L09      0.039589
     33 H3C2        0.8300    2.7790    8.0700 hc        1 L09      0.039589
     34 H3C3        0.7240    2.6750    6.2600 hc        1 L09      0.039589
     35 H4C1        1.4220   -0.8610    7.4020 hc        1 L09      0.039589
     36 H4C2        2.0180    0.4920    6.3490 hc        1 L09      0.039589
     37 H4C3        2.0950    0.6460    8.1570 hc        1 L09      0.039589
     38 H6          0.6330    1.1000    4.3970 ha        1 L09      0.190000
     39 H8         -2.2150   -0.5710    2.2670 hn        1 L09      0.305500
     40 H11        -1.3380   -0.6890    0.0970 hn        1 L09      0.310500
     41 H13         2.3040   -0.9230    0.7990 ha        1 L09      0.177000
     42 H14         3.9690   -0.8850   -1.0250 ha        1 L09      0.154000
     43 H181        1.2150    0.7250   -4.7380 h1        1 L09      0.064200
     44 H182        1.0540   -1.0970   -4.9440 h1        1 L09      0.064200
     45 H21        -3.2070    0.2290   -4.7940 ha        1 L09      0.151000
     46 H22        -4.2710    0.6020   -7.0610 ha        1 L09      0.146000
     47 H23        -2.7810    0.6890   -9.1020 h4        1 L09      0.026100
     48 H25         0.6460    0.0770   -6.8430 h4        1 L09      0.029100
     49 H26        -0.8620   -0.2860   -2.1370 ha        1 L09      0.154000
     50 H27        -3.0840   -0.8910    4.7160 hn        1 L09      0.299700
@<TRIPOS>BOND
     1    1    2 1   
     2    1   29 1   
     3    1   30 1   
     4    1   31 1   
     5    2    3 1   
     6    2    4 1   
     7    2    5 1   
     8    3   32 1   
     9    3   33 1   
    10    3   34 1   
    11    4   35 1   
    12    4   36 1   
    13    4   37 1   
    14    5    6 1   
    15    5   28 2   
    16    6    7 2   
    17    6   38 1   
    18    7    8 1   
    19    7   27 1   
    20    8    9 1   
    21    8   39 1   
    22    9   10 2   
    23    9   11 1   
    24   11   12 1   
    25   11   40 1   
    26   12   13 ar  
    27   12   26 ar  
    28   13   14 ar  
    29   13   41 1   
    30   14   15 ar  
    31   14   42 1   
    32   15   16 1   
    33   15   17 ar  
    34   17   18 1   
    35   17   26 ar  
    36   18   19 1   
    37   18   43 1   
    38   18   44 1   
    39   19   20 1   
    40   20   21 ar  
    41   20   25 ar  
    42   21   22 ar  
    43   21   45 1   
    44   22   23 ar  
    45   22   46 1   
    46   23   24 ar  
    47   23   47 1   
    48   24   25 ar  
    49   25   48 1   
    50   26   49 1   
    51   27   28 1   
    52   27   50 1   
@<TRIPOS>SUBSTRUCTURE
     1 L09         1 TEMP              0 ****  ****    0 ROOT
