@<TRIPOS>MOLECULE
L09
   50    52     1     0     0
SMALL
bcc


@<TRIPOS>ATOM
      1 C1         -0.4220    0.2220   -0.4750 c3        1 L09     -0.085100
      2 C2          1.0610    0.0620   -0.1670 c3        1 L09     -0.078300
      3 C3          1.2380   -0.1350    1.3360 c3        1 L09     -0.085100
      4 C4          1.5940   -1.1630   -0.9050 c3        1 L09     -0.085100
      5 C5          1.8530    1.2590   -0.5910 cc        1 L09      0.337600
      6 C6          3.2880    1.3950   -0.3980 cc        1 L09     -0.263300
      7 C7          3.6080    2.6510   -0.9450 cd        1 L09     -0.008700
      8 N8          4.8370    3.3150   -1.0090 n         1 L09     -0.430100
      9 C9          6.0260    2.5630   -1.2250 c         1 L09      0.765100
     10 O10         6.0470    1.3290   -1.0450 o         1 L09     -0.587100
     11 N11         7.1680    3.2900   -1.6290 n         1 L09     -0.459100
     12 C12         8.4660    2.7400   -1.6180 ca        1 L09      0.061600
     13 C13         8.7160    1.3820   -1.9050 ca        1 L09     -0.125000
     14 C14        10.0230    0.9100   -1.9500 ca        1 L09     -0.101000
     15 C15        11.0990    1.7690   -1.7190 ca        1 L09     -0.004600
     16 CL16       12.6810    1.1470   -1.7900 cl        1 L09     -0.091400
     17 C17        10.8710    3.1250   -1.4320 ca        1 L09     -0.060300
     18 C18        12.0380    4.0240   -1.1860 c3        1 L09      0.171700
     19 O19        11.5480    5.3490   -0.9280 os        1 L09     -0.327900
     20 C20        12.5190    6.2920   -0.6640 ca        1 L09      0.010800
     21 C21        12.0460    7.5890   -0.3870 ca        1 L09     -0.123000
     22 C22        12.9820    8.5820   -0.1160 ca        1 L09     -0.213300
     23 C23        14.3520    8.2500   -0.1310 ca        1 L09      0.361200
     24 N24        14.8120    7.0150   -0.3950 nb        1 L09     -0.633000
     25 C25        13.9110    6.0500   -0.6570 ca        1 L09      0.327200
     26 C26         9.5620    3.6000   -1.3770 ca        1 L09     -0.148000
     27 N27         2.3910    3.1640   -1.5020 na        1 L09     -0.036600
     28 N28         1.3590    2.3670   -1.2060 nd        1 L09     -0.514800
     29 H1C1       -0.8400    1.1090    0.0580 hc        1 L09      0.039589
     30 H1C2       -0.9750   -0.6890   -0.1420 hc        1 L09      0.039589
     31 H1C3       -0.5820    0.3550   -1.5720 hc        1 L09      0.039589
     32 H3C1        2.3190   -0.2510    1.5880 hc        1 L09      0.039589
     33 H3C2        0.6910   -1.0510    1.6640 hc        1 L09      0.039589
     34 H3C3        0.8320    0.7430    1.8920 hc        1 L09      0.039589
     35 H4C1        1.0460   -2.0750   -0.5680 hc        1 L09      0.039589
     36 H4C2        2.6820   -1.2980   -0.6970 hc        1 L09      0.039589
     37 H4C3        1.4510   -1.0440   -2.0050 hc        1 L09      0.039589
     38 H6          3.9690    0.6740    0.0420 ha        1 L09      0.190000
     39 H8          4.8070    4.2470   -1.3610 hn        1 L09      0.305500
     40 H11         7.1440    4.2820   -1.5310 hn        1 L09      0.310500
     41 H13         7.8830    0.6820   -2.0860 ha        1 L09      0.177000
     42 H14        10.2050   -0.1540   -2.1720 ha        1 L09      0.154000
     43 H181       12.6200    3.6650   -0.2930 h1        1 L09      0.064200
     44 H182       12.7050    4.0480   -2.0920 h1        1 L09      0.064200
     45 H21        10.9670    7.7940   -0.3880 ha        1 L09      0.151000
     46 H22        12.6630    9.6090    0.1060 ha        1 L09      0.146000
     47 H23        15.1200    9.0150    0.0800 h4        1 L09      0.026100
     48 H25        14.3310    5.0520   -0.8680 h4        1 L09      0.029100
     49 H26         9.3990    4.6670   -1.1470 ha        1 L09      0.154000
     50 H27         2.2050    4.1330   -1.6310 hn        1 L09      0.299700
@<TRIPOS>BOND
     1    1    2 1   
     2    1   29 1   
     3    1   30 1   
     4    1   31 1   
     5    2    3 1   
     6    2    4 1   
     7    2    5 1   
     8    3   32 1   
     9    3   33 1   
    10    3   34 1   
    11    4   35 1   
    12    4   36 1   
    13    4   37 1   
    14    5    6 1   
    15    5   28 2   
    16    6    7 2   
    17    6   38 1   
    18    7    8 1   
    19    7   27 1   
    20    8    9 1   
    21    8   39 1   
    22    9   10 2   
    23    9   11 1   
    24   11   12 1   
    25   11   40 1   
    26   12   13 ar  
    27   12   26 ar  
    28   13   14 ar  
    29   13   41 1   
    30   14   15 ar  
    31   14   42 1   
    32   15   16 1   
    33   15   17 ar  
    34   17   18 1   
    35   17   26 ar  
    36   18   19 1   
    37   18   43 1   
    38   18   44 1   
    39   19   20 1   
    40   20   21 ar  
    41   20   25 ar  
    42   21   22 ar  
    43   21   45 1   
    44   22   23 ar  
    45   22   46 1   
    46   23   24 ar  
    47   23   47 1   
    48   24   25 ar  
    49   25   48 1   
    50   26   49 1   
    51   27   28 1   
    52   27   50 1   
@<TRIPOS>SUBSTRUCTURE
     1 L09         1 TEMP              0 ****  ****    0 ROOT
