@<TRIPOS>MOLECULE
L09
   52    54     1     0     0
SMALL
bcc


@<TRIPOS>ATOM
      1 C1          1.0790    1.8810   -0.7040 c3        1 L09     -0.100100
      2 C2          2.0660    0.7860   -0.3240 c3        1 L09     -0.090300
      3 C3          1.9200    0.4630    1.1600 c3        1 L09     -0.100100
      4 C4          1.7830   -0.4640   -1.1510 c3        1 L09     -0.100100
      5 C5          3.4700    1.2510   -0.5910 cc        1 L09      0.381600
      6 C6          3.8490    2.5540   -1.1270 cc        1 L09     -0.112300
      7 C7          5.2570    2.5150   -1.1750 cd        1 L09     -0.227700
      8 N8          6.1640    3.5190   -1.6700 n4        1 L09     -0.450200
      9 C9          6.5960    3.2190   -3.0800 c         1 L09      0.488100
     10 O10         6.3340    3.9840   -3.9920 o         1 L09     -0.291100
     11 N11         7.3450    1.9470   -3.3200 n4        1 L09     -0.486200
     12 C12         8.4140    1.7380   -2.3360 ca        1 L09     -0.140400
     13 C13         8.6820    0.4430   -1.8590 ca        1 L09     -0.080000
     14 C14         9.7490    0.2630   -0.9840 ca        1 L09     -0.099000
     15 C15        10.5260    1.3500   -0.5510 ca        1 L09      0.076400
     16 CL16       11.7980    1.0740    0.5040 cl        1 L09      0.059600
     17 C17        10.2260    2.6520   -1.0100 ca        1 L09     -0.037300
     18 C18        10.9760    3.8540   -0.5220 c3        1 L09      0.153700
     19 O19        10.0940    4.9790   -0.6910 os        1 L09     -0.389900
     20 C20        10.6220    6.1600   -0.1760 ca        1 L09     -0.080200
     21 C21        11.5080    6.9440   -0.9300 ca        1 L09     -0.096000
     22 C22        11.8980    8.1720   -0.3990 ca        1 L09     -0.217300
     23 C23        11.3910    8.5610    0.8580 ca        1 L09      0.424200
     24 N24        10.5440    7.8070    1.5860 nb        1 L09     -0.632000
     25 C25        10.1700    6.6190    1.0800 ca        1 L09      0.396200
     26 C26         9.2000    2.8340   -1.9360 ca        1 L09     -0.130000
     27 N27         5.6640    1.1960   -0.7680 na        1 L09     -0.019600
     28 N28         4.5930    0.5130   -0.3620 nd        1 L09     -0.400800
     29 H1C1        0.0380    1.5260   -0.4970 hc        1 L09      0.058811
     30 H1C2        1.2560    2.8040   -0.1020 hc        1 L09      0.058811
     31 H1C3        1.1520    2.1260   -1.7910 hc        1 L09      0.058811
     32 H3C1        0.8660    0.1540    1.3660 hc        1 L09      0.058811
     33 H3C2        2.5960   -0.3760    1.4530 hc        1 L09      0.058811
     34 H3C3        2.1550    1.3580    1.7840 hc        1 L09      0.058811
     35 H4C1        0.7280   -0.7900   -0.9730 hc        1 L09      0.058811
     36 H4C2        1.9090   -0.2560   -2.2390 hc        1 L09      0.058811
     37 H4C3        2.4620   -1.2990   -0.8550 hc        1 L09      0.058811
     38 H6          3.1660    3.3510   -1.4260 ha        1 L09      0.219000
     39 H8          5.6660    4.4350   -1.6790 hn        1 L09      0.519300
     40 H11         6.6860    1.1470   -3.3010 hn        1 L09      0.511800
     41 H13         8.0870   -0.4340   -2.1720 ha        1 L09      0.181000
     42 H14         9.9860   -0.7600   -0.6280 ha        1 L09      0.209000
     43 H181       11.9060    4.0130   -1.1340 h1        1 L09      0.095700
     44 H182       11.2490    3.7510    0.5630 h1        1 L09      0.095700
     45 H21        11.8800    6.5980   -1.9050 ha        1 L09      0.150000
     46 H22        12.5910    8.8300   -0.9450 ha        1 L09      0.172000
     47 H23        11.6810    9.5300    1.3120 h4        1 L09      0.055100
     48 H25         9.4840    6.0150    1.6980 h4        1 L09      0.024100
     49 H26         9.0540    3.8480   -2.3550 ha        1 L09      0.177000
     50 H27         6.5190    1.0310   -0.2640 hn        1 L09      0.331700
     51 H82         7.0060    3.5970   -1.0630 hn        1 L09      0.519300
     52 H112        7.7640    2.0100   -4.2720 hn        1 L09      0.511800
@<TRIPOS>BOND
     1    1    2 1   
     2    1   29 1   
     3    1   30 1   
     4    1   31 1   
     5    2    3 1   
     6    2    4 1   
     7    2    5 1   
     8    3   32 1   
     9    3   33 1   
    10    3   34 1   
    11    4   35 1   
    12    4   36 1   
    13    4   37 1   
    14    5    6 1   
    15    5   28 2   
    16    6    7 2   
    17    6   38 1   
    18    7    8 1   
    19    7   27 1   
    20    8    9 1   
    21    8   39 1   
    22    8   51 1   
    23    9   10 2   
    24    9   11 1   
    25   11   12 1   
    26   11   40 1   
    27   11   52 1   
    28   12   13 ar  
    29   12   26 ar  
    30   13   14 ar  
    31   13   41 1   
    32   14   15 ar  
    33   14   42 1   
    34   15   16 1   
    35   15   17 ar  
    36   17   18 1   
    37   17   26 ar  
    38   18   19 1   
    39   18   43 1   
    40   18   44 1   
    41   19   20 1   
    42   20   21 ar  
    43   20   25 ar  
    44   21   22 ar  
    45   21   45 1   
    46   22   23 ar  
    47   22   46 1   
    48   23   24 ar  
    49   23   47 1   
    50   24   25 ar  
    51   25   48 1   
    52   26   49 1   
    53   27   28 1   
    54   27   50 1   
@<TRIPOS>SUBSTRUCTURE
     1 L09         1 TEMP              0 ****  ****    0 ROOT
