@<TRIPOS>MOLECULE
L0B
   52    54     1     0     0
SMALL
bcc


@<TRIPOS>ATOM
      1 O1          2.0210    0.0210   -2.3010 o         1 L0B     -0.524100
      2 C3          2.6430   -0.3270   -1.2900 c         1 L0B      0.589700
      3 C21        -5.7990    2.0220   -0.9240 ca        1 L0B     -0.130000
      4 C10        -5.2440    2.7080    0.1550 ca        1 L0B     -0.129000
      5 C19        -4.0520    2.2680    0.7290 ca        1 L0B     -0.124000
      6 C17        -3.4080    1.1300    0.2330 ca        1 L0B     -0.116300
      7 C18        -3.9640    0.4510   -0.8590 ca        1 L0B     -0.124000
      8 C20        -5.1530    0.8940   -1.4320 ca        1 L0B     -0.129000
      9 C11        -1.1910   -1.6790    0.2590 c3        1 L0B      0.182500
     10 C13        -1.3670   -3.1570    0.6580 c3        1 L0B     -0.111400
     11 C15        -0.5060   -4.0580   -0.1990 c3        1 L0B     -0.075400
     12 C12         0.9350   -3.5940   -0.2130 c3        1 L0B     -0.109400
     13 C9          1.0100   -2.1080   -0.5990 c3        1 L0B      0.183500
     14 N1          0.2050   -1.2230    0.2520 n3        1 L0B     -0.714600
     15 C22         0.7530   -0.9740    1.5650 c3        1 L0B      0.136100
     16 C8          2.4860   -1.7040   -0.7030 c3        1 L0B     -0.174400
     17 C16        -2.1070    0.6540    0.8190 c3        1 L0B      0.180400
     18 O2         -1.7450    1.3830    1.9840 oh        1 L0B     -0.594800
     19 C4          4.7830    0.1070   -0.0540 ca        1 L0B     -0.088000
     20 C1          3.5890    0.5840   -0.6070 ca        1 L0B     -0.166600
     21 C2          3.2860    1.9490   -0.5300 ca        1 L0B     -0.088000
     22 C5          4.1610    2.8240    0.1120 ca        1 L0B     -0.140000
     23 C6          5.3480    2.3450    0.6640 ca        1 L0B     -0.109000
     24 C7          5.6600    0.9880    0.5760 ca        1 L0B     -0.140000
     25 H81C        2.9930   -2.4300   -1.3950 hc        1 L0B      0.066700
     26 H82C        2.9890   -1.7790    0.2940 hc        1 L0B      0.066700
     27 H2          2.3520    2.3200   -0.9830 ha        1 L0B      0.142500
     28 H4          5.0380   -0.9610   -0.1260 ha        1 L0B      0.142500
     29 H5          3.9140    3.8940    0.1770 ha        1 L0B      0.136000
     30 H6          6.0400    3.0360    1.1680 ha        1 L0B      0.133000
     31 H7          6.6010    0.6110    1.0050 ha        1 L0B      0.136000
     32 H9          0.5700   -1.9960   -1.6390 h1        1 L0B      0.076700
     33 H121        1.3990   -3.7490    0.7950 hc        1 L0B      0.045200
     34 H122        1.5190   -4.1970   -0.9540 hc        1 L0B      0.045200
     35 H151       -0.5600   -5.1090    0.1870 hc        1 L0B      0.042200
     36 H152       -0.9040   -4.0650   -1.2480 hc        1 L0B      0.042200
     37 H131       -1.0970   -3.2870    1.7380 hc        1 L0B      0.045700
     38 H132       -2.4440   -3.4400    0.5410 hc        1 L0B      0.045700
     39 H11        -1.5400   -1.5690   -0.8140 h1        1 L0B      0.058700
     40 H141       -3.1710   -1.2480    0.9800 hc        1 L0B      0.052700
     41 H142       -1.8790   -0.9980    2.2160 hc        1 L0B      0.052700
     42 H221        0.8040   -1.8880    2.2160 h1        1 L0B      0.038367
     43 H222        1.7860   -0.5510    1.4580 h1        1 L0B      0.038367
     44 H223        0.1200   -0.1970    2.0750 h1        1 L0B      0.038367
     45 H16        -1.2780    0.9030    0.0910 h1        1 L0B      0.113700
     46 HA         -2.4310    1.2310    2.6460 ho        1 L0B      0.394000
     47 H18        -3.4520   -0.4340   -1.2680 ha        1 L0B      0.136500
     48 H19        -3.6070    2.8290    1.5660 ha        1 L0B      0.136500
     49 H20        -5.5820    0.3550   -2.2900 ha        1 L0B      0.131000
     50 H10        -5.7440    3.6030    0.5530 ha        1 L0B      0.131000
     51 C14        -2.1350   -0.8450    1.1330 c3        1 L0B     -0.106400
     52 H21        -6.7380    2.3700   -1.3770 ha        1 L0B      0.131000
@<TRIPOS>BOND
     1    1    2 2   
     2    2   16 1   
     3    2   20 1   
     4    3    4 ar  
     5    3    8 ar  
     6    3   52 1   
     7    4    5 ar  
     8    4   50 1   
     9    5    6 ar  
    10    5   48 1   
    11    6    7 ar  
    12    6   17 1   
    13    7    8 ar  
    14    7   47 1   
    15    8   49 1   
    16    9   10 1   
    17    9   14 1   
    18    9   39 1   
    19    9   51 1   
    20   10   11 1   
    21   10   37 1   
    22   10   38 1   
    23   11   12 1   
    24   11   35 1   
    25   11   36 1   
    26   12   13 1   
    27   12   33 1   
    28   12   34 1   
    29   13   14 1   
    30   13   16 1   
    31   13   32 1   
    32   14   15 1   
    33   15   42 1   
    34   15   43 1   
    35   15   44 1   
    36   16   25 1   
    37   16   26 1   
    38   17   18 1   
    39   17   45 1   
    40   17   51 1   
    41   18   46 1   
    42   19   20 ar  
    43   19   24 ar  
    44   19   28 1   
    45   20   21 ar  
    46   21   22 ar  
    47   21   27 1   
    48   22   23 ar  
    49   22   29 1   
    50   23   24 ar  
    51   23   30 1   
    52   24   31 1   
    53   40   51 1   
    54   41   51 1   
@<TRIPOS>SUBSTRUCTURE
     1 L0B         1 TEMP              0 ****  ****    0 ROOT
