@<TRIPOS>MOLECULE
L0B
   52    49     1     0     0
SMALL
bcc


@<TRIPOS>ATOM
      1 O1         -0.2340    0.5630    0.2530 o         1 L0B     -0.308000
      2 C3          0.9870    0.4540    0.0690 c2        1 L0B      0.287000
      3 C21        -6.4310    5.8210    0.8480 c2        1 L0B     -0.261000
      4 C10        -1.9000    4.8740    0.8320 c1        1 L0B     -0.192000
      5 C19        -2.3130    4.2610    1.8180 c1        1 L0B     -0.641000
      6 C17        -2.7500    3.5270    2.9140 c2        1 L0B      0.139000
      7 C18        -5.5820    3.5780    1.4900 c1        1 L0B     -0.026000
      8 C20        -5.4800    4.9180    1.0960 c2        1 L0B     -0.233000
      9 C11        -0.2630    1.3130    4.2370 c3        1 L0B     -0.003000
     10 C13         0.6430    0.8310    5.3680 c3        1 L0B     -0.175000
     11 C15         1.4100   -0.4140    4.9760 c3        1 L0B     -0.172000
     12 C12         2.1530   -0.2360    3.6690 c3        1 L0B     -0.173000
     13 C9          1.2140    0.2650    2.5690 c3        1 L0B     -0.059000
     14 N1          0.5270    1.5470    2.9500 n4        1 L0B      0.001000
     15 C22         1.4510    2.6960    3.0760 c3        1 L0B     -0.187000
     16 C8          1.9440    0.3440    1.2280 c3        1 L0B     -0.228000
     17 C16        -1.9170    3.0410    3.8110 c1        1 L0B     -0.236000
     18 O2          0.2110    3.0540    0.4930 oh        1 L0B     -0.476000
     19 C4          2.8330    0.2220   -1.5390 c1        1 L0B     -0.059000
     20 C1          1.5640    0.4100   -1.2820 c2        1 L0B     -0.150000
     21 C2         -1.6570    0.5890   -2.7370 c1        1 L0B     -0.225500
     22 C5         -1.8130    0.3740   -3.9030 c1        1 L0B     -0.225500
     23 C6          5.2960   -0.1390   -2.1640 c2        1 L0B     -0.096000
     24 C7          4.0470    0.0420   -1.8440 c1        1 L0B     -0.134000
     25 H81C       -0.1500    1.7930    2.1920 hn        1 L0B      0.297000
     26 H82C        2.6570    1.2090    1.1920 hc        1 L0B      0.133500
     27 H2         -1.5270    0.7840   -1.6980 ha        1 L0B      0.225500
     28 H4          0.8330    0.5600   -2.1040 ha        1 L0B      0.186000
     29 H5          5.6310   -0.1500   -3.2130 ha        1 L0B      0.141500
     30 H6         -1.9550    0.1880   -4.9370 ha        1 L0B      0.225500
     31 H7          6.0810   -0.2880   -1.4080 ha        1 L0B      0.141500
     32 H9          2.5480   -0.5950    1.1030 hc        1 L0B      0.133500
     33 H121        0.3750   -0.4930    2.4500 hx        1 L0B      0.139000
     34 H122        3.0150    0.4680    3.8000 hc        1 L0B      0.104000
     35 H151        2.5750   -1.2230    3.3400 hc        1 L0B      0.104000
     36 H152        2.1410   -0.6720    5.7860 hc        1 L0B      0.099000
     37 H131        0.6970   -1.2760    4.8830 hc        1 L0B      0.099000
     38 H132        1.3500    1.6450    5.6740 hc        1 L0B      0.111500
     39 H11        -0.0140    0.6120    6.2520 hc        1 L0B      0.111500
     40 H141       -0.9980    0.4910    3.9780 hx        1 L0B      0.125000
     41 H142       -0.7150    3.0280    5.5590 ha        1 L0B      0.136000
     42 H221        0.8620    3.5870    3.4310 hx        1 L0B      0.133333
     43 H222        2.2660    2.4640    3.8070 hx        1 L0B      0.133333
     44 H223        1.8840    2.9370    2.0680 hx        1 L0B      0.133333
     45 H16         0.1600    4.0110    0.6410 ho        1 L0B      0.237500
     46 HA         -0.6590    2.8550    0.1220 ho        1 L0B      0.237500
     47 H18        -5.5390    2.7810    0.7370 ha        1 L0B      0.071000
     48 H19        -3.8430    3.3200    3.0020 ha        1 L0B      0.160000
     49 H20        -4.3890    5.2140    1.1150 ha        1 L0B      0.225000
     50 H10        -6.1910    6.8720    0.6480 ha        1 L0B      0.108000
     51 C14        -1.0060    2.5590    4.6090 c2        1 L0B     -0.225000
     52 H21        -7.4980    5.5720    0.8370 ha        1 L0B      0.108000
@<TRIPOS>BOND
     1    1    2 1   
     2    2   16 1   
     3    2   20 1   
     4    3    8 1   
     5    3   50 1   
     6    3   52 1   
     7    4    5 1   
     8    5    6 1   
     9    6   17 1   
    10    6   48 1   
    11    7    8 1   
    12    7   47 1   
    13    8   49 1   
    14    9   10 1   
    15    9   14 1   
    16    9   40 1   
    17    9   51 1   
    18   10   11 1   
    19   10   38 1   
    20   10   39 1   
    21   11   12 1   
    22   11   36 1   
    23   11   37 1   
    24   12   13 1   
    25   12   34 1   
    26   12   35 1   
    27   13   14 1   
    28   13   16 1   
    29   13   33 1   
    30   14   15 1   
    31   14   25 1   
    32   15   42 1   
    33   15   43 1   
    34   15   44 1   
    35   16   26 1   
    36   16   32 1   
    37   17   51 1   
    38   18   45 1   
    39   18   46 1   
    40   19   20 1   
    41   19   24 1   
    42   20   28 1   
    43   21   22 1   
    44   21   27 1   
    45   22   30 1   
    46   23   24 1   
    47   23   29 1   
    48   23   31 1   
    49   41   51 1   
@<TRIPOS>SUBSTRUCTURE
     1 L0B         1 TEMP              0 ****  ****    0 ROOT
