@<TRIPOS>MOLECULE
L0B
   52    49     1     0     0
SMALL
bcc


@<TRIPOS>ATOM
      1 O1         -0.0570   -0.1760    0.1400 o         1 L0B     -0.310000
      2 C3          1.0970    0.2750    0.1100 c2        1 L0B      0.282000
      3 C21        -3.9710    4.9930   -0.3010 c2        1 L0B     -0.391000
      4 C10        -3.9400    3.9870    0.5450 c1        1 L0B     -0.022000
      5 C19        -3.8950    3.0270    1.3370 c1        1 L0B     -0.465000
      6 C17        -3.9310    2.0300    2.2440 c2        1 L0B      0.158000
      7 C18        -2.4480    6.0760    2.8550 c2        1 L0B     -0.525000
      8 C20        -1.3950    5.4310    3.2510 c1        1 L0B      0.091000
      9 C11        -0.9490    0.7900    4.0260 c3        1 L0B     -0.014000
     10 C13        -0.0770    0.8320    5.2790 c3        1 L0B     -0.176000
     11 C15         1.1520   -0.0360    5.1180 c3        1 L0B     -0.170000
     12 C12         1.9270    0.3040    3.8630 c3        1 L0B     -0.171000
     13 C9          1.0190    0.3120    2.6290 c3        1 L0B     -0.060000
     14 N1         -0.1650    1.2230    2.7950 n4        1 L0B      0.005000
     15 C22         0.2070    2.6550    2.8410 c3        1 L0B     -0.195000
     16 C8          1.8390    0.6150    1.3740 c3        1 L0B     -0.229000
     17 C16        -3.0150    1.7830    3.1860 c1        1 L0B     -0.400000
     18 O2         -1.0700    2.1440    0.2050 oh        1 L0B     -0.455000
     19 C4          3.0480    0.8870   -1.2560 c1        1 L0B     -0.055000
     20 C1          1.8050    0.4890   -1.1600 c2        1 L0B     -0.157000
     21 C2         -1.1260   -0.4240   -2.9770 c1        1 L0B     -0.225000
     22 C5         -1.1870   -0.4410   -4.1720 c1        1 L0B     -0.225000
     23 C6          5.4750    1.6640   -1.5610 c2        1 L0B     -0.093000
     24 C7          4.2440    1.2680   -1.4040 c1        1 L0B     -0.135000
     25 H81C       -0.7960    1.1000    1.9710 hn        1 L0B      0.293000
     26 H82C        2.1500    1.6920    1.3380 hc        1 L0B      0.133500
     27 H2         -1.0820   -0.4110   -1.9130 ha        1 L0B      0.225000
     28 H4          1.1990    0.2940   -2.0690 ha        1 L0B      0.182000
     29 H5          5.9190    1.8020   -2.5600 ha        1 L0B      0.142500
     30 H6         -1.2440   -0.4520   -5.2310 ha        1 L0B      0.225000
     31 H7          6.1350    1.8830   -0.7080 ha        1 L0B      0.142500
     32 H9          2.7760   -0.0040    1.4110 hc        1 L0B      0.133500
     33 H121        0.5790   -0.7280    2.5070 hx        1 L0B      0.137000
     34 H122        2.7260   -0.4660    3.6950 hc        1 L0B      0.102000
     35 H151        2.4370    1.2950    3.9780 hc        1 L0B      0.102000
     36 H152        0.8430   -1.1150    5.0820 hc        1 L0B      0.096000
     37 H131        1.8200    0.0900    6.0100 hc        1 L0B      0.096000
     38 H132       -0.6980    0.4600    6.1360 hc        1 L0B      0.111500
     39 H11         0.2160    1.8890    5.5100 hc        1 L0B      0.111500
     40 H141       -1.2400   -0.2850    3.8190 hx        1 L0B      0.113000
     41 H142       -2.3360    2.0380    5.1830 ha        1 L0B      0.115000
     42 H221        1.0740    2.8140    3.5290 hx        1 L0B      0.138333
     43 H222       -0.6740    3.2590    3.2120 hx        1 L0B      0.138333
     44 H223        0.4600    3.0000    1.8030 hx        1 L0B      0.138333
     45 H16        -1.7650    2.7800    0.4320 ho        1 L0B      0.229000
     46 HA         -1.5170    1.5200   -0.3760 ho        1 L0B      0.229000
     47 H18        -2.7270    7.1110    3.0950 ha        1 L0B      0.216000
     48 H19        -4.7790    1.3130    2.1720 ha        1 L0B      0.129000
     49 H20        -3.1970    5.5760    2.1930 ha        1 L0B      0.216000
     50 H10        -4.7680    5.1010   -1.0430 ha        1 L0B      0.106500
     51 C14        -2.1980    1.6130    4.1760 c2        1 L0B     -0.171000
     52 H21        -3.2020    5.7720   -0.3060 ha        1 L0B      0.106500
@<TRIPOS>BOND
     1    1    2 1   
     2    2   16 1   
     3    2   20 1   
     4    3    4 1   
     5    3   50 1   
     6    3   52 1   
     7    4    5 1   
     8    5    6 1   
     9    6   17 1   
    10    6   48 1   
    11    7    8 1   
    12    7   47 1   
    13    7   49 1   
    14    9   10 1   
    15    9   14 1   
    16    9   40 1   
    17    9   51 1   
    18   10   11 1   
    19   10   38 1   
    20   10   39 1   
    21   11   12 1   
    22   11   36 1   
    23   11   37 1   
    24   12   13 1   
    25   12   34 1   
    26   12   35 1   
    27   13   14 1   
    28   13   16 1   
    29   13   33 1   
    30   14   15 1   
    31   14   25 1   
    32   15   42 1   
    33   15   43 1   
    34   15   44 1   
    35   16   26 1   
    36   16   32 1   
    37   17   51 1   
    38   18   45 1   
    39   18   46 1   
    40   19   20 1   
    41   19   24 1   
    42   20   28 1   
    43   21   22 1   
    44   21   27 1   
    45   22   30 1   
    46   23   24 1   
    47   23   29 1   
    48   23   31 1   
    49   41   51 1   
@<TRIPOS>SUBSTRUCTURE
     1 L0B         1 TEMP              0 ****  ****    0 ROOT
