@<TRIPOS>MOLECULE
L0B
   52    46     1     0     0
SMALL
bcc


@<TRIPOS>ATOM
      1 O1          4.0040   -0.2040   -0.4940 o         1 L0B     -0.301000
      2 C3          3.4500   -1.1110   -1.0880 c1        1 L0B      0.267000
      3 C21        -6.5960    1.5890    2.6470 c1        1 L0B     -0.123500
      4 C10        -5.7160    0.5720    2.9670 c1        1 L0B     -0.123500
      5 C19        -4.3510    0.7010    2.6570 c1        1 L0B     -0.123500
      6 C17        -3.8870    1.8490    2.0310 c1        1 L0B     -0.140000
      7 C18        -4.7820    2.8830    1.7060 c1        1 L0B     -0.098000
      8 C20        -6.1240    2.7560    2.0100 c1        1 L0B     -0.123500
      9 C14        -2.1190    1.3120    0.3860 c3        1 L0B     -0.150000
     10 C11        -0.5710    1.1740    0.2010 c3        1 L0B     -0.003000
     11 C13        -0.1050    2.3130   -0.2800 c3        1 L0B     -0.151000
     12 C15         0.7720    2.1520   -1.1370 c3        1 L0B     -0.149000
     13 C12         1.7710    1.2810   -1.1150 c3        1 L0B     -0.161000
     14 C9          1.3980   -0.0760   -0.5850 c3        1 L0B     -0.005000
     15 N1         -0.2880   -0.0770   -0.7310 n3        1 L0B     -0.267000
     16 C22        -0.8440   -1.3080   -0.0950 c3        1 L0B     -0.118000
     17 C8          1.9440   -1.0550   -1.3340 c3        1 L0B     -0.205000
     18 C16        -2.4140    1.9910    1.7090 c2        1 L0B      0.068000
     19 O2         -1.6570    1.3930    2.7190 oh        1 L0B     -0.326000
     20 C4          3.8260   -3.1530   -2.6070 c1        1 L0B     -0.123500
     21 C1          4.2640   -2.3720   -1.5230 c1        1 L0B     -0.140000
     22 C2          5.4160   -2.7250   -0.8350 c1        1 L0B     -0.098000
     23 C5          6.1430   -3.8610   -1.2200 c1        1 L0B     -0.123500
     24 C6          5.7090   -4.6380   -2.2950 c1        1 L0B     -0.123500
     25 C7          4.5500   -4.2840   -2.9890 c1        1 L0B     -0.123500
     26 H81C        1.5430   -1.9100   -1.0910 hc        1 L0B      0.114000
     27 H82C        1.7730   -0.8710   -2.2940 hc        1 L0B      0.114000
     28 H2          5.7190   -2.1860   -0.0880 ha        1 L0B      0.143500
     29 H4          3.0040   -2.9030   -3.0980 ha        1 L0B      0.135625
     30 H5          6.9600   -4.1110   -0.7300 ha        1 L0B      0.135625
     31 H6          6.2190   -5.4350   -2.5650 ha        1 L0B      0.135625
     32 H7          4.2410   -4.8380   -3.7550 ha        1 L0B      0.135625
     33 H9          1.6630   -0.1660    0.3500 h1        1 L0B      0.090000
     34 H121        2.5000    1.6530   -0.5490 hc        1 L0B      0.090500
     35 H122        2.1020    1.1760   -2.0120 hc        1 L0B      0.090500
     36 H151        1.1920    3.0230   -1.2420 hc        1 L0B      0.078500
     37 H152        0.2920    1.9750   -1.9650 hc        1 L0B      0.078500
     38 H131        0.2770    2.8490    0.4730 hc        1 L0B      0.081500
     39 H132       -0.8590    2.8220   -0.6850 hc        1 L0B      0.081500
     40 H11        -0.1670    1.0150    1.0650 h1        1 L0B      0.082000
     41 H141       -2.5190    0.4410    0.3790 hc        1 L0B      0.097500
     42 H142       -2.4890    1.8490   -0.3470 hc        1 L0B      0.097500
     43 H221       -0.1200   -1.9790    0.0180 h1        1 L0B      0.071000
     44 H222       -1.5460   -1.6800   -0.6630 h1        1 L0B      0.071000
     45 H223       -1.2260   -1.0790    0.7970 h1        1 L0B      0.071000
     46 H16        -2.1850    2.9300    1.6480 h4        1 L0B      0.081000
     47 HA         -1.6590    1.9170    3.4430 ho        1 L0B      0.203000
     48 H18        -4.4550    3.6940    1.2640 ha        1 L0B      0.143500
     49 H19        -3.7080   -0.0400    2.8900 ha        1 L0B      0.135625
     50 H20        -6.7520    3.4810    1.7820 ha        1 L0B      0.135625
     51 H21        -7.5540    1.4980    2.8640 ha        1 L0B      0.135625
     52 H10        -6.0400   -0.2290    3.4030 ha        1 L0B      0.135625
@<TRIPOS>BOND
     1    1    2 1   
     2    2   17 1   
     3    3    8 1   
     4    3   51 1   
     5    4    5 1   
     6    4   52 1   
     7    5   49 1   
     8    6    7 1   
     9    7   48 1   
    10    8   50 1   
    11    9   10 1   
    12    9   18 1   
    13    9   41 1   
    14    9   42 1   
    15   10   11 1   
    16   10   15 1   
    17   10   40 1   
    18   11   12 1   
    19   11   38 1   
    20   11   39 1   
    21   12   13 1   
    22   12   36 1   
    23   12   37 1   
    24   13   14 1   
    25   13   34 1   
    26   13   35 1   
    27   14   15 1   
    28   14   17 1   
    29   14   33 1   
    30   15   16 1   
    31   16   43 1   
    32   16   44 1   
    33   16   45 1   
    34   17   26 1   
    35   17   27 1   
    36   18   19 1   
    37   18   46 1   
    38   19   47 1   
    39   20   25 1   
    40   20   29 1   
    41   21   22 1   
    42   22   28 1   
    43   23   24 1   
    44   23   30 1   
    45   24   31 1   
    46   25   32 1   
@<TRIPOS>SUBSTRUCTURE
     1 L0B         1 TEMP              0 ****  ****    0 ROOT
