@<TRIPOS>MOLECULE
L0C
   53    57     1     0     0
SMALL
bcc


@<TRIPOS>ATOM
      1 F1          0.0730   -0.0740   -1.0060 f         1 L0C     -0.126900
      2 C2          1.3810    0.0800   -0.7010 ca        1 L0C      0.159900
      3 C3          1.7840    0.1220    0.6480 ca        1 L0C     -0.175000
      4 C4          3.1320    0.2730    0.9570 ca        1 L0C     -0.061000
      5 C5          4.0810    0.3840   -0.0640 ca        1 L0C     -0.166600
      6 C6          3.6750    0.3600   -1.4050 ca        1 L0C     -0.061000
      7 C7          2.3330    0.2030   -1.7310 ca        1 L0C     -0.175000
      8 C8          5.5300    0.5690    0.2170 c         1 L0C      0.683700
      9 O9          6.2540    1.2970   -0.4860 o         1 L0C     -0.583100
     10 N10         6.0510   -0.1320    1.3060 n         1 L0C     -0.441100
     11 C11         7.3720   -0.0640    1.6910 cc        1 L0C     -0.029700
     12 C12         8.4220    0.6960    1.1080 cd        1 L0C     -0.174300
     13 N13         9.5630    0.4200    1.8640 na        1 L0C      0.035400
     14 N15         9.3490   -0.4240    2.8500 nd        1 L0C     -0.501800
     15 C16         8.0120   -0.7630    2.8020 cc        1 L0C      0.197000
     16 C17         7.3940   -1.6800    3.7350 cc        1 L0C      0.469800
     17 N18         6.0720   -2.0060    3.7760 nd        1 L0C     -0.601100
     18 C19         5.9440   -2.9220    4.8260 ca        1 L0C      0.129400
     19 C20         4.8270   -3.6070    5.3250 ca        1 L0C     -0.072000
     20 C21         5.0050   -4.4700    6.3940 ca        1 L0C     -0.129000
     21 C22         6.2690   -4.6750    6.9830 ca        1 L0C     -0.191300
     22 C23         6.4000   -5.6470    8.1020 c3        1 L0C      0.186100
     23 N24         6.2730   -4.9650    9.4430 n4        1 L0C     -0.688400
     24 C26         6.7930   -5.8320   10.5470 c3        1 L0C      0.068300
     25 C27         6.5710   -5.1930   11.9240 c3        1 L0C      0.099400
     26 O28         5.2020   -4.8730   12.1190 os        1 L0C     -0.373600
     27 C29         4.7110   -3.9730   11.1350 c3        1 L0C      0.099400
     28 C30         4.8560   -4.5770    9.7340 c3        1 L0C      0.068300
     29 C31         7.4090   -4.0190    6.5150 ca        1 L0C     -0.093000
     30 C32         7.2520   -3.1460    5.4400 ca        1 L0C     -0.087200
     31 N33         8.1470   -2.3440    4.7310 na        1 L0C     -0.260300
     32 H14        10.4740    0.7970    1.7140 hn        1 L0C      0.340700
     33 H25         6.8340   -4.1030    9.4140 hn        1 L0C      0.444800
     34 H34         9.1230   -2.2800    4.8650 hn        1 L0C      0.331700
     35 H35         1.0300    0.0410    1.4440 ha        1 L0C      0.159000
     36 H36         3.4330    0.3240    2.0160 ha        1 L0C      0.153000
     37 H37         4.4300    0.4770   -2.2010 ha        1 L0C      0.153000
     38 H38         2.0070    0.1800   -2.7820 ha        1 L0C      0.159000
     39 H39         5.4510   -0.7460    1.8120 hn        1 L0C      0.350500
     40 H40         8.4090    1.3720    0.2500 h4        1 L0C      0.229000
     41 H41         3.8360   -3.4630    4.8670 ha        1 L0C      0.169000
     42 H42         4.1370   -5.0260    6.7820 ha        1 L0C      0.134000
     43 H43         7.4130   -6.1450    8.0790 hx        1 L0C      0.102200
     44 H44         5.6040   -6.4440    8.0460 hx        1 L0C      0.102200
     45 H45         7.8920   -6.0090   10.3810 hx        1 L0C      0.112450
     46 H46         6.2490   -6.8180   10.4950 hx        1 L0C      0.112450
     47 H47         6.8050   -5.9440   12.7290 h1        1 L0C      0.095200
     48 H48         7.2090   -4.2790   12.0520 h1        1 L0C      0.095200
     49 H49         3.6200   -3.8500   11.3820 h1        1 L0C      0.095200
     50 H50         5.2360   -2.9850   11.2100 h1        1 L0C      0.095200
     51 H51         4.2210   -5.5050    9.6580 hx        1 L0C      0.112450
     52 H52         4.5230   -3.8410    8.9480 hx        1 L0C      0.112450
     53 H53         8.3980   -4.1990    6.9610 ha        1 L0C      0.138000
@<TRIPOS>BOND
     1    1    2 1   
     2    2    3 ar  
     3    2    7 ar  
     4    3    4 ar  
     5    3   35 1   
     6    4    5 ar  
     7    4   36 1   
     8    5    6 ar  
     9    5    8 1   
    10    6    7 ar  
    11    6   37 1   
    12    7   38 1   
    13    8    9 2   
    14    8   10 1   
    15   10   11 1   
    16   10   39 1   
    17   11   12 2   
    18   11   15 1   
    19   12   13 1   
    20   12   40 1   
    21   13   14 1   
    22   13   32 1   
    23   14   15 2   
    24   15   16 1   
    25   16   17 2   
    26   16   31 1   
    27   17   18 1   
    28   18   19 ar  
    29   18   30 ar  
    30   19   20 ar  
    31   19   41 1   
    32   20   21 ar  
    33   20   42 1   
    34   21   22 1   
    35   21   29 ar  
    36   22   23 1   
    37   22   43 1   
    38   22   44 1   
    39   23   24 1   
    40   23   28 1   
    41   23   33 1   
    42   24   25 1   
    43   24   45 1   
    44   24   46 1   
    45   25   26 1   
    46   25   47 1   
    47   25   48 1   
    48   26   27 1   
    49   27   28 1   
    50   27   49 1   
    51   27   50 1   
    52   28   51 1   
    53   28   52 1   
    54   29   30 ar  
    55   29   53 1   
    56   30   31 1   
    57   31   34 1   
@<TRIPOS>SUBSTRUCTURE
     1 L0C         1 TEMP              0 ****  ****    0 ROOT
