@<TRIPOS>MOLECULE
L0C
   53    48     1     0     0
SMALL
bcc


@<TRIPOS>ATOM
      1 F1         -6.7280    5.3670    4.4810 f         1 L0C     -0.093000
      2 C2         -5.5240    4.7850    4.4340 c2        1 L0C      0.125000
      3 C3         -4.4260    5.4180    4.9950 c2        1 L0C     -0.172000
      4 C4         -3.1860    4.8000    4.9790 c1        1 L0C     -0.047000
      5 C5         -3.0430    3.5470    4.4030 c2        1 L0C     -0.147000
      6 C6         -4.1410    2.9130    3.8420 c1        1 L0C     -0.075000
      7 C7         -5.3810    3.5320    3.8580 c1        1 L0C     -0.178000
      8 C8         -1.7130    2.8270    4.4790 c2        1 L0C      0.357000
      9 O9         -0.8010    3.3050    5.1250 o         1 L0C     -0.344000
     10 N10        -1.5660    1.5440    3.8890 n         1 L0C     -0.295000
     11 C11        -0.3570    0.8210    4.0530 c2        1 L0C      0.043000
     12 C12         0.3820    0.7450    5.1970 c1        1 L0C     -0.150000
     13 N13         1.4070   -0.1050    4.9760 n2        1 L0C     -0.109000
     14 N15         1.3080   -0.5630    3.6870 n2        1 L0C     -0.069000
     15 C16         0.2240    0.0080    3.1230 c2        1 L0C     -0.161000
     16 C17        -0.1930   -0.1570    1.8100 c2        1 L0C      0.173000
     17 N18         0.4980    0.7840    1.1160 n2        1 L0C     -0.174000
     18 C19         0.9840    0.2040   -0.0090 c1        1 L0C     -0.010000
     19 C20         1.7450    0.7120   -1.0800 c1        1 L0C     -0.072000
     20 C21         2.0950   -0.1150   -2.1360 c1        1 L0C     -0.128000
     21 C22         1.6960   -1.4430   -2.1380 c2        1 L0C     -0.184000
     22 C23         1.0800   -2.2150   -3.2850 c3        1 L0C     -0.056000
     23 N24         1.9890   -2.5580   -4.1000 n4        1 L0C     -0.003000
     24 C26         2.0800   -1.6190   -5.2610 c3        1 L0C     -0.169000
     25 C27         3.1370   -2.0340   -6.2680 c3        1 L0C     -0.049000
     26 O28         3.4330   -3.2380   -6.1390 os        1 L0C     -0.239000
     27 C29         2.6500   -4.1890   -5.8980 c3        1 L0C     -0.049000
     28 C30         1.5980   -3.7870   -4.9000 c3        1 L0C     -0.169000
     29 C31         0.9470   -1.9430   -1.0850 c1        1 L0C     -0.092000
     30 C32         0.5920   -1.1030   -0.0110 c1        1 L0C     -0.042000
     31 N33        -0.1350   -1.3230    1.1120 n1        1 L0C     -0.217000
     32 H14         2.0520   -0.3350    5.5790 DU        1 L0C      0.220000
     33 H25         2.7970   -2.6660   -3.6880 hn        1 L0C      0.252000
     34 H34        -0.5050   -2.1180    1.3640 DU        1 L0C      0.220000
     35 H35        -4.5260    6.3000    5.4010 ha        1 L0C      0.163000
     36 H36        -2.4130    5.2460    5.3740 DU        1 L0C      0.220000
     37 H37        -4.0410    2.0320    3.4360 ha        1 L0C      0.143000
     38 H38        -6.1550    3.0860    3.4630 ha        1 L0C      0.156000
     39 H39        -2.2510    1.1840    3.4060 hn        1 L0C      0.264000
     40 H40         0.2010    1.2220    6.0300 DU        1 L0C      0.220000
     41 H41         2.0260    1.6470   -1.0790 ha        1 L0C      0.169000
     42 H42         2.6070    0.2420   -2.8870 DU        1 L0C      0.220000
     43 H43         0.6340   -3.0160   -2.9380 hx        1 L0C      0.141000
     44 H44         0.4250   -1.6500   -3.7450 hx        1 L0C      0.141000
     45 H45         2.2960   -0.7240   -4.9270 hx        1 L0C      0.146750
     46 H46         1.2110   -1.5870   -5.7110 hx        1 L0C      0.146750
     47 H47         3.9400   -1.4890   -6.1340 h1        1 L0C      0.135500
     48 H48         2.7940   -1.8820   -7.1750 h1        1 L0C      0.135500
     49 H49         3.1630   -4.9430   -5.5380 h1        1 L0C      0.135500
     50 H50         2.2140   -4.4650   -6.7320 h1        1 L0C      0.135500
     51 H51         1.4470   -4.5310   -4.2830 hx        1 L0C      0.146750
     52 H52         0.7640   -3.6000   -5.3790 hx        1 L0C      0.146750
     53 H53         0.6660   -2.8780   -1.0860 ha        1 L0C      0.138000
@<TRIPOS>BOND
     1    1    2 1   
     2    2    3 1   
     3    2    7 1   
     4    3    4 1   
     5    3   35 1   
     6    4    5 1   
     7    5    6 1   
     8    5    8 1   
     9    6   37 1   
    10    7   38 1   
    11    8    9 1   
    12    8   10 1   
    13   10   11 1   
    14   10   39 1   
    15   11   12 1   
    16   11   15 1   
    17   12   13 1   
    18   13   14 1   
    19   14   15 1   
    20   15   16 1   
    21   16   17 1   
    22   16   31 1   
    23   17   18 1   
    24   18   30 1   
    25   19   20 1   
    26   19   41 1   
    27   20   21 1   
    28   21   22 1   
    29   21   29 1   
    30   22   23 1   
    31   22   43 1   
    32   22   44 1   
    33   23   24 1   
    34   23   28 1   
    35   23   33 1   
    36   24   25 1   
    37   24   45 1   
    38   24   46 1   
    39   25   26 1   
    40   25   47 1   
    41   25   48 1   
    42   26   27 1   
    43   27   28 1   
    44   27   49 1   
    45   27   50 1   
    46   28   51 1   
    47   28   52 1   
    48   29   53 1   
@<TRIPOS>SUBSTRUCTURE
     1 L0C         1 TEMP              0 ****  ****    0 ROOT
