@<TRIPOS>MOLECULE
L0C
   53    57     1     0     0
SMALL
bcc


@<TRIPOS>ATOM
      1 F1          8.2110   27.0410    1.2060 f         1 L0C     -0.126900
      2 C2          7.7910   27.5620    2.3800 ca        1 L0C      0.159900
      3 C3          7.5300   28.9430    2.4800 ca        1 L0C     -0.175000
      4 C4          7.0900   29.4730    3.6880 ca        1 L0C     -0.061000
      5 C5          6.9090   28.6420    4.7980 ca        1 L0C     -0.166600
      6 C6          7.1860   27.2710    4.7010 ca        1 L0C     -0.061000
      7 C7          7.6200   26.7250    3.4990 ca        1 L0C     -0.175000
      8 C8          6.4620   29.1660    6.1160 c         1 L0C      0.683700
      9 O9          6.9000   28.7170    7.1910 o         1 L0C     -0.583100
     10 N10         5.5050   30.1830    6.0940 n         1 L0C     -0.441100
     11 C11         4.9930   30.7670    7.2310 cc        1 L0C     -0.029700
     12 C12         5.3140   30.4900    8.5870 cd        1 L0C     -0.174300
     13 N13         4.5260   31.3500    9.3540 na        1 L0C      0.035400
     14 N15         3.7490   32.1320    8.6360 nd        1 L0C     -0.501800
     15 C16         3.9870   31.8240    7.3110 cc        1 L0C      0.197000
     16 C17         3.3130   32.4800    6.2130 cc        1 L0C      0.469800
     17 N18         3.5500   32.2660    4.8880 nd        1 L0C     -0.601100
     18 C19         2.6660   33.1090    4.2080 ca        1 L0C      0.129400
     19 C20         2.4480   33.3080    2.8370 ca        1 L0C     -0.072000
     20 C21         1.4860   34.2270    2.4480 ca        1 L0C     -0.129000
     21 C22         0.7280   34.9550    3.3880 ca        1 L0C     -0.191300
     22 C23        -0.3190   35.8960    2.9050 c3        1 L0C      0.186100
     23 N24         0.2210   37.3000    2.7730 n4        1 L0C     -0.688400
     24 C26        -0.8870   38.3030    2.6830 c3        1 L0C      0.068300
     25 C27        -0.3520   39.7210    2.4420 c3        1 L0C      0.099400
     26 O28         0.4760   39.7600    1.2890 os        1 L0C     -0.373600
     27 C29         1.5900   38.8830    1.3930 c3        1 L0C      0.099400
     28 C30         1.1200   37.4370    1.5830 c3        1 L0C      0.068300
     29 C31         0.9070   34.7840    4.7620 ca        1 L0C     -0.093000
     30 C32         1.8710   33.8650    5.1750 ca        1 L0C     -0.087200
     31 N33         2.3060   33.4490    6.4330 na        1 L0C     -0.260300
     32 H14         4.5130   31.4070   10.3500 hn        1 L0C      0.340700
     33 H25         0.7790   37.5050    3.6130 hn        1 L0C      0.444800
     34 H34         1.9540   33.7360    7.3100 hn        1 L0C      0.331700
     35 H35         7.6830   29.5890    1.6030 ha        1 L0C      0.159000
     36 H36         6.9080   30.5570    3.7580 ha        1 L0C      0.153000
     37 H37         7.0660   26.6310    5.5910 ha        1 L0C      0.153000
     38 H38         7.8360   25.6490    3.4150 ha        1 L0C      0.159000
     39 H39         5.1410   30.4770    5.2150 hn        1 L0C      0.350500
     40 H40         6.0200   29.7700    9.0100 h4        1 L0C      0.229000
     41 H41         3.0260   32.7380    2.0930 ha        1 L0C      0.169000
     42 H42         1.2940   34.3780    1.3740 ha        1 L0C      0.134000
     43 H43        -0.7130   35.5840    1.8960 hx        1 L0C      0.102200
     44 H44        -1.1800   35.9400    3.6330 hx        1 L0C      0.102200
     45 H45        -1.5560   38.0010    1.8280 hx        1 L0C      0.112450
     46 H46        -1.4780   38.2760    3.6410 hx        1 L0C      0.112450
     47 H47        -1.2080   40.4090    2.2000 h1        1 L0C      0.095200
     48 H48         0.2070   40.0990    3.3380 h1        1 L0C      0.095200
     49 H49         2.1200   38.9810    0.4060 h1        1 L0C      0.095200
     50 H50         2.2670   39.2060    2.2270 h1        1 L0C      0.095200
     51 H51         0.5430   37.1070    0.6730 hx        1 L0C      0.112450
     52 H52         2.0020   36.7490    1.7260 hx        1 L0C      0.112450
     53 H53         0.2990   35.3360    5.4930 ha        1 L0C      0.138000
@<TRIPOS>BOND
     1    1    2 1   
     2    2    3 ar  
     3    2    7 ar  
     4    3    4 ar  
     5    3   35 1   
     6    4    5 ar  
     7    4   36 1   
     8    5    6 ar  
     9    5    8 1   
    10    6    7 ar  
    11    6   37 1   
    12    7   38 1   
    13    8    9 2   
    14    8   10 1   
    15   10   11 1   
    16   10   39 1   
    17   11   12 2   
    18   11   15 1   
    19   12   13 1   
    20   12   40 1   
    21   13   14 1   
    22   13   32 1   
    23   14   15 2   
    24   15   16 1   
    25   16   17 2   
    26   16   31 1   
    27   17   18 1   
    28   18   19 ar  
    29   18   30 ar  
    30   19   20 ar  
    31   19   41 1   
    32   20   21 ar  
    33   20   42 1   
    34   21   22 1   
    35   21   29 ar  
    36   22   23 1   
    37   22   43 1   
    38   22   44 1   
    39   23   24 1   
    40   23   28 1   
    41   23   33 1   
    42   24   25 1   
    43   24   45 1   
    44   24   46 1   
    45   25   26 1   
    46   25   47 1   
    47   25   48 1   
    48   26   27 1   
    49   27   28 1   
    50   27   49 1   
    51   27   50 1   
    52   28   51 1   
    53   28   52 1   
    54   29   30 ar  
    55   29   53 1   
    56   30   31 1   
    57   31   34 1   
@<TRIPOS>SUBSTRUCTURE
     1 L0C         1 TEMP              0 ****  ****    0 ROOT
