@<TRIPOS>MOLECULE
L0C
   54    58     1     0     0
SMALL
bcc


@<TRIPOS>ATOM
      1 F1          0.1670   -0.2680   -1.3940 f         1 L0C     -0.084900
      2 C2          1.4270   -0.0520   -0.9820 ca        1 L0C      0.231900
      3 C3          1.8600   -0.5770    0.2590 ca        1 L0C     -0.171000
      4 C4          3.1600   -0.3590    0.6850 ca        1 L0C     -0.032500
      5 C5          4.0530    0.3810   -0.1100 ca        1 L0C     -0.239600
      6 C6          3.6150    0.9120   -1.3410 ca        1 L0C     -0.032500
      7 C7          2.3170    0.6970   -1.7800 ca        1 L0C     -0.171000
      8 C8          5.4340    0.6720    0.2590 c         1 L0C      0.590700
      9 O9          6.1990    1.4660   -0.2730 o         1 L0C     -0.440100
     10 N10         5.9790   -0.1190    1.4460 n4        1 L0C     -0.495200
     11 C11         7.3910   -0.0810    1.6720 cc        1 L0C     -0.222700
     12 C12         8.4200    0.6080    0.9820 cd        1 L0C     -0.025300
     13 N13         9.5960    0.2740    1.6350 na        1 L0C      0.034400
     14 N15         9.4180   -0.5490    2.6630 nd        1 L0C     -0.448800
     15 C16         8.0780   -0.8050    2.7390 cc        1 L0C      0.302000
     16 C17         7.4510   -1.6620    3.7310 cc        1 L0C      0.399800
     17 N18         6.1080   -1.8620    3.8310 nd        1 L0C     -0.627100
     18 C19         5.9460   -2.7480    4.9050 ca        1 L0C      0.111400
     19 C20         4.7970   -3.3240    5.4710 ca        1 L0C     -0.058000
     20 C21         4.9530   -4.1950    6.5350 ca        1 L0C     -0.123000
     21 C22         6.2260   -4.5180    7.0580 ca        1 L0C     -0.152300
     22 C23         6.3250   -5.5400    8.1440 c3        1 L0C      0.171100
     23 N24         6.2720   -4.9390    9.5210 n4        1 L0C     -0.686400
     24 C26         6.7620   -5.9150   10.5510 c3        1 L0C      0.068300
     25 C27         6.6130   -5.3600   11.9740 c3        1 L0C      0.098900
     26 O28         5.2690   -4.9770   12.2250 os        1 L0C     -0.364600
     27 C29         4.8170   -3.9770   11.3250 c3        1 L0C      0.098900
     28 C30         4.8880   -4.4870    9.8800 c3        1 L0C      0.068300
     29 C31         7.3900   -3.9650    6.5330 ca        1 L0C     -0.084000
     30 C32         7.2540   -3.0800    5.4570 ca        1 L0C     -0.073200
     31 N33         8.1870   -2.3730    4.6960 na        1 L0C     -0.228300
     32 H14        10.5210    0.5920    1.4060 hn        1 L0C      0.372700
     33 H25         6.8870   -4.1150    9.5390 hn        1 L0C      0.443800
     34 H34         9.1720   -2.3860    4.7930 hn        1 L0C      0.342700
     35 H35         1.1510   -1.1540    0.8760 ha        1 L0C      0.187000
     36 H36         3.4520   -0.7710    1.6640 ha        1 L0C      0.156500
     37 H37         4.3120    1.5050   -1.9610 ha        1 L0C      0.156500
     38 H38         1.9720    1.1090   -2.7440 ha        1 L0C      0.187000
     39 H39         5.7030   -1.1070    1.3200 hn        1 L0C      0.474300
     40 H40         8.3870    1.2840    0.1170 h4        1 L0C      0.242000
     41 H41         3.7980   -3.0910    5.0700 ha        1 L0C      0.170000
     42 H42         4.0590   -4.6700    6.9730 ha        1 L0C      0.149000
     43 H43         5.4830   -6.2880    8.0620 hx        1 L0C      0.111700
     44 H44         7.3040   -6.0990    8.0610 hx        1 L0C      0.111700
     45 H45         6.1530   -6.8580   10.4470 hx        1 L0C      0.112950
     46 H46         7.8440   -6.1480   10.3430 hx        1 L0C      0.112950
     47 H47         7.3080   -4.4970   12.1480 h1        1 L0C      0.100450
     48 H48         6.8190   -6.1790   12.7190 h1        1 L0C      0.100450
     49 H49         3.7420   -3.8030   11.6110 h1        1 L0C      0.100450
     50 H50         5.4080   -3.0320   11.4540 h1        1 L0C      0.100450
     51 H51         4.5820   -3.6760    9.1610 hx        1 L0C      0.112950
     52 H52         4.1950   -5.3680    9.7620 hx        1 L0C      0.112950
     53 H53         8.3840   -4.2270    6.9260 ha        1 L0C      0.154000
     54 H102        5.5100    0.2320    2.2970 hn        1 L0C      0.474300
@<TRIPOS>BOND
     1    1    2 1   
     2    2    3 ar  
     3    2    7 ar  
     4    3    4 ar  
     5    3   35 1   
     6    4    5 ar  
     7    4   36 1   
     8    5    6 ar  
     9    5    8 1   
    10    6    7 ar  
    11    6   37 1   
    12    7   38 1   
    13    8    9 2   
    14    8   10 1   
    15   10   11 1   
    16   10   39 1   
    17   10   54 1   
    18   11   12 2   
    19   11   15 1   
    20   12   13 1   
    21   12   40 1   
    22   13   14 1   
    23   13   32 1   
    24   14   15 2   
    25   15   16 1   
    26   16   17 2   
    27   16   31 1   
    28   17   18 1   
    29   18   19 ar  
    30   18   30 ar  
    31   19   20 ar  
    32   19   41 1   
    33   20   21 ar  
    34   20   42 1   
    35   21   22 1   
    36   21   29 ar  
    37   22   23 1   
    38   22   43 1   
    39   22   44 1   
    40   23   24 1   
    41   23   28 1   
    42   23   33 1   
    43   24   25 1   
    44   24   45 1   
    45   24   46 1   
    46   25   26 1   
    47   25   47 1   
    48   25   48 1   
    49   26   27 1   
    50   27   28 1   
    51   27   49 1   
    52   27   50 1   
    53   28   51 1   
    54   28   52 1   
    55   29   30 ar  
    56   29   53 1   
    57   30   31 1   
    58   31   34 1   
@<TRIPOS>SUBSTRUCTURE
     1 L0C         1 TEMP              0 ****  ****    0 ROOT
