@<TRIPOS>MOLECULE
L0C
   53    57     1     0     0
SMALL
bcc


@<TRIPOS>ATOM
      1 F1          0.0760   -0.1400   -1.0330 f         1 L0C     -0.126900
      2 C2          1.3810    0.0290   -0.7220 ca        1 L0C      0.159900
      3 C3          1.7780    0.0730    0.6290 ca        1 L0C     -0.175000
      4 C4          3.1220    0.2390    0.9440 ca        1 L0C     -0.061000
      5 C5          4.0740    0.3630   -0.0730 ca        1 L0C     -0.166600
      6 C6          3.6750    0.3370   -1.4160 ca        1 L0C     -0.061000
      7 C7          2.3360    0.1650   -1.7480 ca        1 L0C     -0.175000
      8 C8          5.5190    0.5650    0.2160 c         1 L0C      0.683700
      9 O9          6.2380    1.3020   -0.4840 o         1 L0C     -0.583100
     10 N10         6.0440   -0.1320    1.3060 ns        1 L0C     -0.441100
     11 C11         7.3620   -0.0480    1.6970 cc        1 L0C     -0.029700
     12 C12         8.4060    0.7220    1.1190 cd        1 L0C     -0.174300
     13 N13         9.5460    0.4600    1.8800 na        1 L0C      0.035400
     14 N15         9.3370   -0.3860    2.8660 nd        1 L0C     -0.501800
     15 C16         8.0040   -0.7410    2.8110 cc        1 L0C      0.197000
     16 C17         7.3920   -1.6640    3.7410 cc        1 L0C      0.469800
     17 N18         6.0730   -2.0040    3.7770 nd        1 L0C     -0.601100
     18 C19         5.9510   -2.9210    4.8260 ca        1 L0C      0.129400
     19 C20         4.8390   -3.6180    5.3210 ca        1 L0C     -0.072000
     20 C21         5.0210   -4.4780    6.3920 ca        1 L0C     -0.129000
     21 C22         6.2850   -4.6680    6.9870 ca        1 L0C     -0.191300
     22 C23         6.4210   -5.6380    8.1080 c3        1 L0C      0.186100
     23 N24         6.2800   -4.9550    9.4470 nx        1 L0C     -0.688400
     24 C26         6.8030   -5.8150   10.5550 c3        1 L0C      0.068300
     25 C27         6.5670   -5.1770   11.9300 c3        1 L0C      0.099400
     26 O28         5.1940   -4.8720   12.1180 os        1 L0C     -0.373600
     27 C29         4.6980   -3.9790   11.1300 c3        1 L0C      0.099400
     28 C30         4.8570   -4.5830    9.7300 c3        1 L0C      0.068300
     29 C31         7.4200   -4.0000    6.5240 ca        1 L0C     -0.093000
     30 C32         7.2580   -3.1300    5.4480 ca        1 L0C     -0.087200
     31 N33         8.1470   -2.3180    4.7430 na        1 L0C     -0.260300
     32 H14        10.4540    0.8460    1.7350 hn        1 L0C      0.340700
     33 H25         6.8310   -4.0870    9.4200 hn        1 L0C      0.444800
     34 H34         9.1220   -2.2440    4.8810 hn        1 L0C      0.331700
     35 H35         1.0200   -0.0190    1.4210 ha        1 L0C      0.159000
     36 H36         3.4170    0.2910    2.0040 ha        1 L0C      0.153000
     37 H37         4.4310    0.4650   -2.2080 ha        1 L0C      0.153000
     38 H38         2.0150    0.1410   -2.8000 ha        1 L0C      0.159000
     39 H39         5.4480   -0.7520    1.8080 hn        1 L0C      0.350500
     40 H40         8.3890    1.3990    0.2600 h4        1 L0C      0.229000
     41 H41         3.8490   -3.4860    4.8570 ha        1 L0C      0.169000
     42 H42         4.1570   -5.0440    6.7760 ha        1 L0C      0.134000
     43 H43         7.4390   -6.1240    8.0910 hx        1 L0C      0.102200
     44 H44         5.6350   -6.4430    8.0490 hx        1 L0C      0.102200
     45 H45         6.2710   -6.8070   10.5020 hx        1 L0C      0.112450
     46 H46         7.9050   -5.9810   10.3950 hx        1 L0C      0.112450
     47 H47         7.1940   -4.2560   12.0600 h1        1 L0C      0.095200
     48 H48         6.8050   -5.9240   12.7370 h1        1 L0C      0.095200
     49 H49         5.2120   -2.9850   11.2060 h1        1 L0C      0.095200
     50 H50         3.6050   -3.8680   11.3710 h1        1 L0C      0.095200
     51 H51         4.5200   -3.8510    8.9420 hx        1 L0C      0.112450
     52 H52         4.2320   -5.5180    9.6530 hx        1 L0C      0.112450
     53 H53         8.4080   -4.1680    6.9750 ha        1 L0C      0.138000
@<TRIPOS>BOND
     1    1    2 1   
     2    2    3 ar  
     3    2    7 ar  
     4    3    4 ar  
     5    3   35 1   
     6    4    5 ar  
     7    4   36 1   
     8    5    6 ar  
     9    5    8 1   
    10    6    7 ar  
    11    6   37 1   
    12    7   38 1   
    13    8    9 2   
    14    8   10 1   
    15   10   11 1   
    16   10   39 1   
    17   11   12 2   
    18   11   15 1   
    19   12   13 1   
    20   12   40 1   
    21   13   14 1   
    22   13   32 1   
    23   14   15 2   
    24   15   16 1   
    25   16   17 2   
    26   16   31 1   
    27   17   18 1   
    28   18   19 ar  
    29   18   30 ar  
    30   19   20 ar  
    31   19   41 1   
    32   20   21 ar  
    33   20   42 1   
    34   21   22 1   
    35   21   29 ar  
    36   22   23 1   
    37   22   43 1   
    38   22   44 1   
    39   23   24 1   
    40   23   28 1   
    41   23   33 1   
    42   24   25 1   
    43   24   45 1   
    44   24   46 1   
    45   25   26 1   
    46   25   47 1   
    47   25   48 1   
    48   26   27 1   
    49   27   28 1   
    50   27   49 1   
    51   27   50 1   
    52   28   51 1   
    53   28   52 1   
    54   29   30 ar  
    55   29   53 1   
    56   30   31 1   
    57   31   34 1   
@<TRIPOS>SUBSTRUCTURE
     1 L0C         1 TEMP              0 ****  ****    0 ROOT
