@<TRIPOS>MOLECULE
L0D
   22    24     1     0     0
SMALL
bcc


@<TRIPOS>ATOM
      1 C1          4.1380   -0.7250    0.0010 cc        1 L0D     -0.157300
      2 C2          2.8340   -1.2390    0.0010 cd        1 L0D     -0.236300
      3 C3          1.9820   -0.0680    0.0010 cd        1 L0D      0.280000
      4 N4          2.7480    1.0720    0.0010 nc        1 L0D     -0.515800
      5 N5          4.0120    0.6690    0.0010 na        1 L0D     -0.008600
      6 C7          0.5300   -0.0880    0.0010 cd        1 L0D      0.387800
      7 N8         -0.2340   -1.2080    0.0000 nc        1 L0D     -0.559100
      8 C9         -1.5630   -0.7480    0.0000 ca        1 L0D      0.066400
      9 C10        -2.7810   -1.4450    0.0000 ca        1 L0D     -0.070000
     10 C11        -3.9570   -0.7120   -0.0000 ca        1 L0D     -0.155000
     11 C12        -3.9560    0.6960   -0.0000 ca        1 L0D     -0.113000
     12 C13        -2.7780    1.4260    0.0000 ca        1 L0D     -0.135000
     13 C14        -1.5750    0.7070    0.0000 ca        1 L0D     -0.072200
     14 N15        -0.2370    1.1010    0.0000 na        1 L0D     -0.266300
     15 HN5         4.7470    1.3380    0.0010 hn        1 L0D      0.324700
     16 HN15        0.1110    2.0220    0.0000 hn        1 L0D      0.316700
     17 H1          5.1070   -1.2200    0.0010 h4        1 L0D      0.181000
     18 H2          2.5060   -2.2730    0.0010 ha        1 L0D      0.188000
     19 H10        -2.7910   -2.5440    0.0000 ha        1 L0D      0.146000
     20 H11        -4.9230   -1.2390   -0.0000 ha        1 L0D      0.132000
     21 H12        -4.9190    1.2280   -0.0000 ha        1 L0D      0.131000
     22 H13        -2.7840    2.5230   -0.0000 ha        1 L0D      0.135000
@<TRIPOS>BOND
     1    1    2 2   
     2    1    5 1   
     3    1   17 1   
     4    2    3 1   
     5    2   18 1   
     6    3    4 2   
     7    3    6 1   
     8    4    5 1   
     9    5   15 1   
    10    6    7 2   
    11    6   14 1   
    12    7    8 1   
    13    8    9 ar  
    14    8   13 ar  
    15    9   10 ar  
    16    9   19 1   
    17   10   11 ar  
    18   10   20 1   
    19   11   12 ar  
    20   11   21 1   
    21   12   13 ar  
    22   12   22 1   
    23   13   14 1   
    24   14   16 1   
@<TRIPOS>SUBSTRUCTURE
     1 L0D         1 TEMP              0 ****  ****    0 ROOT
