@<TRIPOS>MOLECULE
L0D
   22    16     1     0     0
SMALL
bcc


@<TRIPOS>ATOM
      1 C1         -3.9290    0.5740   -1.4910 c1        1 L0D     -0.133000
      2 C2         -2.6960    0.9770   -1.0660 c1        1 L0D     -0.171000
      3 C3         -2.0320   -0.1220   -0.6020 c2        1 L0D     -0.078000
      4 N4         -2.8460   -1.1890   -0.7390 n2        1 L0D     -0.083000
      5 N5         -4.0250   -0.7570   -1.2920 n2        1 L0D     -0.153000
      6 C7         -0.7620   -0.1310   -0.0470 c2        1 L0D      0.091000
      7 N8          0.2530   -0.1810   -0.9490 n2        1 L0D     -0.132000
      8 C9          1.4240   -0.1390   -0.2660 c1        1 L0D     -0.073000
      9 C10         2.7660   -0.1680   -0.6920 c1        1 L0D     -0.118250
     10 C11         3.7900   -0.1180    0.2400 c1        1 L0D     -0.118250
     11 C12         3.4930   -0.0400    1.5920 c1        1 L0D     -0.118250
     12 C13         2.1730   -0.0130    2.0110 c1        1 L0D     -0.118250
     13 C14         1.1320   -0.0630    1.0640 c1        1 L0D     -0.027000
     14 N15        -0.2180   -0.0580    1.1960 n1        1 L0D     -0.223000
     15 HN5        -4.7470   -1.2780   -1.4890 DU        1 L0D      0.227750
     16 HN15       -0.6790   -0.0090    1.9820 DU        1 L0D      0.227750
     17 H1         -4.6200    1.1490   -1.8730 DU        1 L0D      0.227750
     18 H2         -2.3500    1.8890   -1.0900 DU        1 L0D      0.227750
     19 H10         2.9750   -0.2220   -1.6440 ha        1 L0D      0.136000
     20 H11         4.7200   -0.1380   -0.0550 ha        1 L0D      0.136000
     21 H12         4.2150   -0.0050    2.2480 ha        1 L0D      0.136000
     22 H13         1.9640    0.0420    2.9630 ha        1 L0D      0.136000
@<TRIPOS>BOND
     1    1    2 1   
     2    1    5 1   
     3    2    3 1   
     4    3    4 1   
     5    3    6 1   
     6    4    5 1   
     7    6    7 1   
     8    6   14 1   
     9    7    8 1   
    10    8   13 1   
    11    9   10 1   
    12    9   19 1   
    13   10   20 1   
    14   11   12 1   
    15   11   21 1   
    16   12   22 1   
@<TRIPOS>SUBSTRUCTURE
     1 L0D         1 TEMP              0 ****  ****    0 ROOT
