@<TRIPOS>MOLECULE
L0E
   55    59     1     0     0
SMALL
bcc


@<TRIPOS>ATOM
      1 O1         -0.1700   -0.3040    0.2470 o         1 L0E     -0.626100
      2 C2          1.0490   -0.0930    0.0390 c         1 L0E      0.783100
      3 N3          1.9920   -0.0960    1.0850 ns        1 L0E     -0.437100
      4 C4          1.5920   -0.1970    2.4020 cc        1 L0E     -0.032700
      5 C5          0.3370   -0.6210    2.9130 cd        1 L0E     -0.166300
      6 N6          0.4550   -0.5860    4.3030 na        1 L0E      0.033400
      7 N8          1.6390   -0.1900    4.7200 nd        1 L0E     -0.500800
      8 C9          2.3920    0.0720    3.5940 cc        1 L0E      0.204000
      9 C10         3.7570    0.5520    3.6510 cc        1 L0E      0.455800
     10 N11         4.5720    0.7790    2.5900 nd        1 L0E     -0.593100
     11 C12         5.7760    1.2500    3.1380 ca        1 L0E      0.079400
     12 C13         6.9640    1.6560    2.5270 ca        1 L0E     -0.049000
     13 C14         8.0150    2.0840    3.3390 ca        1 L0E     -0.203300
     14 C15         9.2670    2.5820    2.7070 c3        1 L0E      0.189100
     15 N16        10.3160    1.5200    2.4830 nx        1 L0E     -0.685400
     16 C18         9.8400    0.4480    1.5540 c3        1 L0E      0.065300
     17 C19        10.8730   -0.6750    1.4000 c3        1 L0E      0.099900
     18 O20        11.2290   -1.2120    2.6660 os        1 L0E     -0.371600
     19 C21        11.7750   -0.2310    3.5350 c3        1 L0E      0.099900
     20 C22        10.7760    0.9070    3.7700 c3        1 L0E      0.065300
     21 C23         7.8940    2.1240    4.7450 ca        1 L0E     -0.110000
     22 C24         6.7300    1.7370    5.3890 ca        1 L0E     -0.113000
     23 C25         5.6640    1.2960    4.5940 ca        1 L0E     -0.040200
     24 N26         4.3830    0.8490    4.8910 na        1 L0E     -0.255300
     25 N28         1.4610    0.1570   -1.2740 ns        1 L0E     -0.487100
     26 C29         2.7820    0.1840   -1.7480 ca        1 L0E      0.053600
     27 C30         3.1470    1.1610   -2.7050 ca        1 L0E     -0.155000
     28 C31         4.4380    1.1840   -3.2230 ca        1 L0E     -0.110000
     29 C32         5.3880    0.2530   -2.8040 ca        1 L0E     -0.150000
     30 C33         5.0360   -0.7140   -1.8650 ca        1 L0E     -0.110000
     31 C34         3.7470   -0.7620   -1.3410 ca        1 L0E     -0.155000
     32 H7         -0.2540   -0.8260    4.9620 hn        1 L0E      0.341700
     33 H17        11.1270    1.9760    2.0460 hn        1 L0E      0.436800
     34 H27         3.9720    0.7670    5.7860 hn        1 L0E      0.335700
     35 H35         2.9250    0.2050    0.9030 hn        1 L0E      0.353500
     36 H36        -0.5770   -0.9090    2.3860 h4        1 L0E      0.230000
     37 H37         7.0510    1.6500    1.4300 ha        1 L0E      0.148000
     38 H38         9.7460    3.3710    3.3560 hx        1 L0E      0.099700
     39 H39         9.0430    3.0250    1.6930 hx        1 L0E      0.099700
     40 H40         8.8810    0.0280    1.9780 hx        1 L0E      0.115950
     41 H41         9.6230    0.9130    0.5520 hx        1 L0E      0.115950
     42 H42        10.4100   -1.5370    0.8460 h1        1 L0E      0.093200
     43 H43        11.7870   -0.3140    0.8580 h1        1 L0E      0.093200
     44 H44        12.7450    0.1580    3.1250 h1        1 L0E      0.093200
     45 H45        11.9560   -0.7780    4.5010 h1        1 L0E      0.093200
     46 H46         9.8630    0.5110    4.3040 hx        1 L0E      0.115950
     47 H47        11.2480    1.7110    4.4000 hx        1 L0E      0.115950
     48 H48         8.7400    2.4910    5.3470 ha        1 L0E      0.133000
     49 H49         6.6440    1.7830    6.4840 ha        1 L0E      0.160000
     50 H50         0.7260    0.2400   -1.9430 hn        1 L0E      0.353500
     51 H51         2.4090    1.9010   -3.0520 ha        1 L0E      0.147000
     52 H52         4.7050    1.9440   -3.9730 ha        1 L0E      0.135500
     53 H53         6.4020    0.2730   -3.2270 ha        1 L0E      0.131000
     54 H54         5.7740   -1.4650   -1.5450 ha        1 L0E      0.135500
     55 H55         3.4870   -1.5600   -0.6280 ha        1 L0E      0.147000
@<TRIPOS>BOND
     1    1    2 2   
     2    2    3 1   
     3    2   25 1   
     4    3    4 1   
     5    3   35 1   
     6    4    5 2   
     7    4    8 1   
     8    5    6 1   
     9    5   36 1   
    10    6    7 1   
    11    6   32 1   
    12    7    8 2   
    13    8    9 1   
    14    9   10 2   
    15    9   24 1   
    16   10   11 1   
    17   11   12 ar  
    18   11   23 ar  
    19   12   13 ar  
    20   12   37 1   
    21   13   14 1   
    22   13   21 ar  
    23   14   15 1   
    24   14   38 1   
    25   14   39 1   
    26   15   16 1   
    27   15   20 1   
    28   15   33 1   
    29   16   17 1   
    30   16   40 1   
    31   16   41 1   
    32   17   18 1   
    33   17   42 1   
    34   17   43 1   
    35   18   19 1   
    36   19   20 1   
    37   19   44 1   
    38   19   45 1   
    39   20   46 1   
    40   20   47 1   
    41   21   22 ar  
    42   21   48 1   
    43   22   23 ar  
    44   22   49 1   
    45   23   24 1   
    46   24   34 1   
    47   25   26 1   
    48   25   50 1   
    49   26   27 ar  
    50   26   31 ar  
    51   27   28 ar  
    52   27   51 1   
    53   28   29 ar  
    54   28   52 1   
    55   29   30 ar  
    56   29   53 1   
    57   30   31 ar  
    58   30   54 1   
    59   31   55 1   
@<TRIPOS>SUBSTRUCTURE
     1 L0E         1 TEMP              0 ****  ****    0 ROOT
