@<TRIPOS>MOLECULE
L0E
   55    59     1     0     0
SMALL
bcc


@<TRIPOS>ATOM
      1 O1          6.3630   28.1150    7.7570 o         1 L0E     -0.626100
      2 C2          6.1620   28.5910    6.6140 c         1 L0E      0.783100
      3 N3          5.5800   29.8600    6.4300 n         1 L0E     -0.437100
      4 C4          5.0820   30.5760    7.5000 cc        1 L0E     -0.032700
      5 C5          5.3290   30.3790    8.8840 cd        1 L0E     -0.166300
      6 N6          4.6280   31.3870    9.5480 na        1 L0E      0.033400
      7 N8          3.9730   32.1910    8.7380 nd        1 L0E     -0.500800
      8 C9          4.2060   31.7430    7.4540 cc        1 L0E      0.204000
      9 C10         3.6290   32.3690    6.2830 cc        1 L0E      0.455800
     10 N11         3.8570   32.0170    4.9920 nd        1 L0E     -0.593100
     11 C12         3.0710   32.8900    4.2230 ca        1 L0E      0.079400
     12 C13         2.8930   32.9870    2.8420 ca        1 L0E     -0.049000
     13 C14         2.0340   33.9710    2.3500 ca        1 L0E     -0.203300
     14 C15         1.7800   34.0500    0.8860 c3        1 L0E      0.189100
     15 N16         2.7170   34.9700    0.1410 n4        1 L0E     -0.685400
     16 C18         4.1410   34.5210    0.2390 c3        1 L0E      0.065300
     17 C19         5.0990   35.5050   -0.4410 c3        1 L0E      0.099900
     18 O20         4.9360   36.8150    0.0830 os        1 L0E     -0.371600
     19 C21         3.6140   37.3040   -0.0870 c3        1 L0E      0.099900
     20 C22         2.6000   36.3880    0.6080 c3        1 L0E      0.065300
     21 C23         1.3450   34.8480    3.2140 ca        1 L0E     -0.110000
     22 C24         1.4880   34.7800    4.5910 ca        1 L0E     -0.113000
     23 C25         2.3510   33.8050    5.1060 ca        1 L0E     -0.040200
     24 N26         2.7230   33.4560    6.3980 na        1 L0E     -0.255300
     25 N28         6.5270   27.8210    5.5050 n         1 L0E     -0.487100
     26 C29         6.6010   28.2530    4.1710 ca        1 L0E      0.053600
     27 C30         6.1640   27.3830    3.1440 ca        1 L0E     -0.155000
     28 C31         6.2650   27.7690    1.8110 ca        1 L0E     -0.110000
     29 C32         6.7920   29.0140    1.4710 ca        1 L0E     -0.150000
     30 C33         7.2270   29.8750    2.4760 ca        1 L0E     -0.110000
     31 C34         7.1440   29.5060    3.8160 ca        1 L0E     -0.155000
     32 H7          4.5930   31.5310   10.5340 hn        1 L0E      0.341700
     33 H17         2.4490   34.9450   -0.8510 hn        1 L0E      0.436800
     34 H27         2.4080   33.8670    7.2400 hn        1 L0E      0.335700
     35 H35         5.3140   30.1480    5.5130 hn        1 L0E      0.353500
     36 H36         5.9170   29.6100    9.3930 h4        1 L0E      0.230000
     37 H37         3.4100   32.2870    2.1680 ha        1 L0E      0.148000
     38 H38         1.8940   33.0310    0.4140 hx        1 L0E      0.099700
     39 H39         0.7360   34.4320    0.6900 hx        1 L0E      0.099700
     40 H40         4.2300   33.5050   -0.2360 hx        1 L0E      0.115950
     41 H41         4.3980   34.4350    1.3360 hx        1 L0E      0.115950
     42 H42         4.9550   35.5090   -1.5540 h1        1 L0E      0.093200
     43 H43         6.1610   35.2300   -0.1910 h1        1 L0E      0.093200
     44 H44         3.3770   37.4180   -1.1770 h1        1 L0E      0.093200
     45 H45         3.6170   38.3100    0.4160 h1        1 L0E      0.093200
     46 H46         1.5530   36.7460    0.4040 hx        1 L0E      0.115950
     47 H47         2.7800   36.3950    1.7230 hx        1 L0E      0.115950
     48 H48         0.6580   35.5960    2.7860 ha        1 L0E      0.133000
     49 H49         0.9360   35.4620    5.2540 ha        1 L0E      0.160000
     50 H50         6.8400   26.8970    5.7120 hn        1 L0E      0.353500
     51 H51         5.7500   26.3930    3.3920 ha        1 L0E      0.147000
     52 H52         5.9300   27.0780    1.0220 ha        1 L0E      0.135500
     53 H53         6.8780   29.3060    0.4150 ha        1 L0E      0.131000
     54 H54         7.6630   30.8510    2.2140 ha        1 L0E      0.135500
     55 H55         7.5300   30.1910    4.5860 ha        1 L0E      0.147000
@<TRIPOS>BOND
     1    1    2 2   
     2    2    3 1   
     3    2   25 1   
     4    3    4 1   
     5    3   35 1   
     6    4    5 2   
     7    4    8 1   
     8    5    6 1   
     9    5   36 1   
    10    6    7 1   
    11    6   32 1   
    12    7    8 2   
    13    8    9 1   
    14    9   10 2   
    15    9   24 1   
    16   10   11 1   
    17   11   12 ar  
    18   11   23 ar  
    19   12   13 ar  
    20   12   37 1   
    21   13   14 1   
    22   13   21 ar  
    23   14   15 1   
    24   14   38 1   
    25   14   39 1   
    26   15   16 1   
    27   15   20 1   
    28   15   33 1   
    29   16   17 1   
    30   16   40 1   
    31   16   41 1   
    32   17   18 1   
    33   17   42 1   
    34   17   43 1   
    35   18   19 1   
    36   19   20 1   
    37   19   44 1   
    38   19   45 1   
    39   20   46 1   
    40   20   47 1   
    41   21   22 ar  
    42   21   48 1   
    43   22   23 ar  
    44   22   49 1   
    45   23   24 1   
    46   24   34 1   
    47   25   26 1   
    48   25   50 1   
    49   26   27 ar  
    50   26   31 ar  
    51   27   28 ar  
    52   27   51 1   
    53   28   29 ar  
    54   28   52 1   
    55   29   30 ar  
    56   29   53 1   
    57   30   31 ar  
    58   30   54 1   
    59   31   55 1   
@<TRIPOS>SUBSTRUCTURE
     1 L0E         1 TEMP              0 ****  ****    0 ROOT
