@<TRIPOS>MOLECULE
L0E
   55    59     1     0     0
SMALL
bcc


@<TRIPOS>ATOM
      1 O1         -0.1690   -0.2910    0.2350 o         1 L0E     -0.626100
      2 C2          1.0510   -0.0820    0.0300 c         1 L0E      0.783100
      3 N3          1.9920   -0.0880    1.0780 n         1 L0E     -0.437100
      4 C4          1.5900   -0.1910    2.3940 cc        1 L0E     -0.032700
      5 C5          0.3330   -0.6150    2.9010 cd        1 L0E     -0.166300
      6 N6          0.4490   -0.5830    4.2920 na        1 L0E      0.033400
      7 N8          1.6330   -0.1900    4.7110 nd        1 L0E     -0.500800
      8 C9          2.3890    0.0740    3.5870 cc        1 L0E      0.204000
      9 C10         3.7540    0.5510    3.6490 cc        1 L0E      0.455800
     10 N11         4.5700    0.7800    2.5890 nd        1 L0E     -0.593100
     11 C12         5.7740    1.2470    3.1410 ca        1 L0E      0.079400
     12 C13         6.9640    1.6530    2.5330 ca        1 L0E     -0.049000
     13 C14         8.0160    2.0760    3.3480 ca        1 L0E     -0.203300
     14 C15         9.2680    2.5740    2.7190 c3        1 L0E      0.189100
     15 N16        10.3160    1.5110    2.4920 n4        1 L0E     -0.685400
     16 C18         9.8390    0.4430    1.5580 c3        1 L0E      0.065300
     17 C19        10.8700   -0.6800    1.4010 c3        1 L0E      0.099900
     18 O20        11.2230   -1.2230    2.6650 os        1 L0E     -0.371600
     19 C21        11.7710   -0.2470    3.5380 c3        1 L0E      0.099900
     20 C22        10.7740    0.8930    3.7760 c3        1 L0E      0.065300
     21 C23         7.8920    2.1110    4.7530 ca        1 L0E     -0.110000
     22 C24         6.7270    1.7240    5.3940 ca        1 L0E     -0.113000
     23 C25         5.6610    1.2880    4.5960 ca        1 L0E     -0.040200
     24 N26         4.3790    0.8420    4.8900 na        1 L0E     -0.255300
     25 N28         1.4650    0.1700   -1.2820 n         1 L0E     -0.487100
     26 C29         2.7880    0.1990   -1.7540 ca        1 L0E      0.054600
     27 C30         3.1540    1.1770   -2.7070 ca        1 L0E     -0.155000
     28 C31         4.4450    1.2010   -3.2230 ca        1 L0E     -0.110000
     29 C32         5.3940    0.2690   -2.8050 ca        1 L0E     -0.150000
     30 C33         5.0410   -0.7000   -1.8690 ca        1 L0E     -0.110000
     31 C34         3.7520   -0.7480   -1.3460 ca        1 L0E     -0.155000
     32 H7         -0.2610   -0.8230    4.9490 hn        1 L0E      0.341700
     33 H17        11.1290    1.9670    2.0580 hn        1 L0E      0.436800
     34 H27         3.9670    0.7580    5.7850 hn        1 L0E      0.335700
     35 H35         2.9260    0.2130    0.8980 hn        1 L0E      0.353500
     36 H36        -0.5810   -0.8990    2.3730 h4        1 L0E      0.230000
     37 H37         7.0530    1.6510    1.4360 ha        1 L0E      0.148000
     38 H38         9.0470    3.0220    1.7060 hx        1 L0E      0.099700
     39 H39         9.7490    3.3600    3.3720 hx        1 L0E      0.099700
     40 H40         9.6240    0.9130    0.5580 hx        1 L0E      0.115950
     41 H41         8.8790    0.0240    1.9800 hx        1 L0E      0.115950
     42 H42        10.4070   -1.5400    0.8430 h1        1 L0E      0.093200
     43 H43        11.7860   -0.3190    0.8610 h1        1 L0E      0.093200
     44 H44        11.9500   -0.7970    4.5030 h1        1 L0E      0.093200
     45 H45        12.7420    0.1420    3.1310 h1        1 L0E      0.093200
     46 H46         9.8600    0.4960    4.3080 hx        1 L0E      0.115950
     47 H47        11.2460    1.6940    4.4110 hx        1 L0E      0.115950
     48 H48         8.7380    2.4740    5.3580 ha        1 L0E      0.133000
     49 H49         6.6400    1.7660    6.4900 ha        1 L0E      0.160000
     50 H50         0.7320    0.2560   -1.9520 hn        1 L0E      0.353500
     51 H51         2.4170    1.9180   -3.0540 ha        1 L0E      0.147000
     52 H52         4.7150    1.9630   -3.9720 ha        1 L0E      0.135500
     53 H53         6.4100    0.2900   -3.2260 ha        1 L0E      0.131000
     54 H54         5.7790   -1.4520   -1.5490 ha        1 L0E      0.135500
     55 H55         3.4900   -1.5480   -0.6360 ha        1 L0E      0.147000
@<TRIPOS>BOND
     1    1    2 2   
     2    2    3 1   
     3    2   25 1   
     4    3    4 1   
     5    3   35 1   
     6    4    5 2   
     7    4    8 1   
     8    5    6 1   
     9    5   36 1   
    10    6    7 1   
    11    6   32 1   
    12    7    8 2   
    13    8    9 1   
    14    9   10 2   
    15    9   24 1   
    16   10   11 1   
    17   11   12 ar  
    18   11   23 ar  
    19   12   13 ar  
    20   12   37 1   
    21   13   14 1   
    22   13   21 ar  
    23   14   15 1   
    24   14   38 1   
    25   14   39 1   
    26   15   16 1   
    27   15   20 1   
    28   15   33 1   
    29   16   17 1   
    30   16   40 1   
    31   16   41 1   
    32   17   18 1   
    33   17   42 1   
    34   17   43 1   
    35   18   19 1   
    36   19   20 1   
    37   19   44 1   
    38   19   45 1   
    39   20   46 1   
    40   20   47 1   
    41   21   22 ar  
    42   21   48 1   
    43   22   23 ar  
    44   22   49 1   
    45   23   24 1   
    46   24   34 1   
    47   25   26 1   
    48   25   50 1   
    49   26   27 ar  
    50   26   31 ar  
    51   27   28 ar  
    52   27   51 1   
    53   28   29 ar  
    54   28   52 1   
    55   29   30 ar  
    56   29   53 1   
    57   30   31 ar  
    58   30   54 1   
    59   31   55 1   
@<TRIPOS>SUBSTRUCTURE
     1 L0E         1 TEMP              0 ****  ****    0 ROOT
