@<TRIPOS>MOLECULE
L0E
   57    61     1     0     0
SMALL
bcc


@<TRIPOS>ATOM
      1 O1          5.2420   -0.8140   -0.8920 o         1 L0E     -0.326100
      2 C2          4.1760   -0.8470   -0.2990 c         1 L0E      0.530100
      3 N3          3.7970   -2.1060    0.4390 n4        1 L0E     -0.435200
      4 C4          2.8450   -1.9420    1.4890 cc        1 L0E     -0.336700
      5 C5          1.6180   -2.6480    1.6810 cd        1 L0E     -0.013300
      6 N6          1.1620   -2.2600    2.9210 na        1 L0E      0.063400
      7 N8          1.9660   -1.3950    3.5400 nd        1 L0E     -0.406800
      8 C9          3.0260   -1.1660    2.7150 cc        1 L0E      0.327000
      9 C10         4.1590   -0.3060    3.0060 cc        1 L0E      0.341800
     10 N11         5.0690    0.0900    2.0670 nd        1 L0E     -0.691100
     11 C12         6.0070    0.8630    2.7680 ca        1 L0E      0.073400
     12 C13         7.1790    1.5250    2.3520 ca        1 L0E     -0.050000
     13 C14         7.9030    2.2450    3.2940 ca        1 L0E     -0.136300
     14 C15         9.0810    3.0650    2.8660 c3        1 L0E      0.165100
     15 N16        10.4360    2.4870    3.1480 n4        1 L0E     -0.684400
     16 C18        10.6800    1.2160    2.3910 c3        1 L0E      0.066300
     17 C19        12.0450    0.5980    2.7370 c3        1 L0E      0.098400
     18 O20        12.1530    0.3990    4.1380 os        1 L0E     -0.363600
     19 C21        12.0600    1.6190    4.8580 c3        1 L0E      0.098400
     20 C22        10.6910    2.2710    4.6110 c3        1 L0E      0.066300
     21 C23         7.4840    2.3230    4.6470 ca        1 L0E     -0.086000
     22 C24         6.3560    1.6720    5.1060 ca        1 L0E     -0.084000
     23 C25         5.6130    0.9330    4.1690 ca        1 L0E     -0.034200
     24 N26         4.4430    0.1840    4.2870 na        1 L0E     -0.191300
     25 N28         3.2350    0.3070   -0.2990 n4        1 L0E     -0.470200
     26 C29         2.3560    0.2910   -1.4800 ca        1 L0E     -0.123400
     27 C30         2.9210    0.4160   -2.7650 ca        1 L0E     -0.098500
     28 C31         2.0730    0.4840   -3.8670 ca        1 L0E     -0.089500
     29 C32         0.6860    0.4320   -3.7000 ca        1 L0E     -0.028000
     30 C33         0.1370    0.3070   -2.4200 ca        1 L0E     -0.089500
     31 C34         0.9610    0.2340   -1.3000 ca        1 L0E     -0.098500
     32 H7          0.3210   -2.5770    3.3870 hn        1 L0E      0.400700
     33 H17        11.1290    3.1780    2.8180 hn        1 L0E      0.457800
     34 H27         3.9180    0.0220    5.1160 hn        1 L0E      0.359700
     35 H35         4.6850   -2.4750    0.8470 hn        1 L0E      0.510800
     36 H36         1.0860   -3.3660    1.0400 h4        1 L0E      0.243000
     37 H37         7.4980    1.4750    1.3000 ha        1 L0E      0.155000
     38 H38         9.0390    4.0660    3.3940 hx        1 L0E      0.113700
     39 H39         9.0350    3.2490    1.7520 hx        1 L0E      0.113700
     40 H40        10.6330    1.4400    1.2890 hx        1 L0E      0.107950
     41 H41         9.8570    0.4960    2.6640 hx        1 L0E      0.107950
     42 H42        12.1150   -0.4330    2.2940 h1        1 L0E      0.107950
     43 H43        12.8860    1.2370    2.3590 h1        1 L0E      0.107950
     44 H44        12.9000    2.3110    4.5840 h1        1 L0E      0.107950
     45 H45        12.1450    1.3210    5.9400 h1        1 L0E      0.107950
     46 H46         9.8820    1.5910    5.0040 hx        1 L0E      0.107950
     47 H47        10.6360    3.2650    5.1360 hx        1 L0E      0.107950
     48 H48         8.0660    2.9400    5.3550 ha        1 L0E      0.166000
     49 H49         6.0450    1.7380    6.1620 ha        1 L0E      0.190000
     50 H50         3.8210    1.1650   -0.3310 hn        1 L0E      0.502800
     51 H51         4.0130    0.4700   -2.9140 ha        1 L0E      0.160500
     52 H52         2.5060    0.5880   -4.8810 ha        1 L0E      0.197500
     53 H53         0.0200    0.4960   -4.5830 ha        1 L0E      0.202000
     54 H54        -0.9610    0.2790   -2.2910 ha        1 L0E      0.197500
     55 H55         0.5050    0.1630   -0.2990 ha        1 L0E      0.160500
     56 H32         3.4420   -2.7920   -0.2530 hn        1 L0E      0.510800
     57 H282        2.6680    0.3250    0.5660 hn        1 L0E      0.502800
@<TRIPOS>BOND
     1    1    2 2   
     2    2    3 1   
     3    2   25 1   
     4    3    4 1   
     5    3   35 1   
     6    3   56 1   
     7    4    5 2   
     8    4    8 1   
     9    5    6 1   
    10    5   36 1   
    11    6    7 1   
    12    6   32 1   
    13    7    8 2   
    14    8    9 1   
    15    9   10 2   
    16    9   24 1   
    17   10   11 1   
    18   11   12 ar  
    19   11   23 ar  
    20   12   13 ar  
    21   12   37 1   
    22   13   14 1   
    23   13   21 ar  
    24   14   15 1   
    25   14   38 1   
    26   14   39 1   
    27   15   16 1   
    28   15   20 1   
    29   15   33 1   
    30   16   17 1   
    31   16   40 1   
    32   16   41 1   
    33   17   18 1   
    34   17   42 1   
    35   17   43 1   
    36   18   19 1   
    37   19   20 1   
    38   19   44 1   
    39   19   45 1   
    40   20   46 1   
    41   20   47 1   
    42   21   22 ar  
    43   21   48 1   
    44   22   23 ar  
    45   22   49 1   
    46   23   24 1   
    47   24   34 1   
    48   25   26 1   
    49   25   50 1   
    50   25   57 1   
    51   26   27 ar  
    52   26   31 ar  
    53   27   28 ar  
    54   27   51 1   
    55   28   29 ar  
    56   28   52 1   
    57   29   30 ar  
    58   29   53 1   
    59   30   31 ar  
    60   30   54 1   
    61   31   55 1   
@<TRIPOS>SUBSTRUCTURE
     1 L0E         1 TEMP              0 ****  ****    0 ROOT
