@<TRIPOS>MOLECULE
L0F
   36    39     1     0     0
SMALL
bcc


@<TRIPOS>ATOM
      1 O1         -0.1400    0.2170   -0.1540 o         1 L0F     -0.604100
      2 C2          1.1040    0.1310   -0.1080 c         1 L0F      0.676700
      3 N3          1.7830    0.0410    1.1020 n         1 L0F     -0.432100
      4 C4          1.1610    0.0820    2.3330 cc        1 L0F     -0.054700
      5 C5         -0.2250    0.1620    2.6210 cd        1 L0F     -0.175300
      6 N6         -0.3270    0.1720    4.0140 na        1 L0F      0.007400
      7 N8          0.8430    0.1070    4.6270 nd        1 L0F     -0.508800
      8 C9          1.8030    0.0510    3.6470 cc        1 L0F      0.244000
      9 C10         3.2270   -0.0240    3.9150 cc        1 L0F      0.404800
     10 N11         4.2090   -0.0420    2.9790 nd        1 L0F     -0.600100
     11 C12         5.4120   -0.1190    3.6990 ca        1 L0F      0.073400
     12 C13         6.7470   -0.1700    3.2690 ca        1 L0F     -0.075000
     13 C14         7.7440   -0.2440    4.2280 ca        1 L0F     -0.150000
     14 C15         7.4520   -0.2690    5.6040 ca        1 L0F     -0.115000
     15 C16         6.1490   -0.2220    6.0750 ca        1 L0F     -0.132000
     16 C17         5.1230   -0.1470    5.1250 ca        1 L0F     -0.073200
     17 N18         3.7330   -0.0870    5.2350 na        1 L0F     -0.263300
     18 C20         1.9340    0.0930   -1.3450 ca        1 L0F     -0.142600
     19 C21         1.4090   -0.5670   -2.4630 ca        1 L0F     -0.087500
     20 C22         2.1420   -0.6180   -3.6470 ca        1 L0F     -0.139000
     21 C23         3.3930   -0.0050   -3.7220 ca        1 L0F     -0.106000
     22 C24         3.9100    0.6630   -2.6130 ca        1 L0F     -0.139000
     23 C25         3.1840    0.7150   -1.4220 ca        1 L0F     -0.087500
     24 H7         -1.1660    0.2230    4.5440 hn        1 L0F      0.329700
     25 H19         3.2030   -0.0810    6.0650 hn        1 L0F      0.318700
     26 H26         2.7750   -0.0610    1.0920 hn        1 L0F      0.357500
     27 H27        -1.0810    0.2130    1.9470 h4        1 L0F      0.217000
     28 H28         6.9860   -0.1510    2.1960 ha        1 L0F      0.144000
     29 H29         8.7970   -0.2840    3.9110 ha        1 L0F      0.132000
     30 H30         8.2830   -0.3290    6.3240 ha        1 L0F      0.132000
     31 H31         5.9280   -0.2430    7.1510 ha        1 L0F      0.136000
     32 H32         0.4130   -1.0330   -2.3970 ha        1 L0F      0.149000
     33 H33         1.7300   -1.1400   -4.5240 ha        1 L0F      0.138000
     34 H34         3.9700   -0.0460   -4.6580 ha        1 L0F      0.135000
     35 H35         4.8930    1.1540   -2.6740 ha        1 L0F      0.138000
     36 H36         3.6010    1.2580   -0.5600 ha        1 L0F      0.149000
@<TRIPOS>BOND
     1    1    2 2   
     2    2    3 1   
     3    2   18 1   
     4    3    4 1   
     5    3   26 1   
     6    4    5 2   
     7    4    8 1   
     8    5    6 1   
     9    5   27 1   
    10    6    7 1   
    11    6   24 1   
    12    7    8 2   
    13    8    9 1   
    14    9   10 2   
    15    9   17 1   
    16   10   11 1   
    17   11   12 ar  
    18   11   16 ar  
    19   12   13 ar  
    20   12   28 1   
    21   13   14 ar  
    22   13   29 1   
    23   14   15 ar  
    24   14   30 1   
    25   15   16 ar  
    26   15   31 1   
    27   16   17 1   
    28   17   25 1   
    29   18   19 ar  
    30   18   23 ar  
    31   19   20 ar  
    32   19   32 1   
    33   20   21 ar  
    34   20   33 1   
    35   21   22 ar  
    36   21   34 1   
    37   22   23 ar  
    38   22   35 1   
    39   23   36 1   
@<TRIPOS>SUBSTRUCTURE
     1 L0F         1 TEMP              0 ****  ****    0 ROOT
