@<TRIPOS>MOLECULE
L0F
   36    39     1     0     0
SMALL
bcc


@<TRIPOS>ATOM
      1 O1         -3.3370   -1.8400    0.2120 o         1 L0F     -0.604100
      2 C2         -2.7010   -0.7700    0.1330 c         1 L0F      0.676700
      3 N3         -1.3140   -0.7510    0.0490 n         1 L0F     -0.432100
      4 C4         -0.5300   -1.8860    0.0900 cc        1 L0F     -0.054700
      5 C5         -0.9390   -3.2410    0.1640 cd        1 L0F     -0.175300
      6 N6          0.2360   -3.9970    0.1760 na        1 L0F      0.007400
      7 N8          1.3330   -3.2620    0.1170 nd        1 L0F     -0.508800
      8 C9          0.9310   -1.9490    0.0640 cc        1 L0F      0.244000
      9 C10         1.8480   -0.8260   -0.0040 cc        1 L0F      0.404800
     10 N11         1.4940    0.4830   -0.0180 nd        1 L0F     -0.600100
     11 C12         2.7030    1.1970   -0.0900 ca        1 L0F      0.073400
     12 C13         2.9620    2.5750   -0.1340 ca        1 L0F     -0.075000
     13 C14         4.2820    2.9930   -0.2030 ca        1 L0F     -0.150000
     14 C15         5.3510    2.0780   -0.2280 ca        1 L0F     -0.115000
     15 C16         5.1420    0.7080   -0.1860 ca        1 L0F     -0.132000
     16 C17         3.8170    0.2620   -0.1170 ca        1 L0F     -0.073200
     17 N18         3.2490   -1.0120   -0.0630 na        1 L0F     -0.263300
     18 C20        -3.3910    0.5510    0.0970 ca        1 L0F     -0.142600
     19 C21        -4.6210    0.6260   -0.5690 ca        1 L0F     -0.087500
     20 C22        -5.3110    1.8360   -0.6190 ca        1 L0F     -0.139000
     21 C23        -4.7820    2.9690    0.0020 ca        1 L0F     -0.106000
     22 C24        -3.5630    2.8900    0.6760 ca        1 L0F     -0.139000
     23 C25        -2.8650    1.6830    0.7260 ca        1 L0F     -0.087500
     24 H7          0.3000   -4.9870    0.2240 hn        1 L0F      0.329700
     25 H19         3.7250   -1.8740   -0.0590 hn        1 L0F      0.318700
     26 H26        -0.8480    0.1260   -0.0480 hn        1 L0F      0.357500
     27 H27        -1.9400   -3.6720    0.2090 h4        1 L0F      0.217000
     28 H28         2.1340    3.2970   -0.1160 ha        1 L0F      0.144000
     29 H29         4.5060    4.0690   -0.2390 ha        1 L0F      0.132000
     30 H30         6.3800    2.4650   -0.2830 ha        1 L0F      0.132000
     31 H31         5.9810    0.0010   -0.2070 ha        1 L0F      0.136000
     32 H32        -5.0370   -0.2780   -1.0400 ha        1 L0F      0.149000
     33 H33        -6.2750    1.8950   -1.1450 ha        1 L0F      0.138000
     34 H34        -5.3280    3.9230   -0.0380 ha        1 L0F      0.135000
     35 H35        -3.1500    3.7800    1.1720 ha        1 L0F      0.138000
     36 H36        -1.9100    1.6350    1.2730 ha        1 L0F      0.149000
@<TRIPOS>BOND
     1    1    2 2   
     2    2    3 1   
     3    2   18 1   
     4    3    4 1   
     5    3   26 1   
     6    4    5 2   
     7    4    8 1   
     8    5    6 1   
     9    5   27 1   
    10    6    7 1   
    11    6   24 1   
    12    7    8 2   
    13    8    9 1   
    14    9   10 2   
    15    9   17 1   
    16   10   11 1   
    17   11   12 ar  
    18   11   16 ar  
    19   12   13 ar  
    20   12   28 1   
    21   13   14 ar  
    22   13   29 1   
    23   14   15 ar  
    24   14   30 1   
    25   15   16 ar  
    26   15   31 1   
    27   16   17 1   
    28   17   25 1   
    29   18   19 ar  
    30   18   23 ar  
    31   19   20 ar  
    32   19   32 1   
    33   20   21 ar  
    34   20   33 1   
    35   21   22 ar  
    36   21   34 1   
    37   22   23 ar  
    38   22   35 1   
    39   23   36 1   
@<TRIPOS>SUBSTRUCTURE
     1 L0F         1 TEMP              0 ****  ****    0 ROOT
