@<TRIPOS>MOLECULE
L0F
   37    40     1     0     0
SMALL
bcc


@<TRIPOS>ATOM
      1 O1         -0.0690    0.1800   -0.0750 o         1 L0F     -0.448100
      2 C2          1.1530    0.1090   -0.1320 c         1 L0F      0.583700
      3 N3          1.9130    0.0780    1.1800 n4        1 L0F     -0.487200
      4 C4          1.1570    0.0300    2.3930 cc        1 L0F     -0.240700
      5 C5         -0.2400    0.0210    2.6250 cd        1 L0F     -0.036300
      6 N6         -0.3870   -0.0330    4.0000 na        1 L0F      0.023400
      7 N8          0.7710   -0.0580    4.6620 nd        1 L0F     -0.463800
      8 C9          1.7610   -0.0210    3.7250 cc        1 L0F      0.342000
      9 C10         3.1870   -0.0280    3.9920 cc        1 L0F      0.335800
     10 N11         4.1410    0.0180    3.0210 nd        1 L0F     -0.636100
     11 C12         5.3640   -0.0070    3.7010 ca        1 L0F      0.071400
     12 C13         6.6910    0.0190    3.2320 ca        1 L0F     -0.077000
     13 C14         7.7130   -0.0170    4.1620 ca        1 L0F     -0.129000
     14 C15         7.4590   -0.0770    5.5500 ca        1 L0F     -0.090000
     15 C16         6.1730   -0.1040    6.0580 ca        1 L0F     -0.123000
     16 C17         5.1160   -0.0690    5.1330 ca        1 L0F     -0.060200
     17 N18         3.7290   -0.0820    5.2880 na        1 L0F     -0.225300
     18 C20         1.9790    0.0430   -1.3400 ca        1 L0F     -0.210600
     19 C21         1.2850   -0.0660   -2.5600 ca        1 L0F     -0.064000
     20 C22         1.9920   -0.1310   -3.7590 ca        1 L0F     -0.127000
     21 C23         3.3860   -0.0850   -3.7530 ca        1 L0F     -0.048000
     22 C24         4.0770    0.0270   -2.5420 ca        1 L0F     -0.127000
     23 C25         3.3830    0.0920   -1.3380 ca        1 L0F     -0.064000
     24 H7         -1.2480   -0.0520    4.5100 hn        1 L0F      0.361700
     25 H19         3.2240   -0.1190    6.1360 hn        1 L0F      0.331700
     26 H26         2.5370   -0.7480    1.1640 hn        1 L0F      0.479800
     27 H27        -1.0870    0.0510    1.9300 h4        1 L0F      0.230000
     28 H28         6.9000    0.0660    2.1540 ha        1 L0F      0.146000
     29 H29         8.7600    0.0020    3.8200 ha        1 L0F      0.150000
     30 H30         8.3150   -0.1040    6.2440 ha        1 L0F      0.153000
     31 H31         5.9820   -0.1520    7.1390 ha        1 L0F      0.154000
     32 H32         0.1820   -0.0990   -2.5630 ha        1 L0F      0.154500
     33 H33         1.4440   -0.2180   -4.7120 ha        1 L0F      0.167500
     34 H34         3.9450   -0.1370   -4.7020 ha        1 L0F      0.167000
     35 H35         5.1780    0.0670   -2.5400 ha        1 L0F      0.167500
     36 H36         3.9690    0.1870   -0.4100 ha        1 L0F      0.154500
     37 H321        2.5140    0.9200    1.2160 hn        1 L0F      0.479800
@<TRIPOS>BOND
     1    1    2 2   
     2    2    3 1   
     3    2   18 1   
     4    3    4 1   
     5    3   26 1   
     6    3   37 1   
     7    4    5 2   
     8    4    8 1   
     9    5    6 1   
    10    5   27 1   
    11    6    7 1   
    12    6   24 1   
    13    7    8 2   
    14    8    9 1   
    15    9   10 2   
    16    9   17 1   
    17   10   11 1   
    18   11   12 ar  
    19   11   16 ar  
    20   12   13 ar  
    21   12   28 1   
    22   13   14 ar  
    23   13   29 1   
    24   14   15 ar  
    25   14   30 1   
    26   15   16 ar  
    27   15   31 1   
    28   16   17 1   
    29   17   25 1   
    30   18   19 ar  
    31   18   23 ar  
    32   19   20 ar  
    33   19   32 1   
    34   20   21 ar  
    35   20   33 1   
    36   21   22 ar  
    37   21   34 1   
    38   22   23 ar  
    39   22   35 1   
    40   23   36 1   
@<TRIPOS>SUBSTRUCTURE
     1 L0F         1 TEMP              0 ****  ****    0 ROOT
