@<TRIPOS>MOLECULE
L0G
   54    58     1     0     0
SMALL
bcc


@<TRIPOS>ATOM
      1 O1          3.0990    0.9580   -0.1990 o         1 L0G     -0.519100
      2 C2          2.4640   -0.0340    0.1820 c         1 L0G      0.653100
      3 N3          2.5910   -0.3320    1.6710 ny        1 L0G     -0.618800
      4 C4          1.2930   -0.3590    2.3680 cx        1 L0G     -0.046500
      5 C5          1.2170   -0.0060    3.8470 cx        1 L0G     -0.079400
      6 C6          0.6220    0.9200    2.8380 cx        1 L0G     -0.079400
      7 N7          1.7860   -0.9300   -0.6280 ns        1 L0G     -0.378100
      8 C8          1.1760   -0.5060   -1.8130 cc        1 L0G     -0.141700
      9 C9         -0.2290   -0.4060   -2.0340 cd        1 L0G     -0.088300
     10 N10        -0.3890   -0.0950   -3.3780 na        1 L0G      0.071400
     11 N12         0.7520    0.0200   -4.0220 nc        1 L0G     -0.418800
     12 C13         1.7640   -0.2150   -3.1140 cc        1 L0G      0.181300
     13 C14         3.1450   -0.1360   -3.5590 cd        1 L0G      0.220800
     14 N15         3.5970   -0.6920   -4.7410 na        1 L0G     -0.113400
     15 C17         4.9540   -0.3440   -4.9040 ca        1 L0G     -0.062200
     16 C18         5.8840   -0.6280   -5.9130 ca        1 L0G     -0.054000
     17 C19         7.1750   -0.1240   -5.7540 ca        1 L0G     -0.113300
     18 C20         8.2320   -0.5060   -6.7490 c3        1 L0G      0.153100
     19 N21         8.8260    0.6440   -7.5010 nx        1 L0G     -0.687400
     20 C23        10.1270    0.2350   -8.1450 c3        1 L0G      0.068800
     21 C24        10.7040    1.3610   -9.0150 c3        1 L0G      0.098400
     22 O25         9.7550    1.7710   -9.9880 os        1 L0G     -0.353600
     23 C26         8.5660    2.2690   -9.4000 c3        1 L0G      0.098400
     24 C27         7.8950    1.1750   -8.5540 c3        1 L0G      0.068800
     25 C28         7.5290    0.6480   -4.6270 ca        1 L0G     -0.089000
     26 C29         6.6230    0.9470   -3.6160 ca        1 L0G     -0.068000
     27 C30         5.3220    0.4470   -3.7500 ca        1 L0G     -0.043200
     28 N31         4.1720    0.5450   -2.9380 na        1 L0G     -0.127400
     29 H11        -1.2620    0.0530   -3.8640 hn        1 L0G      0.390700
     30 H16         3.0370   -1.2090   -5.3870 hn        1 L0G      0.375700
     31 H22         9.0240    1.4080   -6.8410 hn        1 L0G      0.442800
     32 H32         4.0860    1.0870   -2.1010 hn        1 L0G      0.376700
     33 H33         3.1830    0.4170    2.0720 hn        1 L0G      0.480800
     34 H34         0.6650   -1.1990    1.9940 hx        1 L0G      0.135700
     35 H35         0.5600   -0.6370    4.4820 hc        1 L0G      0.126450
     36 H36         2.1290    0.3030    4.3950 hc        1 L0G      0.126450
     37 H37         1.1050    1.9010    2.6580 hc        1 L0G      0.126450
     38 H38        -0.4800    0.9850    2.7310 hc        1 L0G      0.126450
     39 H39         1.3450   -1.7280   -0.2050 hn        1 L0G      0.360500
     40 H40        -1.0790   -0.5460   -1.3570 h4        1 L0G      0.231000
     41 H41         5.6020   -1.2410   -6.7860 ha        1 L0G      0.185000
     42 H42         7.8190   -1.2350   -7.5080 hx        1 L0G      0.124200
     43 H43         9.0740   -1.0220   -6.1940 hx        1 L0G      0.124200
     44 H44         9.9220   -0.6690   -8.7860 hx        1 L0G      0.113450
     45 H45        10.8610   -0.0370   -7.3360 hx        1 L0G      0.113450
     46 H46        11.0360    2.2320   -8.3900 h1        1 L0G      0.108200
     47 H47        11.5720    0.9630   -9.6140 h1        1 L0G      0.108200
     48 H48         7.9020    2.5280  -10.2730 h1        1 L0G      0.108200
     49 H49         8.7740    3.1870   -8.7890 h1        1 L0G      0.108200
     50 H50         7.6080    0.3160   -9.2270 hx        1 L0G      0.113450
     51 H51         6.9770    1.5820   -8.0490 hx        1 L0G      0.113450
     52 H52         8.5670    1.0130   -4.5200 ha        1 L0G      0.170000
     53 H53         6.9220    1.5530   -2.7440 ha        1 L0G      0.193000
     54 H321        3.0650   -1.2340    1.8170 hn        1 L0G      0.480800
@<TRIPOS>BOND
     1    1    2 2   
     2    2    3 1   
     3    2    7 1   
     4    3    4 1   
     5    3   33 1   
     6    3   54 1   
     7    4    5 1   
     8    4    6 1   
     9    4   34 1   
    10    5    6 1   
    11    5   35 1   
    12    5   36 1   
    13    6   37 1   
    14    6   38 1   
    15    7    8 1   
    16    7   39 1   
    17    8    9 2   
    18    8   12 1   
    19    9   10 1   
    20    9   40 1   
    21   10   11 2   
    22   10   29 1   
    23   11   12 1   
    24   12   13 2   
    25   13   14 1   
    26   13   28 1   
    27   14   15 1   
    28   14   30 1   
    29   15   16 ar  
    30   15   27 ar  
    31   16   17 ar  
    32   16   41 1   
    33   17   18 1   
    34   17   25 ar  
    35   18   19 1   
    36   18   42 1   
    37   18   43 1   
    38   19   20 1   
    39   19   24 1   
    40   19   31 1   
    41   20   21 1   
    42   20   44 1   
    43   20   45 1   
    44   21   22 1   
    45   21   46 1   
    46   21   47 1   
    47   22   23 1   
    48   23   24 1   
    49   23   48 1   
    50   23   49 1   
    51   24   50 1   
    52   24   51 1   
    53   25   26 ar  
    54   25   52 1   
    55   26   27 ar  
    56   26   53 1   
    57   27   28 1   
    58   28   32 1   
@<TRIPOS>SUBSTRUCTURE
     1 L0G         1 TEMP              0 ****  ****    0 ROOT
