@<TRIPOS>MOLECULE
L0G
   55    59     1     0     0
SMALL
bcc


@<TRIPOS>ATOM
      1 O1          2.3950   -2.0930   -0.6960 o         1 L0G     -0.286100
      2 C2          2.0390   -1.2900    0.1490 c         1 L0G      0.478100
      3 N3          1.5490   -1.7410    1.4850 n4        1 L0G     -0.592800
      4 C4          0.5980   -0.8310    2.1520 cx        1 L0G     -0.110500
      5 C5          0.3470   -0.9860    3.6570 cx        1 L0G     -0.065900
      6 C6          1.0550    0.2250    3.1480 cx        1 L0G     -0.065900
      7 N7          2.1100    0.1980   -0.1520 n4        1 L0G     -0.446200
      8 C8          1.5160    0.5330   -1.4140 cc        1 L0G     -0.276700
      9 C9          0.1140    0.7550   -1.6270 cd        1 L0G     -0.013300
     10 N10        -0.0200    1.0820   -2.9580 na        1 L0G      0.089400
     11 N12         1.1340    1.0940   -3.6080 nc        1 L0G     -0.359800
     12 C13         2.1280    0.7680   -2.7220 cc        1 L0G      0.239300
     13 C14         3.5050    0.7600   -3.2300 cd        1 L0G      0.114800
     14 N15         4.0270   -0.2170   -4.0510 na        1 L0G     -0.080400
     15 C17         5.2820    0.2200   -4.5240 ca        1 L0G     -0.062200
     16 C18         6.2160   -0.3530   -5.4020 ca        1 L0G     -0.056000
     17 C19         7.3750    0.3750   -5.6720 ca        1 L0G     -0.079300
     18 C20         8.4490   -0.2600   -6.5130 c3        1 L0G      0.143100
     19 N21         8.8860    0.5210   -7.7090 n4        1 L0G     -0.688400
     20 C23        10.2190    0.0090   -8.2070 c3        1 L0G      0.068800
     21 C24        10.6450    0.7130   -9.5050 c3        1 L0G      0.098400
     22 O25         9.6390    0.5690  -10.4930 os        1 L0G     -0.346600
     23 C26         8.4120    1.1550  -10.0980 c3        1 L0G      0.098400
     24 C27         7.8840    0.4590   -8.8290 c3        1 L0G      0.068800
     25 C28         7.6010    1.6400   -5.0800 ca        1 L0G     -0.073000
     26 C29         6.6920    2.2330   -4.2140 ca        1 L0G     -0.060000
     27 C30         5.5160    1.5210   -3.9320 ca        1 L0G     -0.045200
     28 N31         4.3940    1.8130   -3.1310 na        1 L0G     -0.100400
     29 H11        -0.8800    1.3150   -3.4520 hn        1 L0G      0.422700
     30 H16         3.5600   -1.0570   -4.3300 hn        1 L0G      0.376700
     31 H22         9.0070    1.5070   -7.4480 hn        1 L0G      0.442800
     32 H32         4.2160    2.6920   -2.6900 hn        1 L0G      0.372700
     33 H33         1.0770   -2.6660    1.3430 hn        1 L0G      0.522300
     34 H34        -0.2930   -0.6560    1.5040 hx        1 L0G      0.153700
     35 H35        -0.7140   -0.9230    3.9940 hc        1 L0G      0.145200
     36 H36         0.9070   -1.7400    4.2500 hc        1 L0G      0.145200
     37 H37         2.1310    0.3450    3.3890 hc        1 L0G      0.145200
     38 H38         0.5240    1.2020    3.1350 hc        1 L0G      0.145200
     39 H39         1.6360    0.7470    0.5950 hn        1 L0G      0.504800
     40 H40        -0.7430    0.7170   -0.9380 h4        1 L0G      0.246000
     41 H41         6.0360   -1.3460   -5.8510 ha        1 L0G      0.195000
     42 H42         8.1150   -1.2780   -6.8750 hx        1 L0G      0.130700
     43 H43         9.3590   -0.4130   -5.8510 hx        1 L0G      0.130700
     44 H44        10.9940    0.1810   -7.4070 hx        1 L0G      0.113700
     45 H45        10.1110   -1.0970   -8.3980 hx        1 L0G      0.113700
     46 H46        11.5460    0.1880   -9.9340 h1        1 L0G      0.114200
     47 H47        10.8800    1.7960   -9.3260 h1        1 L0G      0.114200
     48 H48         7.7080    0.9540  -10.9550 h1        1 L0G      0.114200
     49 H49         8.5240    2.2600   -9.9400 h1        1 L0G      0.114200
     50 H50         6.9320    0.9490   -8.4880 hx        1 L0G      0.113700
     51 H51         7.6920   -0.6270   -9.0640 hx        1 L0G      0.113700
     52 H52         8.5430    2.1830   -5.2900 ha        1 L0G      0.186000
     53 H53         6.8930    3.2240   -3.7680 ha        1 L0G      0.208000
     54 H321        2.3730   -1.9070    2.0990 hn        1 L0G      0.522300
     55 H72         3.1130    0.4570   -0.1690 hn        1 L0G      0.504800
@<TRIPOS>BOND
     1    1    2 2   
     2    2    3 1   
     3    2    7 1   
     4    3    4 1   
     5    3   33 1   
     6    3   54 1   
     7    4    5 1   
     8    4    6 1   
     9    4   34 1   
    10    5    6 1   
    11    5   35 1   
    12    5   36 1   
    13    6   37 1   
    14    6   38 1   
    15    7    8 1   
    16    7   39 1   
    17    7   55 1   
    18    8    9 2   
    19    8   12 1   
    20    9   10 1   
    21    9   40 1   
    22   10   11 2   
    23   10   29 1   
    24   11   12 1   
    25   12   13 2   
    26   13   14 1   
    27   13   28 1   
    28   14   15 1   
    29   14   30 1   
    30   15   16 ar  
    31   15   27 ar  
    32   16   17 ar  
    33   16   41 1   
    34   17   18 1   
    35   17   25 ar  
    36   18   19 1   
    37   18   42 1   
    38   18   43 1   
    39   19   20 1   
    40   19   24 1   
    41   19   31 1   
    42   20   21 1   
    43   20   44 1   
    44   20   45 1   
    45   21   22 1   
    46   21   46 1   
    47   21   47 1   
    48   22   23 1   
    49   23   24 1   
    50   23   48 1   
    51   23   49 1   
    52   24   50 1   
    53   24   51 1   
    54   25   26 ar  
    55   25   52 1   
    56   26   27 ar  
    57   26   53 1   
    58   27   28 1   
    59   28   32 1   
@<TRIPOS>SUBSTRUCTURE
     1 L0G         1 TEMP              0 ****  ****    0 ROOT
