@<TRIPOS>MOLECULE
L0G
   54    58     1     0     0
SMALL
bcc


@<TRIPOS>ATOM
      1 O1          3.0980    0.9490   -0.1970 o         1 L0G     -0.519100
      2 C2          2.4640   -0.0450    0.1810 c         1 L0G      0.653100
      3 N3          2.5920   -0.3450    1.6700 n4        1 L0G     -0.618800
      4 C4          1.2940   -0.3750    2.3670 cx        1 L0G     -0.046500
      5 C5          1.2180   -0.0250    3.8460 cx        1 L0G     -0.079400
      6 C6          0.6220    0.9030    2.8390 cx        1 L0G     -0.079400
      7 N7          1.7870   -0.9400   -0.6300 n         1 L0G     -0.378100
      8 C8          1.1770   -0.5140   -1.8150 cc        1 L0G     -0.141700
      9 C9         -0.2280   -0.4150   -2.0350 cd        1 L0G     -0.088300
     10 N10        -0.3890   -0.1010   -3.3780 na        1 L0G      0.071400
     11 N12         0.7520    0.0160   -4.0220 nc        1 L0G     -0.418800
     12 C13         1.7640   -0.2200   -3.1150 cc        1 L0G      0.181300
     13 C14         3.1450   -0.1390   -3.5600 cd        1 L0G      0.220800
     14 N15         3.5980   -0.6910   -4.7440 na        1 L0G     -0.113400
     15 C17         4.9540   -0.3420   -4.9060 ca        1 L0G     -0.062200
     16 C18         5.8840   -0.6230   -5.9150 ca        1 L0G     -0.054000
     17 C19         7.1750   -0.1180   -5.7560 ca        1 L0G     -0.113300
     18 C20         8.2310   -0.4970   -6.7520 c3        1 L0G      0.153100
     19 N21         8.8250    0.6560   -7.5000 n4        1 L0G     -0.687400
     20 C23        10.1260    0.2490   -8.1450 c3        1 L0G      0.068800
     21 C24        10.7030    1.3780   -9.0130 c3        1 L0G      0.098400
     22 O25         9.7550    1.7900   -9.9840 os        1 L0G     -0.353600
     23 C26         8.5640    2.2860   -9.3950 c3        1 L0G      0.098400
     24 C27         7.8940    1.1890   -8.5520 c3        1 L0G      0.068800
     25 C28         7.5290    0.6510   -4.6260 ca        1 L0G     -0.089000
     26 C29         6.6220    0.9470   -3.6150 ca        1 L0G     -0.068000
     27 C30         5.3220    0.4460   -3.7500 ca        1 L0G     -0.043200
     28 N31         4.1720    0.5420   -2.9370 na        1 L0G     -0.127400
     29 H11        -1.2620    0.0460   -3.8640 hn        1 L0G      0.390700
     30 H16         3.0380   -1.2060   -5.3910 hn        1 L0G      0.375700
     31 H22         9.0230    1.4170   -6.8390 hn        1 L0G      0.442800
     32 H32         4.0850    1.0820   -2.0990 hn        1 L0G      0.376700
     33 H33         3.1840    0.4030    2.0730 hn        1 L0G      0.480800
     34 H34         0.6670   -1.2160    1.9920 hx        1 L0G      0.135700
     35 H35         2.1300    0.2850    4.3950 hc        1 L0G      0.126450
     36 H36         0.5620   -0.6570    4.4810 hc        1 L0G      0.126450
     37 H37         1.1030    1.8840    2.6610 hc        1 L0G      0.126450
     38 H38        -0.4810    0.9660    2.7320 hc        1 L0G      0.126450
     39 H39         1.3470   -1.7390   -0.2090 hn        1 L0G      0.360500
     40 H40        -1.0780   -0.5580   -1.3570 h4        1 L0G      0.231000
     41 H41         5.6020   -1.2330   -6.7900 ha        1 L0G      0.185000
     42 H42         7.8190   -1.2240   -7.5120 hx        1 L0G      0.124200
     43 H43         9.0740   -1.0140   -6.1980 hx        1 L0G      0.124200
     44 H44         9.9220   -0.6530   -8.7890 hx        1 L0G      0.113450
     45 H45        10.8610   -0.0250   -7.3370 hx        1 L0G      0.113450
     46 H46        11.5720    0.9810   -9.6120 h1        1 L0G      0.108200
     47 H47        11.0340    2.2470   -8.3850 h1        1 L0G      0.108200
     48 H48         8.7720    3.2020   -8.7810 h1        1 L0G      0.108200
     49 H49         7.9010    2.5470  -10.2670 h1        1 L0G      0.108200
     50 H50         6.9760    1.5940   -8.0460 hx        1 L0G      0.113450
     51 H51         7.6080    0.3320   -9.2270 hx        1 L0G      0.113450
     52 H52         8.5660    1.0160   -4.5190 ha        1 L0G      0.170000
     53 H53         6.9210    1.5510   -2.7420 ha        1 L0G      0.193000
     54 H321        3.0670   -1.2470    1.8140 hn        1 L0G      0.480800
@<TRIPOS>BOND
     1    1    2 2   
     2    2    3 1   
     3    2    7 1   
     4    3    4 1   
     5    3   33 1   
     6    3   54 1   
     7    4    5 1   
     8    4    6 1   
     9    4   34 1   
    10    5    6 1   
    11    5   35 1   
    12    5   36 1   
    13    6   37 1   
    14    6   38 1   
    15    7    8 1   
    16    7   39 1   
    17    8    9 2   
    18    8   12 1   
    19    9   10 1   
    20    9   40 1   
    21   10   11 2   
    22   10   29 1   
    23   11   12 1   
    24   12   13 2   
    25   13   14 1   
    26   13   28 1   
    27   14   15 1   
    28   14   30 1   
    29   15   16 ar  
    30   15   27 ar  
    31   16   17 ar  
    32   16   41 1   
    33   17   18 1   
    34   17   25 ar  
    35   18   19 1   
    36   18   42 1   
    37   18   43 1   
    38   19   20 1   
    39   19   24 1   
    40   19   31 1   
    41   20   21 1   
    42   20   44 1   
    43   20   45 1   
    44   21   22 1   
    45   21   46 1   
    46   21   47 1   
    47   22   23 1   
    48   23   24 1   
    49   23   48 1   
    50   23   49 1   
    51   24   50 1   
    52   24   51 1   
    53   25   26 ar  
    54   25   52 1   
    55   26   27 ar  
    56   26   53 1   
    57   27   28 1   
    58   28   32 1   
@<TRIPOS>SUBSTRUCTURE
     1 L0G         1 TEMP              0 ****  ****    0 ROOT
