@<TRIPOS>MOLECULE
L0G
   53    57     1     0     0
SMALL
bcc


@<TRIPOS>ATOM
      1 O1         -3.4060    0.6830   -0.7510 o         1 L0G     -0.658100
      2 C2         -4.3370    0.6330    0.0960 c         1 L0G      0.760100
      3 N3         -5.5320    1.2960   -0.0840 n         1 L0G     -0.502900
      4 C4         -5.7140    2.1910   -1.1820 cx        1 L0G      0.015700
      5 C5         -7.1060    2.6480   -1.5730 cx        1 L0G     -0.131400
      6 C6         -6.1450    3.6310   -0.9720 cx        1 L0G     -0.131400
      7 N7         -4.1120   -0.1210    1.3090 n         1 L0G     -0.437100
      8 C8         -3.7090   -1.4490    1.1850 cc        1 L0G     -0.062700
      9 C9         -4.5050   -2.6230    1.2620 cd        1 L0G     -0.146300
     10 N10        -3.6260   -3.7030    1.1940 na        1 L0G      0.069400
     11 N12        -2.3700   -3.3440    1.0760 nc        1 L0G     -0.454800
     12 C13        -2.3470   -1.9600    1.0650 cc        1 L0G      0.158300
     13 C14        -1.1100   -1.2270    0.9540 cd        1 L0G      0.257800
     14 N15         0.1420   -1.7700    1.2160 na        1 L0G     -0.150400
     15 C17         1.1090   -0.7690    1.0020 ca        1 L0G     -0.061200
     16 C18         2.5020   -0.7650    1.1160 ca        1 L0G     -0.063000
     17 C19         3.1640    0.4320    0.8360 ca        1 L0G     -0.138300
     18 C20         4.6450    0.5120    1.0440 c3        1 L0G      0.163100
     19 N21         5.4130    0.7590   -0.2200 n4        1 L0G     -0.687400
     20 C23         6.8060    1.2340    0.0890 c3        1 L0G      0.069300
     21 C24         7.6470    1.3890   -1.1860 c3        1 L0G      0.098900
     22 O25         7.6680    0.1750   -1.9210 os        1 L0G     -0.361600
     23 C26         6.3690   -0.2360   -2.3180 c3        1 L0G      0.098900
     24 C27         5.4830   -0.4660   -1.0850 c3        1 L0G      0.069300
     25 C28         2.4620    1.5910    0.4490 ca        1 L0G     -0.105000
     26 C29         1.0780    1.6090    0.3210 ca        1 L0G     -0.066000
     27 C30         0.3920    0.4220    0.6000 ca        1 L0G     -0.033200
     28 N31        -0.9780    0.0970    0.5910 na        1 L0G     -0.119400
     29 H11        -3.8730   -4.6760    1.2070 hn        1 L0G      0.368700
     30 H16         0.3140   -2.7110    1.4950 hn        1 L0G      0.366700
     31 H22         4.9350    1.4960   -0.7550 hn        1 L0G      0.444800
     32 H32        -1.7310    0.6870    0.2670 hn        1 L0G      0.399700
     33 H33        -6.2190    1.3170    0.6360 hn        1 L0G      0.325500
     34 H34        -4.9820    1.9770   -1.9960 h1        1 L0G      0.125700
     35 H35        -7.3420    2.7030   -2.6510 hc        1 L0G      0.089950
     36 H36        -7.9820    2.3290   -0.9800 hc        1 L0G      0.089950
     37 H37        -6.3410    4.0080    0.0480 hc        1 L0G      0.089950
     38 H38        -5.6860    4.4060   -1.6130 hc        1 L0G      0.089950
     39 H39        -4.8170   -0.0110    2.0160 hn        1 L0G      0.312500
     40 H40        -5.5870   -2.7530    1.3640 h4        1 L0G      0.221000
     41 H41         3.0470   -1.6690    1.4320 ha        1 L0G      0.172000
     42 H42         4.8700    1.3670    1.7510 hx        1 L0G      0.117200
     43 H43         5.0390   -0.4390    1.5080 hx        1 L0G      0.117200
     44 H44         6.7410    2.2210    0.6260 hx        1 L0G      0.113700
     45 H45         7.2860    0.4720    0.7670 hx        1 L0G      0.113700
     46 H46         7.2680    2.2310   -1.8230 h1        1 L0G      0.103700
     47 H47         8.7230    1.5700   -0.9050 h1        1 L0G      0.103700
     48 H48         5.9110    0.5140   -3.0150 h1        1 L0G      0.103700
     49 H49         6.5300   -1.2140   -2.8520 h1        1 L0G      0.103700
     50 H50         5.9190   -1.3020   -0.4670 hx        1 L0G      0.113700
     51 H51         4.4390   -0.7400   -1.4010 hx        1 L0G      0.113700
     52 H52         3.0160    2.5270    0.2650 ha        1 L0G      0.157000
     53 H53         0.5420    2.5240    0.0190 ha        1 L0G      0.191000
@<TRIPOS>BOND
     1    1    2 2   
     2    2    3 1   
     3    2    7 1   
     4    3    4 1   
     5    3   33 1   
     6    4    5 1   
     7    4    6 1   
     8    4   34 1   
     9    5    6 1   
    10    5   35 1   
    11    5   36 1   
    12    6   37 1   
    13    6   38 1   
    14    7    8 1   
    15    7   39 1   
    16    8    9 2   
    17    8   12 1   
    18    9   10 1   
    19    9   40 1   
    20   10   11 2   
    21   10   29 1   
    22   11   12 1   
    23   12   13 2   
    24   13   14 1   
    25   13   28 1   
    26   14   15 1   
    27   14   30 1   
    28   15   16 ar  
    29   15   27 ar  
    30   16   17 ar  
    31   16   41 1   
    32   17   18 1   
    33   17   25 ar  
    34   18   19 1   
    35   18   42 1   
    36   18   43 1   
    37   19   20 1   
    38   19   24 1   
    39   19   31 1   
    40   20   21 1   
    41   20   44 1   
    42   20   45 1   
    43   21   22 1   
    44   21   46 1   
    45   21   47 1   
    46   22   23 1   
    47   23   24 1   
    48   23   48 1   
    49   23   49 1   
    50   24   50 1   
    51   24   51 1   
    52   25   26 ar  
    53   25   52 1   
    54   26   27 ar  
    55   26   53 1   
    56   27   28 1   
    57   28   32 1   
@<TRIPOS>SUBSTRUCTURE
     1 L0G         1 TEMP              0 ****  ****    0 ROOT
