@<TRIPOS>MOLECULE
L0H
   36    39     1     0     0
SMALL
bcc


@<TRIPOS>ATOM
      1 O1         -3.3370   -1.8410    0.2140 o         1 L0H     -0.604100
      2 C2         -2.7010   -0.7700    0.1330 c         1 L0H      0.676700
      3 N3         -1.3140   -0.7510    0.0510 n         1 L0H     -0.432100
      4 C4         -0.5290   -1.8860    0.0950 cc        1 L0H     -0.054700
      5 C5         -0.9380   -3.2410    0.1720 cd        1 L0H     -0.175300
      6 N6          0.2370   -3.9960    0.1870 na        1 L0H      0.007400
      7 N8          1.3340   -3.2610    0.1280 nd        1 L0H     -0.508800
      8 C9          0.9320   -1.9480    0.0710 cc        1 L0H      0.244000
      9 C10         1.8480   -0.8250    0.0010 cc        1 L0H      0.404800
     10 N11         1.4940    0.4840   -0.0170 nd        1 L0H     -0.600100
     11 C12         2.7020    1.1980   -0.0880 ca        1 L0H      0.073400
     12 C13         2.9610    2.5760   -0.1360 ca        1 L0H     -0.075000
     13 C14         4.2810    2.9940   -0.2040 ca        1 L0H     -0.150000
     14 C15         5.3510    2.0800   -0.2250 ca        1 L0H     -0.115000
     15 C16         5.1420    0.7100   -0.1800 ca        1 L0H     -0.132000
     16 C17         3.8170    0.2630   -0.1120 ca        1 L0H     -0.073200
     17 N18         3.2490   -1.0110   -0.0560 na        1 L0H     -0.263300
     18 C20        -3.3920    0.5500    0.0930 ca        1 L0H     -0.142600
     19 C21        -4.6210    0.6240   -0.5750 ca        1 L0H     -0.087500
     20 C22        -5.3110    1.8330   -0.6280 ca        1 L0H     -0.139000
     21 C23        -4.7830    2.9670   -0.0100 ca        1 L0H     -0.106000
     22 C24        -3.5650    2.8900    0.6650 ca        1 L0H     -0.139000
     23 C25        -2.8660    1.6850    0.7190 ca        1 L0H     -0.087500
     24 H3         -0.8480    0.1260   -0.0480 hn        1 L0H      0.357500
     25 H5         -1.9400   -3.6710    0.2170 h4        1 L0H      0.217000
     26 H6          0.3020   -4.9860    0.2380 hn        1 L0H      0.329700
     27 H18         3.7260   -1.8730   -0.0480 hn        1 L0H      0.318700
     28 H13         2.1330    3.2980   -0.1210 ha        1 L0H      0.144000
     29 H14         4.5050    4.0710   -0.2420 ha        1 L0H      0.132000
     30 H15         6.3800    2.4670   -0.2800 ha        1 L0H      0.132000
     31 H16         5.9810    0.0030   -0.1980 ha        1 L0H      0.136000
     32 H21        -5.0360   -0.2830   -1.0440 ha        1 L0H      0.149000
     33 H25        -1.9130    1.6380    1.2680 ha        1 L0H      0.149000
     34 H22        -6.2750    1.8900   -1.1560 ha        1 L0H      0.138000
     35 H23        -5.3290    3.9210   -0.0530 ha        1 L0H      0.135000
     36 H24        -3.1520    3.7830    1.1590 ha        1 L0H      0.138000
@<TRIPOS>BOND
     1    1    2 2   
     2    2    3 1   
     3    2   18 1   
     4    3    4 1   
     5    3   24 1   
     6    4    5 2   
     7    4    8 1   
     8    5    6 1   
     9    5   25 1   
    10    6    7 1   
    11    6   26 1   
    12    7    8 2   
    13    8    9 1   
    14    9   10 2   
    15    9   17 1   
    16   10   11 1   
    17   11   12 ar  
    18   11   16 ar  
    19   12   13 ar  
    20   12   28 1   
    21   13   14 ar  
    22   13   29 1   
    23   14   15 ar  
    24   14   30 1   
    25   15   16 ar  
    26   15   31 1   
    27   16   17 1   
    28   17   27 1   
    29   18   19 ar  
    30   18   23 ar  
    31   19   20 ar  
    32   19   32 1   
    33   20   21 ar  
    34   20   34 1   
    35   21   22 ar  
    36   21   35 1   
    37   22   23 ar  
    38   22   36 1   
    39   23   33 1   
@<TRIPOS>SUBSTRUCTURE
     1 L0H         1 TEMP              0 ****  ****    0 ROOT
