@<TRIPOS>MOLECULE
L0H
   36    28     1     0     0
SMALL
bcc


@<TRIPOS>ATOM
      1 O1         -1.3250    3.3900   -0.6660 o         1 L0H     -0.365000
      2 C2         -0.5760    2.4600   -0.8890 c1        1 L0H      0.350000
      3 N3         -0.3490    1.4780    0.1080 n2        1 L0H     -0.286000
      4 C4         -0.9960    1.5810    1.3660 c2        1 L0H      0.018000
      5 C5         -1.6230    2.6900    1.8570 c1        1 L0H     -0.132500
      6 N6         -2.0630    2.4040    3.1000 n2        1 L0H     -0.106500
      7 N8         -1.7090    1.1090    3.3880 n2        1 L0H     -0.106500
      8 C9         -1.0540    0.6070    2.3210 c1        1 L0H     -0.132500
      9 C10        -0.5180   -0.8020    2.1880 c1        1 L0H      0.108000
     10 N11        -0.9100   -1.5420    1.1170 n2        1 L0H     -0.173000
     11 C12        -0.3310   -2.7640    1.2170 c1        1 L0H     -0.066000
     12 C13        -0.3840   -3.9030    0.3920 c1        1 L0H     -0.119667
     13 C14         0.3290   -5.0420    0.7350 c1        1 L0H     -0.119667
     14 C15         1.0940   -5.0580    1.8900 c1        1 L0H     -0.119667
     15 C16         1.1460   -3.9370    2.7030 c1        1 L0H     -0.119667
     16 C17         0.4220   -2.7800    2.3550 c1        1 L0H     -0.028000
     17 N18         0.3050   -1.5680    2.9520 n1        1 L0H     -0.220000
     18 C20         0.1220    2.3550   -2.2270 c2        1 L0H     -0.122000
     19 C21        -0.5270    1.7700   -3.3030 c2        1 L0H     -0.098000
     20 C22         0.0930    1.7170   -4.5410 c1        1 L0H     -0.138000
     21 C23         1.3630    2.2490   -4.7030 c1        1 L0H     -0.119667
     22 C24         2.0120    2.8340   -3.6280 c1        1 L0H     -0.119667
     23 C25         1.3910    2.8870   -2.3900 c1        1 L0H     -0.077000
     24 H3          0.2120    0.7780   -0.0600 hn        1 L0H      0.271000
     25 H5         -1.7330    3.5400    1.3910 DU        1 L0H      0.255333
     26 H6         -2.5150    2.9710    3.6520 DU        1 L0H      0.255333
     27 H18         0.7090   -1.3120    3.7280 DU        1 L0H      0.255333
     28 H13        -0.9230   -3.8920   -0.4220 ha        1 L0H      0.136167
     29 H14         0.2920   -5.8320    0.1620 ha        1 L0H      0.136167
     30 H15         1.5960   -5.8600    2.1310 ha        1 L0H      0.136167
     31 H16         1.6850   -3.9490    3.5170 ha        1 L0H      0.136167
     32 H21        -1.4210    1.3960   -3.1890 ha        1 L0H      0.144000
     33 H25         1.8480    3.2990   -1.6320 ha        1 L0H      0.154000
     34 H22        -0.3640    1.3050   -5.2990 ha        1 L0H      0.138000
     35 H23         1.8000    2.2110   -5.5750 ha        1 L0H      0.136167
     36 H24         2.9060    3.2090   -3.7420 ha        1 L0H      0.136167
@<TRIPOS>BOND
     1    1    2 1   
     2    2   18 1   
     3    3    4 1   
     4    3   24 1   
     5    4    5 1   
     6    4    8 1   
     7    5    6 1   
     8    6    7 1   
     9    7    8 1   
    10    9   10 1   
    11    9   17 1   
    12   10   11 1   
    13   11   16 1   
    14   12   13 1   
    15   12   28 1   
    16   13   29 1   
    17   14   15 1   
    18   14   30 1   
    19   15   31 1   
    20   18   19 1   
    21   18   23 1   
    22   19   20 1   
    23   19   32 1   
    24   20   34 1   
    25   21   22 1   
    26   21   35 1   
    27   22   36 1   
    28   23   33 1   
@<TRIPOS>SUBSTRUCTURE
     1 L0H         1 TEMP              0 ****  ****    0 ROOT
