@<TRIPOS>MOLECULE
L0H
   36    39     1     0     0
SMALL
bcc


@<TRIPOS>ATOM
      1 O1         -0.1420   -0.2290   -0.1540 o         1 L0H     -0.604100
      2 C2          1.1020   -0.1470   -0.1070 c         1 L0H      0.676700
      3 N3          1.7810   -0.0660    1.1030 n         1 L0H     -0.432100
      4 C4          1.1590   -0.1120    2.3340 cc        1 L0H     -0.054700
      5 C5         -0.2270   -0.1900    2.6220 cd        1 L0H     -0.175300
      6 N6         -0.3290   -0.2070    4.0150 na        1 L0H      0.007400
      7 N8          0.8410   -0.1490    4.6270 nd        1 L0H     -0.508800
      8 C9          1.8020   -0.0890    3.6470 cc        1 L0H      0.244000
      9 C10         3.2260   -0.0190    3.9170 cc        1 L0H      0.404800
     10 N11         4.2070    0.0010    2.9800 nd        1 L0H     -0.600100
     11 C12         5.4110    0.0720    3.7000 ca        1 L0H      0.073400
     12 C13         6.7460    0.1220    3.2700 ca        1 L0H     -0.075000
     13 C14         7.7430    0.1880    4.2300 ca        1 L0H     -0.150000
     14 C15         7.4510    0.2060    5.6060 ca        1 L0H     -0.115000
     15 C16         6.1480    0.1590    6.0770 ca        1 L0H     -0.132000
     16 C17         5.1220    0.0920    5.1260 ca        1 L0H     -0.073200
     17 N18         3.7320    0.0350    5.2360 na        1 L0H     -0.263300
     18 C20         1.9320   -0.1050   -1.3440 ca        1 L0H     -0.142600
     19 C21         1.4090    0.5640   -2.4590 ca        1 L0H     -0.087500
     20 C22         2.1420    0.6190   -3.6420 ca        1 L0H     -0.139000
     21 C23         3.3910    0.0020   -3.7210 ca        1 L0H     -0.106000
     22 C24         3.9060   -0.6750   -2.6150 ca        1 L0H     -0.139000
     23 C25         3.1800   -0.7300   -1.4250 ca        1 L0H     -0.087500
     24 H3          2.7740    0.0340    1.0930 hn        1 L0H      0.357500
     25 H5         -1.0840   -0.2340    1.9480 h4        1 L0H      0.217000
     26 H6         -1.1680   -0.2600    4.5450 hn        1 L0H      0.329700
     27 H18         3.2020    0.0250    6.0660 hn        1 L0H      0.318700
     28 H13         6.9840    0.1090    2.1970 ha        1 L0H      0.144000
     29 H14         8.7960    0.2280    3.9120 ha        1 L0H      0.132000
     30 H15         8.2830    0.2600    6.3250 ha        1 L0H      0.132000
     31 H16         5.9270    0.1740    7.1520 ha        1 L0H      0.136000
     32 H21         0.4150    1.0330   -2.3900 ha        1 L0H      0.149000
     33 H25         3.5950   -1.2800   -0.5660 ha        1 L0H      0.149000
     34 H22         1.7320    1.1480   -4.5160 ha        1 L0H      0.138000
     35 H23         3.9690    0.0460   -4.6560 ha        1 L0H      0.135000
     36 H24         4.8870   -1.1680   -2.6790 ha        1 L0H      0.138000
@<TRIPOS>BOND
     1    1    2 2   
     2    2    3 1   
     3    2   18 1   
     4    3    4 1   
     5    3   24 1   
     6    4    5 2   
     7    4    8 1   
     8    5    6 1   
     9    5   25 1   
    10    6    7 1   
    11    6   26 1   
    12    7    8 2   
    13    8    9 1   
    14    9   10 2   
    15    9   17 1   
    16   10   11 1   
    17   11   12 ar  
    18   11   16 ar  
    19   12   13 ar  
    20   12   28 1   
    21   13   14 ar  
    22   13   29 1   
    23   14   15 ar  
    24   14   30 1   
    25   15   16 ar  
    26   15   31 1   
    27   16   17 1   
    28   17   27 1   
    29   18   19 ar  
    30   18   23 ar  
    31   19   20 ar  
    32   19   32 1   
    33   20   21 ar  
    34   20   34 1   
    35   21   22 ar  
    36   21   35 1   
    37   22   23 ar  
    38   22   36 1   
    39   23   33 1   
@<TRIPOS>SUBSTRUCTURE
     1 L0H         1 TEMP              0 ****  ****    0 ROOT
