@<TRIPOS>MOLECULE
L0H
   37    40     1     0     0
SMALL
bcc


@<TRIPOS>ATOM
      1 O1         -0.0700    0.1750   -0.0740 o         1 L0H     -0.448100
      2 C2          1.1510    0.1070   -0.1320 c         1 L0H      0.583700
      3 N3          1.9110    0.0760    1.1810 n4        1 L0H     -0.486200
      4 C4          1.1550    0.0290    2.3940 cc        1 L0H     -0.240700
      5 C5         -0.2420    0.0190    2.6250 cd        1 L0H     -0.036300
      6 N6         -0.3890   -0.0340    4.0010 na        1 L0H      0.023400
      7 N8          0.7680   -0.0580    4.6620 nd        1 L0H     -0.463800
      8 C9          1.7590   -0.0210    3.7260 cc        1 L0H      0.342000
      9 C10         3.1850   -0.0260    3.9940 cc        1 L0H      0.335800
     10 N11         4.1390    0.0190    3.0230 nd        1 L0H     -0.636100
     11 C12         5.3620   -0.0040    3.7030 ca        1 L0H      0.071400
     12 C13         6.6890    0.0220    3.2350 ca        1 L0H     -0.077000
     13 C14         7.7100   -0.0130    4.1650 ca        1 L0H     -0.129000
     14 C15         7.4560   -0.0720    5.5530 ca        1 L0H     -0.090000
     15 C16         6.1700   -0.1000    6.0600 ca        1 L0H     -0.123000
     16 C17         5.1130   -0.0660    5.1350 ca        1 L0H     -0.060200
     17 N18         3.7270   -0.0790    5.2900 na        1 L0H     -0.225300
     18 C20         1.9780    0.0450   -1.3390 ca        1 L0H     -0.210600
     19 C21         1.2850   -0.0610   -2.5600 ca        1 L0H     -0.064000
     20 C22         1.9920   -0.1230   -3.7580 ca        1 L0H     -0.127000
     21 C23         3.3860   -0.0780   -3.7520 ca        1 L0H     -0.048000
     22 C24         4.0760    0.0300   -2.5400 ca        1 L0H     -0.127000
     23 C25         3.3820    0.0920   -1.3360 ca        1 L0H     -0.064000
     24 H3          2.5130    0.9180    1.2170 hn        1 L0H      0.479800
     25 H5         -1.0890    0.0480    1.9300 h4        1 L0H      0.231000
     26 H6         -1.2510   -0.0540    4.5100 hn        1 L0H      0.361700
     27 H18         3.2200   -0.1150    6.1370 hn        1 L0H      0.331700
     28 H13         6.8980    0.0680    2.1570 ha        1 L0H      0.146000
     29 H14         8.7570    0.0070    3.8230 ha        1 L0H      0.150000
     30 H15         8.3120   -0.0970    6.2470 ha        1 L0H      0.153000
     31 H16         5.9780   -0.1460    7.1410 ha        1 L0H      0.154000
     32 H21         0.1820   -0.0930   -2.5630 ha        1 L0H      0.154500
     33 H25         3.9680    0.1840   -0.4080 ha        1 L0H      0.154500
     34 H22         1.4440   -0.2070   -4.7120 ha        1 L0H      0.167500
     35 H23         3.9460   -0.1270   -4.7010 ha        1 L0H      0.167000
     36 H24         5.1780    0.0690   -2.5380 ha        1 L0H      0.167500
     37 H32         2.5360   -0.7490    1.1650 hn        1 L0H      0.479800
@<TRIPOS>BOND
     1    1    2 2   
     2    2    3 1   
     3    2   18 1   
     4    3    4 1   
     5    3   24 1   
     6    3   37 1   
     7    4    5 2   
     8    4    8 1   
     9    5    6 1   
    10    5   25 1   
    11    6    7 1   
    12    6   26 1   
    13    7    8 2   
    14    8    9 1   
    15    9   10 2   
    16    9   17 1   
    17   10   11 1   
    18   11   12 ar  
    19   11   16 ar  
    20   12   13 ar  
    21   12   28 1   
    22   13   14 ar  
    23   13   29 1   
    24   14   15 ar  
    25   14   30 1   
    26   15   16 ar  
    27   15   31 1   
    28   16   17 1   
    29   17   27 1   
    30   18   19 ar  
    31   18   23 ar  
    32   19   20 ar  
    33   19   32 1   
    34   20   21 ar  
    35   20   34 1   
    36   21   22 ar  
    37   21   35 1   
    38   22   23 ar  
    39   22   36 1   
    40   23   33 1   
@<TRIPOS>SUBSTRUCTURE
     1 L0H         1 TEMP              0 ****  ****    0 ROOT
