@<TRIPOS>MOLECULE
L0I
   52    56     1     0     0
SMALL
bcc


@<TRIPOS>ATOM
      1 O1         -6.0250    0.3400   -0.7150 o         1 L0I     -0.622100
      2 C2         -5.1250   -0.4430   -0.3330 c         1 L0I      0.767100
      3 N3         -5.3290   -1.8320   -0.2720 n         1 L0I     -0.507900
      4 C4         -6.6670   -2.3230   -0.3230 cx        1 L0I      0.035700
      5 C5         -6.9300   -3.8130   -0.4100 cx        1 L0I     -0.146900
      6 C6         -7.3070   -3.0660    0.8360 cx        1 L0I     -0.146900
      7 N7         -3.8420    0.0480    0.0170 n         1 L0I     -0.443100
      8 C8         -3.4920    1.3630   -0.2010 cc        1 L0I     -0.022700
      9 C9         -4.3300    2.4640   -0.5190 cd        1 L0I     -0.170300
     10 N10        -3.4940    3.5800   -0.5830 na        1 L0I      0.035400
     11 N12        -2.2310    3.3060   -0.3390 nd        1 L0I     -0.504800
     12 C13        -2.1570    1.9480   -0.0980 cc        1 L0I      0.194000
     13 C14        -0.9180    1.2660    0.2040 cc        1 L0I      0.471800
     14 N15        -0.7720   -0.0730    0.4100 nd        1 L0I     -0.603100
     15 C16         0.5890   -0.2670    0.6640 ca        1 L0I      0.130400
     16 C17         1.3200   -1.4290    0.9530 ca        1 L0I     -0.073000
     17 C18         2.6850   -1.3160    1.1620 ca        1 L0I     -0.129000
     18 C19         3.3480   -0.0740    1.0950 ca        1 L0I     -0.192300
     19 C20         4.8100   -0.0150    1.3670 c3        1 L0I      0.187100
     20 N21         5.6120   -0.1130    0.0920 n4        1 L0I     -0.688400
     21 C23         7.0230    0.3390    0.2990 c3        1 L0I      0.068300
     22 C24         7.8740    0.1420   -0.9630 c3        1 L0I      0.099400
     23 O25         7.8220   -1.2060   -1.4030 os        1 L0I     -0.373600
     24 C26         6.4980   -1.6290   -1.6980 c3        1 L0I      0.099400
     25 C27         5.6060   -1.5070   -0.4580 c3        1 L0I      0.068300
     26 C28         2.6600    1.1090    0.8170 ca        1 L0I     -0.093000
     27 C29         1.2860    1.0170    0.6020 ca        1 L0I     -0.088200
     28 N30         0.3070    1.9660    0.3060 na        1 L0I     -0.260300
     29 H11        -3.7740    4.5160   -0.7850 hn        1 L0I      0.339700
     30 H22         5.1710    0.5010   -0.6070 hn        1 L0I      0.444800
     31 H31         0.4300    2.9430    0.2270 hn        1 L0I      0.331700
     32 H32        -4.6890   -2.3820    0.2570 hn        1 L0I      0.299500
     33 H33        -7.3160   -1.6400   -0.9200 h1        1 L0I      0.127700
     34 H34        -7.7210   -4.1540   -1.1010 hc        1 L0I      0.079200
     35 H35        -6.0880   -4.5260   -0.3690 hc        1 L0I      0.079200
     36 H36        -6.7300   -3.2510    1.7590 hc        1 L0I      0.079200
     37 H37        -8.3720   -2.8710    1.0520 hc        1 L0I      0.079200
     38 H38        -3.0990   -0.5960    0.1750 hn        1 L0I      0.343500
     39 H39        -5.4080    2.5000   -0.7020 h4        1 L0I      0.231000
     40 H40         0.8120   -2.4040    1.0170 ha        1 L0I      0.168000
     41 H41         3.2650   -2.2200    1.4060 ha        1 L0I      0.134000
     42 H42         5.0840    0.9660    1.8540 hx        1 L0I      0.101700
     43 H43         5.1340   -0.8570    2.0420 hx        1 L0I      0.101700
     44 H44         7.0160    1.4270    0.5880 hx        1 L0I      0.112200
     45 H45         7.4570   -0.2650    1.1460 hx        1 L0I      0.112200
     46 H46         7.5460    0.8350   -1.7830 h1        1 L0I      0.095200
     47 H47         8.9570    0.3200   -0.7180 h1        1 L0I      0.095200
     48 H48         6.0820   -1.0440   -2.5600 h1        1 L0I      0.095200
     49 H49         6.6030   -2.7130   -1.9820 h1        1 L0I      0.095200
     50 H50         5.9870   -2.1980    0.3480 hx        1 L0I      0.112200
     51 H51         4.5420   -1.7850   -0.7060 hx        1 L0I      0.112200
     52 H52         3.1750    2.0790    0.7890 ha        1 L0I      0.138000
@<TRIPOS>BOND
     1    1    2 2   
     2    2    3 1   
     3    2    7 1   
     4    3    4 1   
     5    3   32 1   
     6    4    5 1   
     7    4    6 1   
     8    4   33 1   
     9    5    6 1   
    10    5   34 1   
    11    5   35 1   
    12    6   36 1   
    13    6   37 1   
    14    7    8 1   
    15    7   38 1   
    16    8    9 2   
    17    8   12 1   
    18    9   10 1   
    19    9   39 1   
    20   10   11 1   
    21   10   29 1   
    22   11   12 2   
    23   12   13 1   
    24   13   14 2   
    25   13   28 1   
    26   14   15 1   
    27   15   16 ar  
    28   15   27 ar  
    29   16   17 ar  
    30   16   40 1   
    31   17   18 ar  
    32   17   41 1   
    33   18   19 1   
    34   18   26 ar  
    35   19   20 1   
    36   19   42 1   
    37   19   43 1   
    38   20   21 1   
    39   20   25 1   
    40   20   30 1   
    41   21   22 1   
    42   21   44 1   
    43   21   45 1   
    44   22   23 1   
    45   22   46 1   
    46   22   47 1   
    47   23   24 1   
    48   24   25 1   
    49   24   48 1   
    50   24   49 1   
    51   25   50 1   
    52   25   51 1   
    53   26   27 ar  
    54   26   52 1   
    55   27   28 1   
    56   28   31 1   
@<TRIPOS>SUBSTRUCTURE
     1 L0I         1 TEMP              0 ****  ****    0 ROOT
