@<TRIPOS>MOLECULE
L0I
   53    57     1     0     0
SMALL
bcc


@<TRIPOS>ATOM
      1 O1          0.5110   -2.0680   -0.3400 o         1 L0I     -0.463100
      2 C2          1.2120   -1.0610   -0.2340 c         1 L0I      0.641100
      3 N3          2.1460   -1.0980    0.9910 ny        1 L0I     -0.634800
      4 C4          1.9990    0.0830    1.8500 cx        1 L0I     -0.009500
      5 C5          3.0540    0.4250    2.8840 cx        1 L0I     -0.102400
      6 C6          2.8890    1.2970    1.6790 cx        1 L0I     -0.102400
      7 N7          1.1930    0.1050   -0.9760 ns        1 L0I     -0.345100
      8 C8          0.6590    0.0710   -2.2660 cc        1 L0I     -0.173700
      9 C9         -0.7060    0.1350   -2.6470 cd        1 L0I     -0.059300
     10 N10        -0.7100    0.1370   -4.0350 na        1 L0I      0.033400
     11 N12         0.5050    0.0840   -4.5670 nd        1 L0I     -0.461800
     12 C13         1.3930    0.0330   -3.5260 cc        1 L0I      0.269000
     13 C14         2.8350   -0.0400   -3.6740 cc        1 L0I      0.429800
     14 N15         3.7180   -0.2080   -2.6500 nd        1 L0I     -0.631100
     15 C16         4.9840   -0.2170   -3.2560 ca        1 L0I      0.108400
     16 C17         6.2740   -0.3460   -2.7170 ca        1 L0I     -0.070000
     17 C18         7.3590   -0.2990   -3.5770 ca        1 L0I     -0.120000
     18 C19         7.2030   -0.1210   -4.9690 ca        1 L0I     -0.160300
     19 C20         8.4180    0.0180   -5.8260 c3        1 L0I      0.173100
     20 N21         8.8490   -1.2860   -6.4380 nx        1 L0I     -0.687400
     21 C23         9.7970   -1.0580   -7.5790 c3        1 L0I      0.068300
     22 C24        10.3320   -2.3800   -8.1450 c3        1 L0I      0.098400
     23 O25        10.9340   -3.1580   -7.1210 os        1 L0I     -0.365600
     24 C26        10.0250   -3.4730   -6.0780 c3        1 L0I      0.098400
     25 C27         9.4920   -2.1890   -5.4280 c3        1 L0I      0.068300
     26 C28         5.9420    0.0030   -5.5480 ca        1 L0I     -0.084000
     27 C29         4.8350   -0.0460   -4.6960 ca        1 L0I     -0.075200
     28 N30         3.4630    0.0580   -4.9310 na        1 L0I     -0.236300
     29 H11        -1.5140    0.1740   -4.6320 hn        1 L0I      0.364700
     30 H22         8.0150   -1.7640   -6.8020 hn        1 L0I      0.443800
     31 H31         3.0140    0.1910   -5.8030 hn        1 L0I      0.341700
     32 H32         3.1150   -1.1900    0.6660 hn        1 L0I      0.467300
     33 H33         0.9230    0.2320    2.1100 hx        1 L0I      0.155700
     34 H34         2.6990    0.7780    3.8740 hc        1 L0I      0.113450
     35 H35         3.9630   -0.1980    2.9790 hc        1 L0I      0.113450
     36 H36         2.4160    2.2950    1.7820 hc        1 L0I      0.113450
     37 H37         3.6820    1.3000    0.9070 hc        1 L0I      0.113450
     38 H38         1.9230    0.7790   -0.8370 hn        1 L0I      0.353500
     39 H39        -1.6200    0.1710   -2.0460 h4        1 L0I      0.220000
     40 H40         6.4190   -0.4730   -1.6340 ha        1 L0I      0.158000
     41 H41         8.3760   -0.3820   -3.1600 ha        1 L0I      0.146000
     42 H42         9.2850    0.4210   -5.2260 hx        1 L0I      0.110700
     43 H43         8.2110    0.7340   -6.6760 hx        1 L0I      0.110700
     44 H44         9.2600   -0.4870   -8.3870 hx        1 L0I      0.112700
     45 H45        10.6550   -0.4360   -7.1940 hx        1 L0I      0.112700
     46 H46         9.5190   -2.9620   -8.6550 h1        1 L0I      0.099950
     47 H47        11.1680   -2.1680   -8.8690 h1        1 L0I      0.099950
     48 H48        10.6390   -4.0470   -5.3290 h1        1 L0I      0.099950
     49 H49         9.1880   -4.1140   -6.4620 h1        1 L0I      0.099950
     50 H50         8.7300   -2.4340   -4.6360 hx        1 L0I      0.112700
     51 H51        10.3480   -1.6270   -4.9570 hx        1 L0I      0.112700
     52 H52         5.8160    0.1580   -6.6300 ha        1 L0I      0.152000
     53 H321        1.8960   -1.9420    1.5300 hn        1 L0I      0.467300
@<TRIPOS>BOND
     1    1    2 2   
     2    2    3 1   
     3    2    7 1   
     4    3    4 1   
     5    3   32 1   
     6    3   53 1   
     7    4    5 1   
     8    4    6 1   
     9    4   33 1   
    10    5    6 1   
    11    5   34 1   
    12    5   35 1   
    13    6   36 1   
    14    6   37 1   
    15    7    8 1   
    16    7   38 1   
    17    8    9 2   
    18    8   12 1   
    19    9   10 1   
    20    9   39 1   
    21   10   11 1   
    22   10   29 1   
    23   11   12 2   
    24   12   13 1   
    25   13   14 2   
    26   13   28 1   
    27   14   15 1   
    28   15   16 ar  
    29   15   27 ar  
    30   16   17 ar  
    31   16   40 1   
    32   17   18 ar  
    33   17   41 1   
    34   18   19 1   
    35   18   26 ar  
    36   19   20 1   
    37   19   42 1   
    38   19   43 1   
    39   20   21 1   
    40   20   25 1   
    41   20   30 1   
    42   21   22 1   
    43   21   44 1   
    44   21   45 1   
    45   22   23 1   
    46   22   46 1   
    47   22   47 1   
    48   23   24 1   
    49   24   25 1   
    50   24   48 1   
    51   24   49 1   
    52   25   50 1   
    53   25   51 1   
    54   26   27 ar  
    55   26   52 1   
    56   27   28 1   
    57   28   31 1   
@<TRIPOS>SUBSTRUCTURE
     1 L0I         1 TEMP              0 ****  ****    0 ROOT
