@<TRIPOS>MOLECULE
L0I
   54    58     1     0     0
SMALL
bcc


@<TRIPOS>ATOM
      1 O1          0.4950    0.9150    0.9530 o         1 L0I     -0.292100
      2 C2          1.1260    0.6210   -0.0470 c         1 L0I      0.493100
      3 N3          2.0870   -0.5060   -0.1140 n4        1 L0I     -0.616800
      4 C4          2.7640   -0.7040    1.1930 cx        1 L0I     -0.025500
      5 C5          3.9290   -1.6740    1.2860 cx        1 L0I     -0.083400
      6 C6          4.1750   -0.2040    1.4230 cx        1 L0I     -0.083400
      7 N7          0.9080    1.4440   -1.3000 n4        1 L0I     -0.446200
      8 C8          0.3430    0.6860   -2.3680 cc        1 L0I     -0.321700
      9 C9         -1.0400    0.5140   -2.6880 cd        1 L0I     -0.002300
     10 N10        -1.0560   -0.1850   -3.8750 na        1 L0I      0.066400
     11 N12         0.1580   -0.4670   -4.3470 nd        1 L0I     -0.402800
     12 C13         1.0630    0.0450   -3.4660 cc        1 L0I      0.318000
     13 C14         2.5070   -0.0230   -3.6160 cc        1 L0I      0.387800
     14 N15         3.3860    0.0580   -2.5710 nd        1 L0I     -0.730100
     15 C16         4.6610   -0.0120   -3.1490 ca        1 L0I      0.110400
     16 C17         5.9530    0.0450   -2.5930 ca        1 L0I     -0.077000
     17 C18         7.0400   -0.0040   -3.4480 ca        1 L0I     -0.094000
     18 C19         6.8940   -0.1050   -4.8530 ca        1 L0I     -0.121300
     19 C20         8.1100    0.0080   -5.7230 c3        1 L0I      0.157100
     20 N21         8.7730   -1.2980   -6.0370 n4        1 L0I     -0.687400
     21 C23         9.7130   -1.1440   -7.2060 c3        1 L0I      0.068300
     22 C24        10.4910   -2.4390   -7.4800 c3        1 L0I      0.098900
     23 O25        11.1840   -2.8580   -6.3150 os        1 L0I     -0.354600
     24 C26        10.3070   -3.1190   -5.2320 c3        1 L0I      0.098900
     25 C27         9.5310   -1.8450   -4.8620 c3        1 L0I      0.068300
     26 C28         5.6370   -0.1860   -5.4410 ca        1 L0I     -0.068000
     27 C29         4.5210   -0.1390   -4.5910 ca        1 L0I     -0.065200
     28 N30         3.1460   -0.1520   -4.8510 na        1 L0I     -0.189300
     29 H11        -1.8740   -0.4800   -4.3960 hn        1 L0I      0.401700
     30 H22         8.0540   -1.9840   -6.2970 hn        1 L0I      0.442800
     31 H31         2.7050   -0.2380   -5.7380 hn        1 L0I      0.359700
     32 H32         1.5490   -1.3650   -0.3280 hn        1 L0I      0.510800
     33 H33         2.0230   -0.6650    2.0300 hx        1 L0I      0.174700
     34 H34         3.9600   -2.3320    2.1820 hc        1 L0I      0.125200
     35 H35         4.2930   -2.2030    0.3840 hc        1 L0I      0.125200
     36 H36         4.7190    0.3240    0.6150 hc        1 L0I      0.125200
     37 H37         4.4020    0.2320    2.4200 hc        1 L0I      0.125200
     38 H38         1.8060    1.8620   -1.6100 hn        1 L0I      0.511800
     39 H39        -1.9520    0.8370   -2.1660 h4        1 L0I      0.248000
     40 H40         6.0970    0.1420   -1.5060 ha        1 L0I      0.163000
     41 H41         8.0570    0.0650   -3.0220 ha        1 L0I      0.167000
     42 H42         8.8770    0.6730   -5.2250 hx        1 L0I      0.121700
     43 H43         7.8240    0.4860   -6.7080 hx        1 L0I      0.121700
     44 H44        10.4360   -0.3150   -6.9570 hx        1 L0I      0.113200
     45 H45         9.1140   -0.8580   -8.1160 hx        1 L0I      0.113200
     46 H46         9.8140   -3.2510   -7.8540 h1        1 L0I      0.106450
     47 H47        11.3020   -2.2340   -8.2360 h1        1 L0I      0.106450
     48 H48         9.6110   -3.9630   -5.4760 h1        1 L0I      0.106450
     49 H49        10.9840   -3.4070   -4.3800 h1        1 L0I      0.106450
     50 H50        10.2610   -1.0550   -4.5230 hx        1 L0I      0.113200
     51 H51         8.8000   -2.0590   -4.0350 hx        1 L0I      0.113200
     52 H52         5.5090   -0.2540   -6.5340 ha        1 L0I      0.173000
     53 H321        2.8050   -0.3580   -0.8900 hn        1 L0I      0.510800
     54 H72         0.2560    2.2160   -1.0400 hn        1 L0I      0.511800
@<TRIPOS>BOND
     1    1    2 2   
     2    2    3 1   
     3    2    7 1   
     4    3    4 1   
     5    3   32 1   
     6    3   53 1   
     7    4    5 1   
     8    4    6 1   
     9    4   33 1   
    10    5    6 1   
    11    5   34 1   
    12    5   35 1   
    13    6   36 1   
    14    6   37 1   
    15    7    8 1   
    16    7   38 1   
    17    7   54 1   
    18    8    9 2   
    19    8   12 1   
    20    9   10 1   
    21    9   39 1   
    22   10   11 1   
    23   10   29 1   
    24   11   12 2   
    25   12   13 1   
    26   13   14 2   
    27   13   28 1   
    28   14   15 1   
    29   15   16 ar  
    30   15   27 ar  
    31   16   17 ar  
    32   16   40 1   
    33   17   18 ar  
    34   17   41 1   
    35   18   19 1   
    36   18   26 ar  
    37   19   20 1   
    38   19   42 1   
    39   19   43 1   
    40   20   21 1   
    41   20   25 1   
    42   20   30 1   
    43   21   22 1   
    44   21   44 1   
    45   21   45 1   
    46   22   23 1   
    47   22   46 1   
    48   22   47 1   
    49   23   24 1   
    50   24   25 1   
    51   24   48 1   
    52   24   49 1   
    53   25   50 1   
    54   25   51 1   
    55   26   27 ar  
    56   26   52 1   
    57   27   28 1   
    58   28   31 1   
@<TRIPOS>SUBSTRUCTURE
     1 L0I         1 TEMP              0 ****  ****    0 ROOT
