@<TRIPOS>MOLECULE
L0I
   53    57     1     0     0
SMALL
bcc


@<TRIPOS>ATOM
      1 O1          0.5430   -2.0890   -0.3860 o         1 L0I     -0.454100
      2 C2          1.2300   -1.0750   -0.2610 c         1 L0I      0.658100
      3 N3          2.1730   -1.1260    0.9560 n4        1 L0I     -0.636800
      4 C4          2.0150    0.0320    1.8440 cx        1 L0I     -0.012500
      5 C5          3.0710    0.3660    2.8790 cx        1 L0I     -0.102400
      6 C6          2.8870    1.2620    1.6950 cx        1 L0I     -0.102400
      7 N7          1.1870    0.1080   -0.9750 n         1 L0I     -0.346100
      8 C8          0.6550    0.0940   -2.2660 cc        1 L0I     -0.175700
      9 C9         -0.7090    0.1710   -2.6470 cd        1 L0I     -0.053300
     10 N10        -0.7100    0.1890   -4.0360 na        1 L0I      0.031400
     11 N12         0.5050    0.1320   -4.5670 nd        1 L0I     -0.457800
     12 C13         1.3910    0.0640   -3.5250 cc        1 L0I      0.258000
     13 C14         2.8330   -0.0200   -3.6700 cc        1 L0I      0.444800
     14 N15         3.7120   -0.2050   -2.6460 nd        1 L0I     -0.660100
     15 C16         4.9790   -0.2180   -3.2480 ca        1 L0I      0.109400
     16 C17         6.2670   -0.3630   -2.7080 ca        1 L0I     -0.078000
     17 C18         7.3540   -0.3160   -3.5640 ca        1 L0I     -0.114000
     18 C19         7.2030   -0.1210   -4.9540 ca        1 L0I     -0.160300
     19 C20         8.4210    0.0180   -5.8070 c3        1 L0I      0.172100
     20 N21         8.8440   -1.2830   -6.4330 n4        1 L0I     -0.687400
     21 C23         9.7960   -1.0480   -7.5690 c3        1 L0I      0.068800
     22 C24        10.3220   -2.3690   -8.1490 c3        1 L0I      0.098900
     23 O25        10.9150   -3.1630   -7.1330 os        1 L0I     -0.364600
     24 C26        10.0010   -3.4830   -6.0950 c3        1 L0I      0.098900
     25 C27         9.4760   -2.2030   -5.4330 c3        1 L0I      0.068800
     26 C28         5.9450    0.0190   -5.5360 ca        1 L0I     -0.081000
     27 C29         4.8350   -0.0300   -4.6870 ca        1 L0I     -0.074200
     28 N30         3.4650    0.0870   -4.9240 na        1 L0I     -0.234300
     29 H11        -1.5120    0.2390   -4.6340 hn        1 L0I      0.364700
     30 H22         8.0060   -1.7490   -6.8050 hn        1 L0I      0.443800
     31 H31         3.0190    0.2330   -5.7950 hn        1 L0I      0.343700
     32 H32         1.9400   -1.9860    1.4780 hn        1 L0I      0.468300
     33 H33         0.9390    0.1600    2.1130 hx        1 L0I      0.155700
     34 H34         3.9890   -0.2470    2.9550 hc        1 L0I      0.112950
     35 H35         2.7170    0.6910    3.8790 hc        1 L0I      0.112950
     36 H36         3.6750    1.2940    0.9190 hc        1 L0I      0.112950
     37 H37         2.4010    2.2510    1.8250 hc        1 L0I      0.112950
     38 H38         1.9080    0.7900   -0.8220 hn        1 L0I      0.341500
     39 H39        -1.6230    0.2080   -2.0480 h4        1 L0I      0.222000
     40 H40         6.4080   -0.5030   -1.6260 ha        1 L0I      0.152000
     41 H41         8.3700   -0.4110   -3.1450 ha        1 L0I      0.147000
     42 H42         8.2230    0.7450   -6.6490 hx        1 L0I      0.111200
     43 H43         9.2900    0.4060   -5.2000 hx        1 L0I      0.111200
     44 H44         9.2660   -0.4640   -8.3720 hx        1 L0I      0.112700
     45 H45        10.6590   -0.4390   -7.1750 hx        1 L0I      0.112700
     46 H46         9.5060   -2.9380   -8.6680 h1        1 L0I      0.100200
     47 H47        11.1620   -2.1550   -8.8680 h1        1 L0I      0.100200
     48 H48         9.1600   -4.1130   -6.4890 h1        1 L0I      0.100200
     49 H49        10.6080   -4.0710   -5.3520 h1        1 L0I      0.100200
     50 H50         8.7100   -2.4500   -4.6450 hx        1 L0I      0.112700
     51 H51        10.3360   -1.6530   -4.9520 hx        1 L0I      0.112700
     52 H52         5.8240    0.1880   -6.6160 ha        1 L0I      0.153000
     53 H321        3.1400   -1.1960    0.6230 hn        1 L0I      0.468300
@<TRIPOS>BOND
     1    1    2 2   
     2    2    3 1   
     3    2    7 1   
     4    3    4 1   
     5    3   32 1   
     6    3   53 1   
     7    4    5 1   
     8    4    6 1   
     9    4   33 1   
    10    5    6 1   
    11    5   34 1   
    12    5   35 1   
    13    6   36 1   
    14    6   37 1   
    15    7    8 1   
    16    7   38 1   
    17    8    9 2   
    18    8   12 1   
    19    9   10 1   
    20    9   39 1   
    21   10   11 1   
    22   10   29 1   
    23   11   12 2   
    24   12   13 1   
    25   13   14 2   
    26   13   28 1   
    27   14   15 1   
    28   15   16 ar  
    29   15   27 ar  
    30   16   17 ar  
    31   16   40 1   
    32   17   18 ar  
    33   17   41 1   
    34   18   19 1   
    35   18   26 ar  
    36   19   20 1   
    37   19   42 1   
    38   19   43 1   
    39   20   21 1   
    40   20   25 1   
    41   20   30 1   
    42   21   22 1   
    43   21   44 1   
    44   21   45 1   
    45   22   23 1   
    46   22   46 1   
    47   22   47 1   
    48   23   24 1   
    49   24   25 1   
    50   24   48 1   
    51   24   49 1   
    52   25   50 1   
    53   25   51 1   
    54   26   27 ar  
    55   26   52 1   
    56   27   28 1   
    57   28   31 1   
@<TRIPOS>SUBSTRUCTURE
     1 L0I         1 TEMP              0 ****  ****    0 ROOT
