@<TRIPOS>MOLECULE
L0R
   54    57     1     0     0
SMALL
bcc


@<TRIPOS>ATOM
      1 C01        -0.0160    0.2760   -0.0910 c3        1 L0R     -0.110400
      2 C02         1.2880   -0.4600    0.2240 c3        1 L0R      0.069000
      3 N03         1.7010   -0.3670    1.6150 n         1 L0R     -0.442800
      4 C04         0.6440   -0.8370    2.5100 c3        1 L0R      0.022700
      5 C05        -0.6880   -0.0940    2.2940 c3        1 L0R     -0.098400
      6 C06        -1.1190   -0.1700    0.8450 c3        1 L0R     -0.080400
      7 C07         0.9870   -0.7890    4.0140 c         1 L0R      0.683100
      8 O08         0.2920   -0.0890    4.7760 o         1 L0R     -0.600100
      9 N09         1.9680   -1.6280    4.5200 n         1 L0R     -0.454800
     10 C10         5.2810   -5.2220    4.1310 ca        1 L0R     -0.130000
     11 C11         2.5460    0.6800    2.0250 c         1 L0R      0.635100
     12 O12         2.6770    0.9690    3.2240 o         1 L0R     -0.534100
     13 C13         3.3840    1.3760    0.9550 c3        1 L0R      0.056400
     14 O14         4.2400    2.2740    1.6620 os        1 L0R     -0.295900
     15 C15         5.0440    3.0720    0.8660 ca        1 L0R      0.118100
     16 C16         5.8210    4.0030    1.5830 ca        1 L0R     -0.176500
     17 C17         6.7580    4.7790   -0.5100 ca        1 L0R     -0.161000
     18 C18         5.9840    3.8560   -1.2080 ca        1 L0R     -0.097500
     19 C19         6.6730    4.8490    0.8840 ca        1 L0R     -0.097500
     20 C20         5.1210    2.9940   -0.5280 ca        1 L0R     -0.176500
     21 C21         4.5310   -4.2020    3.5530 ca        1 L0R     -0.127000
     22 C22         4.3440   -4.6890    6.2910 ca        1 L0R     -0.127000
     23 C23         5.1880   -5.4660    5.5020 ca        1 L0R     -0.127000
     24 C24         3.5860   -3.6610    5.7180 ca        1 L0R     -0.063300
     25 C25         3.6790   -3.4180    4.3410 ca        1 L0R     -0.087300
     26 C26         2.8990   -2.3270    3.6660 c3        1 L0R      0.144300
     27 C27         2.3520   -1.4980    5.9120 c3        1 L0R      0.088000
     28 C28         2.6770   -2.8440    6.5620 c3        1 L0R     -0.049100
     29 H1          0.1390    1.3830    0.0020 hc        1 L0R      0.051700
     30 H2         -0.3010    0.0600   -1.1530 hc        1 L0R      0.051700
     31 H3          1.1440   -1.5580    0.0010 h1        1 L0R      0.054200
     32 H4          2.1040   -0.0890   -0.4530 h1        1 L0R      0.054200
     33 H5          0.4730   -1.9260    2.2400 h1        1 L0R      0.071700
     34 H6         -1.4630   -0.5610    2.9550 hc        1 L0R      0.073700
     35 H7         -0.5770    0.9740    2.6190 hc        1 L0R      0.073700
     36 H8         -1.4110   -1.2250    0.5970 hc        1 L0R      0.046700
     37 H9         -2.0250    0.4720    0.6930 hc        1 L0R      0.046700
     38 H10         5.9490   -5.8340    3.5070 ha        1 L0R      0.131000
     39 H11         4.0040    0.6320    0.3890 h1        1 L0R      0.062700
     40 H12         2.7160    1.9510    0.2590 h1        1 L0R      0.062700
     41 H13         5.7400    4.0430    2.6790 ha        1 L0R      0.143500
     42 H14         7.4350    5.4540   -1.0520 ha        1 L0R      0.134000
     43 H15         6.0500    3.7990   -2.3040 ha        1 L0R      0.134000
     44 H16         7.2850    5.5800    1.4340 ha        1 L0R      0.134000
     45 H17         4.5210    2.2700   -1.0950 ha        1 L0R      0.143500
     46 H18         4.6050   -4.0060    2.4730 ha        1 L0R      0.129000
     47 H19         4.2710   -4.8780    7.3720 ha        1 L0R      0.133000
     48 H20         5.7810   -6.2720    5.9590 ha        1 L0R      0.132000
     49 H21         3.6400   -1.5880    3.2320 h1        1 L0R      0.052700
     50 H22         2.3290   -2.7920    2.8090 h1        1 L0R      0.052700
     51 H23         1.5100   -1.0080    6.4800 h1        1 L0R      0.066200
     52 H24         3.2570   -0.8280    5.9830 h1        1 L0R      0.066200
     53 H25         3.1450   -2.6430    7.5620 hc        1 L0R      0.060200
     54 H26         1.7290   -3.4210    6.7410 hc        1 L0R      0.060200
@<TRIPOS>BOND
     1    1    2 1   
     2    1    6 1   
     3    1   29 1   
     4    1   30 1   
     5    2    3 1   
     6    2   31 1   
     7    2   32 1   
     8    3    4 1   
     9    3   11 1   
    10    4    5 1   
    11    4    7 1   
    12    4   33 1   
    13    5    6 1   
    14    5   34 1   
    15    5   35 1   
    16    6   36 1   
    17    6   37 1   
    18    7    8 2   
    19    7    9 1   
    20    9   26 1   
    21    9   27 1   
    22   10   21 ar  
    23   10   23 ar  
    24   10   38 1   
    25   11   12 2   
    26   11   13 1   
    27   13   14 1   
    28   13   39 1   
    29   13   40 1   
    30   14   15 1   
    31   15   16 ar  
    32   15   20 ar  
    33   16   19 ar  
    34   16   41 1   
    35   17   18 ar  
    36   17   19 ar  
    37   17   42 1   
    38   18   20 ar  
    39   18   43 1   
    40   19   44 1   
    41   20   45 1   
    42   21   25 ar  
    43   21   46 1   
    44   22   23 ar  
    45   22   24 ar  
    46   22   47 1   
    47   23   48 1   
    48   24   25 ar  
    49   24   28 1   
    50   25   26 1   
    51   26   49 1   
    52   26   50 1   
    53   27   28 1   
    54   27   51 1   
    55   27   52 1   
    56   28   53 1   
    57   28   54 1   
@<TRIPOS>SUBSTRUCTURE
     1 L0R         1 TEMP              0 ****  ****    0 ROOT
