@<TRIPOS>MOLECULE
L0R
   54    57     1     0     0
SMALL
bcc


@<TRIPOS>ATOM
      1 C01        -1.2010   -4.0160    0.0510 c3        1 L0R     -0.110400
      2 C02        -0.6810   -2.8590   -0.8050 c3        1 L0R      0.069000
      3 N03        -0.1340   -1.7520   -0.0390 n         1 L0R     -0.442800
      4 C04         0.9240   -2.2080    0.8630 c3        1 L0R      0.022700
      5 C05         0.4540   -3.3330    1.8040 c3        1 L0R     -0.098400
      6 C06        -0.1330   -4.4850    1.0160 c3        1 L0R     -0.080400
      7 C07         1.5790   -1.1040    1.7180 c         1 L0R      0.683100
      8 O08         1.5180   -1.1770    2.9610 o         1 L0R     -0.600100
      9 N09         2.3460   -0.1250    1.1040 n         1 L0R     -0.454800
     10 C10         4.5050    1.9440   -2.7830 ca        1 L0R     -0.130000
     11 C11        -0.9700   -0.6900    0.3520 c         1 L0R      0.635100
     12 O12        -0.6300    0.1050    1.2400 o         1 L0R     -0.534100
     13 C13        -2.2640   -0.4810   -0.4330 c3        1 L0R      0.056400
     14 O14        -2.8260    0.7310    0.0700 os        1 L0R     -0.295900
     15 C15        -4.0590    1.0740   -0.4590 ca        1 L0R      0.118100
     16 C16        -4.6290    2.2300    0.1100 ca        1 L0R     -0.176500
     17 C17        -6.5280    1.9790   -1.3700 ca        1 L0R     -0.161000
     18 C18        -5.9550    0.8380   -1.9240 ca        1 L0R     -0.097500
     19 C19        -5.8610    2.6710   -0.3550 ca        1 L0R     -0.097500
     20 C20        -4.7170    0.3740   -1.4760 ca        1 L0R     -0.176500
     21 C21         3.5050    1.1420   -2.2400 ca        1 L0R     -0.127000
     22 C22         5.3420    2.4040   -0.5650 ca        1 L0R     -0.127000
     23 C23         5.4260    2.5750   -1.9440 ca        1 L0R     -0.127000
     24 C24         4.3400    1.5990   -0.0110 ca        1 L0R     -0.063300
     25 C25         3.4170    0.9650   -0.8540 ca        1 L0R     -0.087300
     26 C26         2.3140    0.0950   -0.3230 c3        1 L0R      0.144300
     27 C27         2.8690    0.9630    1.9050 c3        1 L0R      0.088000
     28 C28         4.2630    1.4070    1.4600 c3        1 L0R     -0.049100
     29 H1         -2.1120   -3.6910    0.6190 hc        1 L0R      0.051700
     30 H2         -1.5030   -4.8550   -0.6260 hc        1 L0R      0.051700
     31 H3          0.1540   -3.2440   -1.4610 h1        1 L0R      0.054200
     32 H4         -1.4980   -2.4980   -1.4870 h1        1 L0R      0.054200
     33 H5          1.7330   -2.6390    0.1940 h1        1 L0R      0.071700
     34 H6          1.3350   -3.6810    2.4030 hc        1 L0R      0.073700
     35 H7         -0.2970   -2.9250    2.5290 hc        1 L0R      0.073700
     36 H8         -0.5690   -5.2350    1.7250 hc        1 L0R      0.046700
     37 H9          0.6830   -5.0000    0.4440 hc        1 L0R      0.046700
     38 H10         4.5690    2.0810   -3.8720 ha        1 L0R      0.131000
     39 H11        -2.0500   -0.3690   -1.5290 h1        1 L0R      0.062700
     40 H12        -2.9670   -1.3360   -0.2480 h1        1 L0R      0.062700
     41 H13        -4.0890    2.7600    0.9070 ha        1 L0R      0.143500
     42 H14        -7.5030    2.3370   -1.7280 ha        1 L0R      0.134000
     43 H15        -6.4790    0.2920   -2.7230 ha        1 L0R      0.134000
     44 H16        -6.3150    3.5740    0.0830 ha        1 L0R      0.134000
     45 H17        -4.2800   -0.5260   -1.9260 ha        1 L0R      0.143500
     46 H18         2.7780    0.6460   -2.8990 ha        1 L0R      0.129000
     47 H19         6.0650    2.9020    0.0980 ha        1 L0R      0.133000
     48 H20         6.2160    3.2090   -2.3730 ha        1 L0R      0.132000
     49 H21         2.3820   -0.9030   -0.8480 h1        1 L0R      0.052700
     50 H22         1.3280    0.5720   -0.6090 h1        1 L0R      0.052700
     51 H23         2.1640    1.8420    1.8370 h1        1 L0R      0.066200
     52 H24         2.9140    0.6360    2.9830 h1        1 L0R      0.066200
     53 H25         5.0250    0.6410    1.7680 hc        1 L0R      0.060200
     54 H26         4.5100    2.3630    1.9930 hc        1 L0R      0.060200
@<TRIPOS>BOND
     1    1    2 1   
     2    1    6 1   
     3    1   29 1   
     4    1   30 1   
     5    2    3 1   
     6    2   31 1   
     7    2   32 1   
     8    3    4 1   
     9    3   11 1   
    10    4    5 1   
    11    4    7 1   
    12    4   33 1   
    13    5    6 1   
    14    5   34 1   
    15    5   35 1   
    16    6   36 1   
    17    6   37 1   
    18    7    8 2   
    19    7    9 1   
    20    9   26 1   
    21    9   27 1   
    22   10   21 ar  
    23   10   23 ar  
    24   10   38 1   
    25   11   12 2   
    26   11   13 1   
    27   13   14 1   
    28   13   39 1   
    29   13   40 1   
    30   14   15 1   
    31   15   16 ar  
    32   15   20 ar  
    33   16   19 ar  
    34   16   41 1   
    35   17   18 ar  
    36   17   19 ar  
    37   17   42 1   
    38   18   20 ar  
    39   18   43 1   
    40   19   44 1   
    41   20   45 1   
    42   21   25 ar  
    43   21   46 1   
    44   22   23 ar  
    45   22   24 ar  
    46   22   47 1   
    47   23   48 1   
    48   24   25 ar  
    49   24   28 1   
    50   25   26 1   
    51   26   49 1   
    52   26   50 1   
    53   27   28 1   
    54   27   51 1   
    55   27   52 1   
    56   28   53 1   
    57   28   54 1   
@<TRIPOS>SUBSTRUCTURE
     1 L0R         1 TEMP              0 ****  ****    0 ROOT
