@<TRIPOS>MOLECULE
L0R
   54    57     1     0     0
SMALL
bcc


@<TRIPOS>ATOM
      1 C01        -0.0210    0.2700   -0.0880 c3        1 L0R     -0.110400
      2 C02         1.2850   -0.4640    0.2250 c3        1 L0R      0.069000
      3 N03         1.7000   -0.3700    1.6150 n         1 L0R     -0.442800
      4 C04         0.6450   -0.8410    2.5130 c3        1 L0R      0.022700
      5 C05        -0.6880   -0.1000    2.2990 c3        1 L0R     -0.098400
      6 C06        -1.1210   -0.1770    0.8510 c3        1 L0R     -0.080400
      7 C07         0.9910   -0.7920    4.0150 c         1 L0R      0.683100
      8 O08         0.2960   -0.0930    4.7790 o         1 L0R     -0.600100
      9 N09         1.9740   -1.6290    4.5210 n         1 L0R     -0.454800
     10 C10         5.2900   -5.2200    4.1270 ca        1 L0R     -0.130000
     11 C11         2.5440    0.6780    2.0240 c         1 L0R      0.635100
     12 O12         2.6770    0.9680    3.2220 o         1 L0R     -0.534100
     13 C13         3.3790    1.3760    0.9520 c3        1 L0R      0.056400
     14 O14         4.2340    2.2750    1.6560 os        1 L0R     -0.295900
     15 C15         5.0340    3.0770    0.8590 ca        1 L0R      0.118100
     16 C16         5.8080    4.0110    1.5730 ca        1 L0R     -0.176500
     17 C17         6.7370    4.7900   -0.5210 ca        1 L0R     -0.161000
     18 C18         5.9670    3.8630   -1.2170 ca        1 L0R     -0.097500
     19 C19         6.6550    4.8610    0.8720 ca        1 L0R     -0.097500
     20 C20         5.1090    2.9980   -0.5360 ca        1 L0R     -0.176500
     21 C21         4.5370   -4.2010    3.5500 ca        1 L0R     -0.127000
     22 C22         4.3560   -4.6870    6.2890 ca        1 L0R     -0.127000
     23 C23         5.1990   -5.4640    5.4980 ca        1 L0R     -0.127000
     24 C24         3.5960   -3.6610    5.7170 ca        1 L0R     -0.063300
     25 C25         3.6870   -3.4180    4.3400 ca        1 L0R     -0.087300
     26 C26         2.9040   -2.3280    3.6650 c3        1 L0R      0.144300
     27 C27         2.3600   -1.4990    5.9110 c3        1 L0R      0.088000
     28 C28         2.6870   -2.8430    6.5610 c3        1 L0R     -0.049100
     29 H1         -0.3080    0.0530   -1.1490 hc        1 L0R      0.051700
     30 H2          0.1330    1.3770    0.0040 hc        1 L0R      0.051700
     31 H3          1.1420   -1.5620    0.0030 h1        1 L0R      0.054200
     32 H4          2.0990   -0.0920   -0.4540 h1        1 L0R      0.054200
     33 H5          0.4750   -1.9300    2.2430 h1        1 L0R      0.071700
     34 H6         -1.4610   -0.5680    2.9610 hc        1 L0R      0.073700
     35 H7         -0.5780    0.9680    2.6230 hc        1 L0R      0.073700
     36 H8         -1.4130   -1.2330    0.6030 hc        1 L0R      0.046700
     37 H9         -2.0290    0.4640    0.6990 hc        1 L0R      0.046700
     38 H10         5.9570   -5.8320    3.5020 ha        1 L0R      0.131000
     39 H11         4.0000    0.6320    0.3850 h1        1 L0R      0.062700
     40 H12         2.7080    1.9490    0.2570 h1        1 L0R      0.062700
     41 H13         5.7290    4.0520    2.6690 ha        1 L0R      0.143500
     42 H14         7.4100    5.4680   -1.0660 ha        1 L0R      0.134000
     43 H15         6.0310    3.8060   -2.3140 ha        1 L0R      0.134000
     44 H16         7.2640    5.5940    1.4210 ha        1 L0R      0.134000
     45 H17         4.5110    2.2710   -1.1010 ha        1 L0R      0.143500
     46 H18         4.6100   -4.0060    2.4700 ha        1 L0R      0.129000
     47 H19         4.2850   -4.8760    7.3700 ha        1 L0R      0.133000
     48 H20         5.7930   -6.2690    5.9540 ha        1 L0R      0.132000
     49 H21         3.6430   -1.5890    3.2290 h1        1 L0R      0.052700
     50 H22         2.3330   -2.7950    2.8100 h1        1 L0R      0.052700
     51 H23         1.5190   -1.0090    6.4810 h1        1 L0R      0.066200
     52 H24         3.2650   -0.8280    5.9800 h1        1 L0R      0.066200
     53 H25         1.7410   -3.4210    6.7430 hc        1 L0R      0.060200
     54 H26         3.1570   -2.6420    7.5600 hc        1 L0R      0.060200
@<TRIPOS>BOND
     1    1    2 1   
     2    1    6 1   
     3    1   29 1   
     4    1   30 1   
     5    2    3 1   
     6    2   31 1   
     7    2   32 1   
     8    3    4 1   
     9    3   11 1   
    10    4    5 1   
    11    4    7 1   
    12    4   33 1   
    13    5    6 1   
    14    5   34 1   
    15    5   35 1   
    16    6   36 1   
    17    6   37 1   
    18    7    8 2   
    19    7    9 1   
    20    9   26 1   
    21    9   27 1   
    22   10   21 ar  
    23   10   23 ar  
    24   10   38 1   
    25   11   12 2   
    26   11   13 1   
    27   13   14 1   
    28   13   39 1   
    29   13   40 1   
    30   14   15 1   
    31   15   16 ar  
    32   15   20 ar  
    33   16   19 ar  
    34   16   41 1   
    35   17   18 ar  
    36   17   19 ar  
    37   17   42 1   
    38   18   20 ar  
    39   18   43 1   
    40   19   44 1   
    41   20   45 1   
    42   21   25 ar  
    43   21   46 1   
    44   22   23 ar  
    45   22   24 ar  
    46   22   47 1   
    47   23   48 1   
    48   24   25 ar  
    49   24   28 1   
    50   25   26 1   
    51   26   49 1   
    52   26   50 1   
    53   27   28 1   
    54   27   51 1   
    55   27   52 1   
    56   28   53 1   
    57   28   54 1   
@<TRIPOS>SUBSTRUCTURE
     1 L0R         1 TEMP              0 ****  ****    0 ROOT
