@<TRIPOS>MOLECULE
L0R
   54    57     1     0     0
SMALL
bcc


@<TRIPOS>ATOM
      1 C01        -0.0170    0.2580   -0.0890 c3        1 L0R     -0.110400
      2 C02         1.2870   -0.4770    0.2280 c3        1 L0R      0.069000
      3 N03         1.7040   -0.3770    1.6160 n         1 L0R     -0.442800
      4 C04         0.6490   -0.8400    2.5180 c3        1 L0R      0.022700
      5 C05        -0.6830   -0.0980    2.3010 c3        1 L0R     -0.098400
      6 C06        -1.1180   -0.1820    0.8540 c3        1 L0R     -0.080400
      7 C07         0.9960   -0.7830    4.0200 c         1 L0R      0.683100
      8 O08         0.3040   -0.0790    4.7800 o         1 L0R     -0.600100
      9 N09         1.9770   -1.6210    4.5290 n         1 L0R     -0.454800
     10 C10         5.2850   -5.2210    4.1520 ca        1 L0R     -0.130000
     11 C11         2.5500    0.6730    2.0190 c         1 L0R      0.635100
     12 O12         2.6870    0.9680    3.2150 o         1 L0R     -0.534100
     13 C13         3.3830    1.3640    0.9420 c3        1 L0R      0.056400
     14 O14         4.2410    2.2670    1.6400 os        1 L0R     -0.295900
     15 C15         5.0320    3.0700    0.8370 ca        1 L0R      0.118100
     16 C16         5.8000    4.0150    1.5450 ca        1 L0R     -0.176500
     17 C17         6.7210    4.7880   -0.5550 ca        1 L0R     -0.161000
     18 C18         5.9570    3.8510   -1.2450 ca        1 L0R     -0.097500
     19 C19         6.6410    4.8660    0.8380 ca        1 L0R     -0.097500
     20 C20         5.1060    2.9840   -0.5570 ca        1 L0R     -0.176500
     21 C21         4.5340   -4.2030    3.5700 ca        1 L0R     -0.127000
     22 C22         4.3550   -4.6740    6.3120 ca        1 L0R     -0.127000
     23 C23         5.1950   -5.4570    5.5240 ca        1 L0R     -0.127000
     24 C24         3.5960   -3.6490    5.7350 ca        1 L0R     -0.063300
     25 C25         3.6870   -3.4140    4.3560 ca        1 L0R     -0.087300
     26 C26         2.9050   -2.3260    3.6760 c3        1 L0R      0.144300
     27 C27         2.3650   -1.4830    5.9180 c3        1 L0R      0.088000
     28 C28         2.6910   -2.8250    6.5760 c3        1 L0R     -0.049100
     29 H1         -0.3060    0.0360   -1.1480 hc        1 L0R      0.051700
     30 H2          0.1380    1.3650   -0.0020 hc        1 L0R      0.051700
     31 H3          1.1410   -1.5760    0.0110 h1        1 L0R      0.054200
     32 H4          2.1010   -0.1110   -0.4540 h1        1 L0R      0.054200
     33 H5          0.4770   -1.9310    2.2540 h1        1 L0R      0.071700
     34 H6         -1.4560   -0.5610    2.9670 hc        1 L0R      0.073700
     35 H7         -0.5710    0.9710    2.6190 hc        1 L0R      0.073700
     36 H8         -1.4110   -1.2380    0.6120 hc        1 L0R      0.046700
     37 H9         -2.0240    0.4600    0.7000 hc        1 L0R      0.046700
     38 H10         5.9500   -5.8380    3.5300 ha        1 L0R      0.131000
     39 H11         2.7120    1.9340    0.2450 h1        1 L0R      0.062700
     40 H12         4.0030    0.6180    0.3780 h1        1 L0R      0.062700
     41 H13         5.7230    4.0610    2.6410 ha        1 L0R      0.143500
     42 H14         7.3890    5.4680   -1.1050 ha        1 L0R      0.134000
     43 H15         6.0200    3.7890   -2.3420 ha        1 L0R      0.134000
     44 H16         7.2450    5.6070    1.3820 ha        1 L0R      0.134000
     45 H17         4.5130    2.2490   -1.1170 ha        1 L0R      0.143500
     46 H18         4.6060   -4.0150    2.4890 ha        1 L0R      0.129000
     47 H19         4.2850   -4.8560    7.3940 ha        1 L0R      0.133000
     48 H20         5.7890   -6.2600    5.9840 ha        1 L0R      0.132000
     49 H21         3.6460   -1.5910    3.2350 h1        1 L0R      0.052700
     50 H22         2.3330   -2.7960    2.8240 h1        1 L0R      0.052700
     51 H23         3.2720   -0.8140    5.9830 h1        1 L0R      0.066200
     52 H24         1.5260   -0.9890    6.4860 h1        1 L0R      0.066200
     53 H25         1.7430   -3.4000    6.7610 hc        1 L0R      0.060200
     54 H26         3.1620   -2.6190    7.5730 hc        1 L0R      0.060200
@<TRIPOS>BOND
     1    1    2 1   
     2    1    6 1   
     3    1   29 1   
     4    1   30 1   
     5    2    3 1   
     6    2   31 1   
     7    2   32 1   
     8    3    4 1   
     9    3   11 1   
    10    4    5 1   
    11    4    7 1   
    12    4   33 1   
    13    5    6 1   
    14    5   34 1   
    15    5   35 1   
    16    6   36 1   
    17    6   37 1   
    18    7    8 2   
    19    7    9 1   
    20    9   26 1   
    21    9   27 1   
    22   10   21 ar  
    23   10   23 ar  
    24   10   38 1   
    25   11   12 2   
    26   11   13 1   
    27   13   14 1   
    28   13   39 1   
    29   13   40 1   
    30   14   15 1   
    31   15   16 ar  
    32   15   20 ar  
    33   16   19 ar  
    34   16   41 1   
    35   17   18 ar  
    36   17   19 ar  
    37   17   42 1   
    38   18   20 ar  
    39   18   43 1   
    40   19   44 1   
    41   20   45 1   
    42   21   25 ar  
    43   21   46 1   
    44   22   23 ar  
    45   22   24 ar  
    46   22   47 1   
    47   23   48 1   
    48   24   25 ar  
    49   24   28 1   
    50   25   26 1   
    51   26   49 1   
    52   26   50 1   
    53   27   28 1   
    54   27   51 1   
    55   27   52 1   
    56   28   53 1   
    57   28   54 1   
@<TRIPOS>SUBSTRUCTURE
     1 L0R         1 TEMP              0 ****  ****    0 ROOT
