@<TRIPOS>MOLECULE
L0Y
   64    61     1     0     0
SMALL
bcc


@<TRIPOS>ATOM
      1 C1         -0.9330   -2.7290   -3.0400 c1        1 L0Y     -0.075833
      2 C2          0.4300   -3.0320   -3.0560 c1        1 L0Y     -0.075833
      3 C3         -1.5630   -2.3940   -1.8300 c1        1 L0Y     -0.075833
      4 C4          1.1650   -3.0010   -1.8750 c1        1 L0Y     -0.075833
      5 C5          4.9240    0.2930   -1.1830 c1        1 L0Y     -0.075833
      6 C6          5.5820    1.5020   -1.5660 c1        1 L0Y     -0.075833
      7 C7         -0.8390   -2.3640   -0.6640 cg        1 L0Y     -0.055200
      8 C8          4.5950    1.1870    1.1470 cg        1 L0Y     -0.020200
      9 C9          0.5430   -2.6700   -0.6810 c1        1 L0Y      0.005900
     10 C10         4.4230    0.1300    0.1860 c1        1 L0Y     -0.060100
     11 C11         5.7520    2.5410   -0.6270 c1        1 L0Y      0.035100
     12 C12         5.2410    2.3740    0.7750 c1        1 L0Y      0.035100
     13 C13        -1.6780   -2.1440    0.5900 c         1 L0Y      0.603300
     14 C14         4.4550    1.3800    2.6450 c         1 L0Y      0.865800
     15 C15        -7.4560    0.1660   -0.0420 c3        1 L0Y     -0.075400
     16 C16        -7.3180    0.5350    1.2560 c3        1 L0Y     -0.069400
     17 C17        -6.5260    0.3270   -1.0010 c3        1 L0Y     -0.069400
     18 C18        -5.8960    0.2510    1.7760 c3        1 L0Y     -0.068400
     19 C19        -5.1010    0.0390   -0.4630 c3        1 L0Y     -0.068400
     20 C20         6.1860    4.8280   -0.0980 c3        1 L0Y      0.091400
     21 C21         6.2800    4.4520    1.3090 c3        1 L0Y      0.091400
     22 C22        -5.1020   -0.8130    0.8810 c3        1 L0Y     -0.093700
     23 C23         2.0660   -0.3090   -0.8280 c3        1 L0Y      0.148100
     24 C24         1.6450   -2.3710    0.2890 c3        1 L0Y      0.142900
     25 C25         3.7060   -1.2000    0.6050 c3        1 L0Y      0.172900
     26 C26        -3.8310   -1.0380    1.3560 c3        1 L0Y      0.106000
     27 N27        -3.1390   -1.9840    0.4830 n         1 L0Y     -0.533900
     28 N28         2.6710   -1.5220   -0.3620 n3        1 L0Y     -0.732600
     29 O29         3.3740    1.7640    3.1210 o         1 L0Y     -0.828300
     30 O30        -1.1550   -2.1240    1.6580 o         1 L0Y     -0.658100
     31 O31         5.4400    1.1030    3.4260 o         1 L0Y     -0.828300
     32 O32         6.3070    3.8480   -0.9910 os        1 L0Y     -0.294900
     33 O33         5.4900    3.4720    1.7190 os        1 L0Y     -0.294900
     34 H1         -1.4550   -2.8520   -3.8280 ha        1 L0Y      0.069167
     35 H2          0.8850   -3.2740   -3.9290 ha        1 L0Y      0.069167
     36 H3         -2.5120   -2.1830   -1.8170 ha        1 L0Y      0.069167
     37 H4          2.1480   -3.2210   -1.8890 ha        1 L0Y      0.069167
     38 H5          4.8090   -0.4190   -1.8280 ha        1 L0Y      0.069167
     39 H6          5.9270    1.6110   -2.5090 ha        1 L0Y      0.069167
     40 H241        2.0530   -3.2060    0.5810 h1        1 L0Y      0.074200
     41 H242        1.2710   -1.8890    1.0810 h1        1 L0Y      0.074200
     42 H251        3.3090   -1.0870    1.4700 h1        1 L0Y      0.055200
     43 H252        4.3400   -1.9070    0.6380 h1        1 L0Y      0.055200
     44 H27        -3.6140   -2.5400   -0.0410 hn        1 L0Y      0.377500
     45 H151       -7.6640   -0.8190   -0.0260 hc        1 L0Y      0.032700
     46 H152       -8.2750    0.6240   -0.3720 hc        1 L0Y      0.032700
     47 H161       -7.9940    0.0090    1.8260 hc        1 L0Y      0.028950
     48 H162       -7.5040    1.4900    1.3390 hc        1 L0Y      0.028950
     49 H171       -6.5650    1.2700   -1.3380 hc        1 L0Y      0.028950
     50 H172       -6.7290   -0.3180   -1.7800 hc        1 L0Y      0.028950
     51 H181       -5.9580   -0.0920    2.6830 hc        1 L0Y      0.037950
     52 H182       -5.3950    1.0860    1.7910 hc        1 L0Y      0.037950
     53 H191       -4.6580    0.8730   -0.3020 hc        1 L0Y      0.037950
     54 H192       -4.6020   -0.4550   -1.1470 hc        1 L0Y      0.037950
     55 H22        -5.6230   -1.6710    0.7770 hc        1 L0Y      0.127700
     56 H201        6.8850    5.4860   -0.2800 h1        1 L0Y      0.056450
     57 H202        5.3330    5.2520   -0.2350 h1        1 L0Y      0.056450
     58 H211        7.2170    4.1860    1.4920 h1        1 L0Y      0.056450
     59 H212        6.0750    5.2630    1.8580 h1        1 L0Y      0.056450
     60 H261       -3.8840   -1.4150    2.2760 h1        1 L0Y      0.030200
     61 H262       -3.3290   -0.1830    1.3780 h1        1 L0Y      0.030200
     62 H231        1.8680    0.2640   -0.0690 h1        1 L0Y      0.037033
     63 H232        1.2440   -0.5170   -1.3030 h1        1 L0Y      0.037033
     64 H233        2.6610    0.1370   -1.4090 h1        1 L0Y      0.037033
@<TRIPOS>BOND
     1    1    3 3   
     2    1   34 1   
     3    2    4 3   
     4    2   35 1   
     5    3   36 1   
     6    4   37 1   
     7    5    6 3   
     8    5   38 1   
     9    6   39 1   
    10    7    9 3   
    11    7   13 1   
    12    8   10 3   
    13    8   14 1   
    14    9   24 1   
    15   10   25 1   
    16   11   12 3   
    17   11   32 1   
    18   12   33 1   
    19   13   27 1   
    20   13   30 2   
    21   14   29 1   
    22   14   31 1   
    23   15   16 1   
    24   15   17 1   
    25   15   45 1   
    26   15   46 1   
    27   16   18 1   
    28   16   47 1   
    29   16   48 1   
    30   17   19 1   
    31   17   49 1   
    32   17   50 1   
    33   18   22 1   
    34   18   51 1   
    35   18   52 1   
    36   19   22 1   
    37   19   53 1   
    38   19   54 1   
    39   20   21 1   
    40   20   32 1   
    41   20   56 1   
    42   20   57 1   
    43   21   33 1   
    44   21   58 1   
    45   21   59 1   
    46   22   26 1   
    47   22   55 1   
    48   23   28 1   
    49   23   62 1   
    50   23   63 1   
    51   23   64 1   
    52   24   28 1   
    53   24   40 1   
    54   24   41 1   
    55   25   28 1   
    56   25   42 1   
    57   25   43 1   
    58   26   27 1   
    59   26   60 1   
    60   26   61 1   
    61   27   44 1   
@<TRIPOS>SUBSTRUCTURE
     1 L0Y         1 TEMP              0 ****  ****    0 ROOT
