@<TRIPOS>MOLECULE
L0Y
   64    67     1     0     0
SMALL
bcc


@<TRIPOS>ATOM
      1 C1          2.9250   -4.5360   -1.6530 ca        1 L0Y     -0.145000
      2 C2          1.7240   -5.1980   -1.3920 ca        1 L0Y     -0.134000
      3 C3          3.2080   -3.3390   -1.0030 ca        1 L0Y     -0.098000
      4 C4          0.8100   -4.6490   -0.4990 ca        1 L0Y     -0.137000
      5 C5         -4.1050   -0.8240    0.6010 ca        1 L0Y     -0.140000
      6 C6         -5.0730   -0.0090    0.0260 ca        1 L0Y     -0.156000
      7 C7          2.2890   -2.7830   -0.1020 ca        1 L0Y     -0.094600
      8 C8         -2.3750    0.8460    0.2100 ca        1 L0Y     -0.056600
      9 C9          1.0730   -3.4300    0.1430 ca        1 L0Y     -0.039300
     10 C10        -2.7720   -0.4070    0.6970 ca        1 L0Y     -0.081300
     11 C11        -4.6910    1.2460   -0.4610 ca        1 L0Y      0.039100
     12 C12        -3.3530    1.6710   -0.3680 ca        1 L0Y      0.063100
     13 C13         2.7330   -1.5480    0.6270 c         1 L0Y      0.647700
     14 C15         5.9100    3.3360   -0.0870 c3        1 L0Y     -0.073400
     15 C16         4.5340    3.9680   -0.0500 c3        1 L0Y     -0.073400
     16 C17         5.8510    1.9300   -0.6490 c3        1 L0Y     -0.073400
     17 C18         3.5490    3.1090    0.7160 c3        1 L0Y     -0.074400
     18 C19         4.8670    1.0730    0.1200 c3        1 L0Y     -0.074400
     19 C20        -5.3120    3.3770   -1.2610 c3        1 L0Y      0.092400
     20 C21        -3.8760    3.4940   -1.7490 c3        1 L0Y      0.090400
     21 C22         3.4830    1.7010    0.1400 c3        1 L0Y     -0.076700
     22 C23        -1.8620   -2.9940   -0.3890 c3        1 L0Y      0.156100
     23 C24         0.0510   -2.8770    1.0990 c3        1 L0Y      0.214100
     24 C25        -1.7630   -1.3030    1.3610 c3        1 L0Y      0.216100
     25 C26         2.5000    0.8700    0.9820 c3        1 L0Y      0.071000
     26 N27         2.0940   -0.3710    0.3740 n         1 L0Y     -0.521900
     27 N28        -1.0260   -2.1560    0.4330 n3        1 L0Y     -0.721600
     28 O29        -0.5380    1.7000    1.4670 o         1 L0Y     -0.824800
     29 O30         3.7090   -1.6340    1.4150 o         1 L0Y     -0.664100
     30 O31        -0.1720    1.1960   -0.6730 o         1 L0Y     -0.824800
     31 O32        -5.6840    2.0110   -1.0650 os        1 L0Y     -0.334900
     32 O33        -2.9730    2.9380   -0.7960 os        1 L0Y     -0.284900
     33 H1          3.6470   -4.9610   -2.3640 ha        1 L0Y      0.121000
     34 H2          1.5010   -6.1500   -1.8930 ha        1 L0Y      0.118000
     35 H3          4.1630   -2.8210   -1.1800 ha        1 L0Y      0.140000
     36 H4         -0.1350   -5.1730   -0.2900 ha        1 L0Y      0.126000
     37 H5         -4.3940   -1.8120    0.9890 ha        1 L0Y      0.115000
     38 H6         -6.1200   -0.3290   -0.0550 ha        1 L0Y      0.127000
     39 H241       -0.3490   -3.7400    1.7150 h1        1 L0Y      0.040200
     40 H242        0.5620   -2.1670    1.8110 h1        1 L0Y      0.040200
     41 H251       -1.0090   -0.6420    1.8870 h1        1 L0Y      0.049200
     42 H252       -2.2950   -1.9240    2.1430 h1        1 L0Y      0.049200
     43 H27         1.2690   -0.3330   -0.1970 hn        1 L0Y      0.372500
     44 H151        6.5980    3.9650   -0.7110 hc        1 L0Y      0.024700
     45 H152        6.3330    3.3040    0.9520 hc        1 L0Y      0.024700
     46 H161        4.5980    4.9810    0.4270 hc        1 L0Y      0.028200
     47 H162        4.1630    4.1130   -1.0990 hc        1 L0Y      0.028200
     48 H171        5.5460    1.9740   -1.7270 hc        1 L0Y      0.028200
     49 H172        6.8700    1.4660   -0.6050 hc        1 L0Y      0.028200
     50 H181        3.8530    3.0570    1.7940 hc        1 L0Y      0.045950
     51 H182        2.5280    3.5730    0.6720 hc        1 L0Y      0.045950
     52 H191        4.8090    0.0530   -0.3430 hc        1 L0Y      0.045950
     53 H192        5.2280    0.9320    1.1730 hc        1 L0Y      0.045950
     54 H22         3.0950    1.7690   -0.9150 hc        1 L0Y      0.062700
     55 H201       -5.4440    3.9270   -0.2930 h1        1 L0Y      0.052200
     56 H202       -6.0390    3.7520   -2.0270 h1        1 L0Y      0.052200
     57 H211       -3.7490    2.9700   -2.7320 h1        1 L0Y      0.059200
     58 H212       -3.5580    4.5660   -1.8330 h1        1 L0Y      0.059200
     59 H261        2.9730    0.6570    1.9820 h1        1 L0Y      0.089200
     60 H262        1.5540    1.4820    1.1330 h1        1 L0Y      0.089200
     61 H231       -2.3230   -3.8540    0.1750 h1        1 L0Y      0.026367
     62 H232       -2.6860   -2.3750   -0.8310 h1        1 L0Y      0.026367
     63 H233       -1.2430   -3.4100   -1.2270 h1        1 L0Y      0.026367
     64 C14        -0.9260    1.2920    0.3350 c         1 L0Y      0.926200
@<TRIPOS>BOND
     1    1    2 ar  
     2    1    3 ar  
     3    1   33 1   
     4    2    4 ar  
     5    2   34 1   
     6    3    7 ar  
     7    3   35 1   
     8    4    9 ar  
     9    4   36 1   
    10    5    6 ar  
    11    5   10 ar  
    12    5   37 1   
    13    6   11 ar  
    14    6   38 1   
    15    7    9 ar  
    16    7   13 1   
    17    8   10 ar  
    18    8   12 ar  
    19    8   64 1   
    20    9   23 1   
    21   10   24 1   
    22   11   12 ar  
    23   11   31 1   
    24   12   32 1   
    25   13   26 1   
    26   13   29 2   
    27   14   15 1   
    28   14   16 1   
    29   14   44 1   
    30   14   45 1   
    31   15   17 1   
    32   15   46 1   
    33   15   47 1   
    34   16   18 1   
    35   16   48 1   
    36   16   49 1   
    37   17   21 1   
    38   17   50 1   
    39   17   51 1   
    40   18   21 1   
    41   18   52 1   
    42   18   53 1   
    43   19   20 1   
    44   19   31 1   
    45   19   55 1   
    46   19   56 1   
    47   20   32 1   
    48   20   57 1   
    49   20   58 1   
    50   21   25 1   
    51   21   54 1   
    52   22   27 1   
    53   22   61 1   
    54   22   62 1   
    55   22   63 1   
    56   23   27 1   
    57   23   39 1   
    58   23   40 1   
    59   24   27 1   
    60   24   41 1   
    61   24   42 1   
    62   25   26 1   
    63   25   59 1   
    64   25   60 1   
    65   26   43 1   
    66   28   64 1   
    67   30   64 1   
@<TRIPOS>SUBSTRUCTURE
     1 L0Y         1 TEMP              0 ****  ****    0 ROOT
