@<TRIPOS>MOLECULE
L0Y
   66    63     1     0     0
SMALL
bcc


@<TRIPOS>ATOM
      1 C1         -1.5700    1.7980    3.5710 c1        1 L0Y     -0.041000
      2 C2          2.0280    3.2610    1.4590 c1        1 L0Y     -0.111000
      3 C3         -1.0070    1.3810    2.3070 c3        1 L0Y     -0.216000
      4 C4          1.7320    2.1330    1.7350 c1        1 L0Y     -0.194000
      5 C5          4.0760   -4.6040    6.2800 ca        1 L0Y     -0.090000
      6 C6          4.1930   -5.0960    7.5690 ca        1 L0Y     -0.129000
      7 C7          0.1310    0.4150    2.3230 c2        1 L0Y     -0.248000
      8 C8          1.8180   -3.8530    6.7320 ca        1 L0Y     -0.037000
      9 C9          1.4090    0.7990    2.0580 c2        1 L0Y      0.135000
     10 C10         2.8930   -3.9870    5.8440 ca        1 L0Y     -0.124000
     11 C11         3.1080   -4.9990    8.4710 ca        1 L0Y      0.134000
     12 C12         1.9240   -4.3830    8.0270 ca        1 L0Y     -0.008000
     13 C13        -0.2410   -0.9620    2.6460 c2        1 L0Y      0.266000
     14 C15        -7.8590    0.5640    3.9200 c3        1 L0Y     -0.216000
     15 C16        -7.0920   -0.7110    4.1770 c3        1 L0Y     -0.144000
     16 C17        -5.5720    3.1230    2.5780 c2        1 L0Y     -0.229500
     17 C18        -5.8860   -0.4660    5.0040 c2        1 L0Y     -0.089000
     18 C19        -4.5880    3.5350    3.3650 c2        1 L0Y     -0.229500
     19 C20         2.4240   -5.3050   10.7540 c3        1 L0Y     -0.075000
     20 C21        -0.3160   -3.9820    8.3840 c1        1 L0Y     -0.051000
     21 C22        -4.6930   -1.0190    4.7520 c2        1 L0Y     -0.196000
     22 C23         2.3490   -4.5630    3.5450 c2        1 L0Y      0.158000
     23 C24         2.5530   -0.1490    2.0840 c3        1 L0Y     -0.193000
     24 C25         2.8070   -3.4590    4.4530 c3        1 L0Y     -0.145000
     25 C26        -3.5300   -0.7480    5.6040 c2        1 L0Y      0.005000
     26 N27        -2.3500   -1.1730    5.3330 n2        1 L0Y     -0.321000
     27 N28         1.1450   -4.6590    3.0670 n8        1 L0Y     -0.138000
     28 O29         0.2920   -1.9500    6.6090 o         1 L0Y     -0.349000
     29 O30         0.5580   -1.9100    2.7530 o         1 L0Y     -0.422000
     30 O31        -0.1930   -3.7710    5.4290 oh        1 L0Y     -0.362000
     31 O32         3.3450   -5.5620    9.6930 os        1 L0Y     -0.187000
     32 O33         0.8420   -4.2980    8.9320 os        1 L0Y     -0.109000
     33 H1         -1.8590    0.9650    1.6880 hc        1 L0Y      0.165000
     34 H2          2.2910    4.2620    1.2140 ha        1 L0Y      0.241000
     35 H3         -1.1010    1.4160    4.4900 ha        1 L0Y      0.048000
     36 H4         -0.7070    2.3430    1.7840 hc        1 L0Y      0.165000
     37 H5          4.9340   -4.6850    5.5930 ha        1 L0Y      0.149000
     38 H6          5.1250   -5.5720    7.9160 ha        1 L0Y      0.180000
     39 H241        2.3860   -0.9630    1.3320 hc        1 L0Y      0.098000
     40 H242        3.5190    0.3630    1.8540 hc        1 L0Y      0.098000
     41 H251        2.6260   -0.6280    3.0940 hc        1 L0Y      0.098000
     42 H252        2.1140   -2.5670    4.4040 hc        1 L0Y      0.159500
     43 H27        -1.6420   -0.9210    5.9940 hn        1 L0Y      0.161000
     44 H151       -6.5400    3.6390    2.5110 ha        1 L0Y      0.113750
     45 H152       -8.2110    1.0140    4.8800 hc        1 L0Y      0.083000
     46 H161       -8.7500    0.3510    3.2820 hc        1 L0Y      0.083000
     47 H162       -7.7520   -1.4420    4.7220 hc        1 L0Y      0.093500
     48 H171       -7.2160    1.3150    3.3960 hc        1 L0Y      0.083000
     49 H172       -5.4850    2.2380    1.9340 ha        1 L0Y      0.113750
     50 H181       -6.8130   -1.1860    3.1990 hc        1 L0Y      0.093500
     51 H182       -6.0350    0.2160    5.8600 ha        1 L0Y      0.131000
     52 H191       -4.5430   -1.6930    3.8920 ha        1 L0Y      0.134000
     53 H192       -3.6150    3.0190    3.4330 ha        1 L0Y      0.113750
     54 H22        -4.6810    4.4240    4.0050 ha        1 L0Y      0.113750
     55 H201        1.4640   -5.8420   10.5620 h1        1 L0Y      0.102333
     56 H202        2.9500   -5.7310   11.6470 h1        1 L0Y      0.102333
     57 H211        2.2520   -4.2090   10.8730 h1        1 L0Y      0.102333
     58 H212       -1.0860   -3.9410    9.1880 ha        1 L0Y      0.096000
     59 H261       -1.0430   -3.3030    5.3450 ho        1 L0Y      0.276000
     60 H262       -3.7700   -0.1310    6.5040 h4        1 L0Y      0.099000
     61 H231        0.8620   -5.4160    2.4730 hn        1 L0Y      0.294000
     62 H232        3.0990   -5.3490    3.2930 h4        1 L0Y      0.189000
     63 H233        3.8190   -3.1170    4.0970 hc        1 L0Y      0.159500
     64 H272       -1.3330   -1.1350    2.7990 h4        1 L0Y      0.126000
     65 H281        0.4360   -3.9590    3.2880 hn        1 L0Y      0.294000
     66 C14         0.5910   -3.1170    6.3410 c2        1 L0Y      0.398000
@<TRIPOS>BOND
     1    1    3 1   
     2    1   35 1   
     3    2    4 1   
     4    2   34 1   
     5    3    7 1   
     6    3   33 1   
     7    3   36 1   
     8    4    9 1   
     9    5    6 1   
    10    5   10 1   
    11    5   37 1   
    12    6   11 1   
    13    6   38 1   
    14    7    9 1   
    15    7   13 1   
    16    8   10 1   
    17    8   12 1   
    18    8   66 1   
    19    9   23 1   
    20   10   24 1   
    21   11   12 1   
    22   11   31 1   
    23   12   32 1   
    24   13   29 1   
    25   13   64 1   
    26   14   15 1   
    27   14   45 1   
    28   14   46 1   
    29   14   48 1   
    30   15   17 1   
    31   15   47 1   
    32   15   50 1   
    33   16   18 1   
    34   16   44 1   
    35   16   49 1   
    36   17   21 1   
    37   17   51 1   
    38   18   53 1   
    39   18   54 1   
    40   19   31 1   
    41   19   55 1   
    42   19   56 1   
    43   19   57 1   
    44   20   32 1   
    45   20   58 1   
    46   21   25 1   
    47   21   52 1   
    48   22   24 1   
    49   22   27 1   
    50   22   62 1   
    51   23   39 1   
    52   23   40 1   
    53   23   41 1   
    54   24   42 1   
    55   24   63 1   
    56   25   26 1   
    57   25   60 1   
    58   26   43 1   
    59   27   61 1   
    60   27   65 1   
    61   28   66 1   
    62   30   59 1   
    63   30   66 1   
@<TRIPOS>SUBSTRUCTURE
     1 L0Y         1 TEMP              0 ****  ****    0 ROOT
