@<TRIPOS>MOLECULE
L0Y
   64    64     1     0     0
SMALL
bcc


@<TRIPOS>ATOM
      1 C1         -0.4710    2.4750    1.0030 c2        1 L0Y     -0.283000
      2 C2          1.7090   -1.3380    1.7930 c1        1 L0Y     -0.194000
      3 C3         -0.8970    1.9080    2.1480 c2        1 L0Y     -0.069000
      4 C4          1.3170   -0.1680    1.5790 c2        1 L0Y     -0.124000
      5 C5          3.5820   -4.4000    6.0500 c3        1 L0Y     -0.181000
      6 C6          3.5500   -5.3060    7.1970 c1        1 L0Y     -0.121000
      7 C7         -0.0480    1.1920    3.0490 c2        1 L0Y     -0.095000
      8 C8          1.2070   -3.7770    6.4400 c2        1 L0Y     -0.134000
      9 C9          1.2900    0.9320    2.7120 c2        1 L0Y      0.013000
     10 C10         2.3530   -3.6310    5.7270 c2        1 L0Y     -0.047000
     11 C11         2.3310   -5.4520    7.8690 c2        1 L0Y     -0.166000
     12 C12         1.1860   -4.7280    7.5310 c2        1 L0Y      0.179000
     13 C13        -0.6210    0.5020    4.2180 c2        1 L0Y      0.150000
     14 C15        -7.2100    0.7830    3.4540 c3        1 L0Y     -0.198500
     15 C16        -5.4320   -2.1640    6.6210 c1        1 L0Y     -0.043000
     16 C17        -5.7580    0.8530    3.0590 c3        1 L0Y     -0.190000
     17 C18        -4.3380   -1.2240    6.7860 c3        1 L0Y     -0.314000
     18 C19        -5.3190    2.2690    2.7900 c3        1 L0Y     -0.198500
     19 C20         1.2860   -6.0880    9.8660 c3        1 L0Y     -0.067000
     20 C21        -0.0550   -5.8780    9.1820 c3        1 L0Y     -0.068000
     21 C22        -3.8240   -0.6090    5.5570 c1        1 L0Y     -0.058000
     22 C23         2.2080   -2.6450    2.1230 c3        1 L0Y      0.035000
     23 C24         2.4630    1.4110    3.1070 c2        1 L0Y     -0.195000
     24 C25         2.4380   -2.6890    4.5560 c3        1 L0Y     -0.045000
     25 C26        -2.3760   -0.5090    5.4470 c3        1 L0Y     -0.198000
     26 N27        -1.8960    0.2650    4.3360 n2        1 L0Y     -0.229000
     27 N28         1.8500   -3.2810    3.3670 n3        1 L0Y     -0.312000
     28 O29        -0.4050   -2.0800    6.9640 o         1 L0Y     -0.568000
     29 O30         0.3810    0.1730    5.1240 oh        1 L0Y     -0.329000
     30 O31        -0.6250   -3.1360    5.0320 o         1 L0Y     -0.568000
     31 O32         2.2910   -6.3940    8.9040 os        1 L0Y     -0.183000
     32 O33         0.0020   -4.8310    8.2020 os        1 L0Y     -0.153000
     33 H1         -1.9670    1.9740    2.4220 ha        1 L0Y      0.149000
     34 H2         -1.1620    2.9930    0.3290 ha        1 L0Y      0.100500
     35 H3          0.5800    2.4810    0.6910 ha        1 L0Y      0.100500
     36 H4          0.8750    0.3280    0.6940 ha        1 L0Y      0.184000
     37 H5          3.8590   -5.0270    5.1500 hc        1 L0Y      0.146000
     38 H6          4.4390   -3.6850    6.2170 hc        1 L0Y      0.146000
     39 H241        3.4210    1.0270    2.7380 ha        1 L0Y      0.118000
     40 H242        2.5240    2.2270    3.8400 ha        1 L0Y      0.118000
     41 H251        1.9280   -1.7180    4.8420 h1        1 L0Y      0.084500
     42 H252        3.5220   -2.4590    4.3500 h1        1 L0Y      0.084500
     43 H27         0.0750   -0.5270    5.7340 ho        1 L0Y      0.265000
     44 H151       -5.1140    0.4070    3.8750 hc        1 L0Y      0.111000
     45 H152       -7.8640    1.1990    2.6480 hc        1 L0Y      0.059667
     46 H161       -7.3910    1.3700    4.3870 hc        1 L0Y      0.059667
     47 H162       -5.5820   -2.5520    5.6000 ha        1 L0Y      0.040000
     48 H171       -7.5110   -0.2760    3.6410 hc        1 L0Y      0.059667
     49 H172       -5.5920    0.2320    2.1390 hc        1 L0Y      0.111000
     50 H181       -4.6920   -0.3790    7.4530 hc        1 L0Y      0.157000
     51 H182       -3.5640   -1.7950    7.3990 hc        1 L0Y      0.157000
     52 H191       -5.4710    2.9050    3.6950 hc        1 L0Y      0.059667
     53 H192       -5.9010    2.7160    1.9480 hc        1 L0Y      0.059667
     54 H22        -4.2340    2.2910    2.5250 hc        1 L0Y      0.059667
     55 H201       -0.3850   -6.8140    8.6600 h1        1 L0Y      0.104500
     56 H202        1.5790   -5.1720   10.4430 h1        1 L0Y      0.096000
     57 H211        1.2610   -6.9810   10.5410 h1        1 L0Y      0.096000
     58 H212       -0.8420   -5.5300    9.9000 h1        1 L0Y      0.104500
     59 H261       -2.0120   -1.6060    5.3260 h1        1 L0Y      0.167500
     60 H262       -1.9090   -0.1910    6.4350 h1        1 L0Y      0.167500
     61 H231        0.8510   -3.3700    3.4860 hn        1 L0Y      0.221000
     62 H232        1.8450   -3.3420    1.3020 h1        1 L0Y      0.102500
     63 H233        3.3390   -2.6070    2.0580 h1        1 L0Y      0.102500
     64 C14        -0.0270   -2.9610    6.1350 c2        1 L0Y      0.364000
@<TRIPOS>BOND
     1    1    3 1   
     2    1   34 1   
     3    1   35 1   
     4    2    4 1   
     5    2   22 1   
     6    3    7 1   
     7    3   33 1   
     8    4    9 1   
     9    4   36 1   
    10    5    6 1   
    11    5   10 1   
    12    5   37 1   
    13    5   38 1   
    14    6   11 1   
    15    7    9 1   
    16    7   13 1   
    17    8   10 1   
    18    8   12 1   
    19    8   64 1   
    20    9   23 1   
    21   10   24 1   
    22   11   12 1   
    23   11   31 1   
    24   12   32 1   
    25   13   26 1   
    26   13   29 1   
    27   14   16 1   
    28   14   45 1   
    29   14   46 1   
    30   14   48 1   
    31   15   17 1   
    32   15   47 1   
    33   16   18 1   
    34   16   44 1   
    35   16   49 1   
    36   17   21 1   
    37   17   50 1   
    38   17   51 1   
    39   18   52 1   
    40   18   53 1   
    41   18   54 1   
    42   19   20 1   
    43   19   31 1   
    44   19   56 1   
    45   19   57 1   
    46   20   32 1   
    47   20   55 1   
    48   20   58 1   
    49   21   25 1   
    50   22   27 1   
    51   22   62 1   
    52   22   63 1   
    53   23   39 1   
    54   23   40 1   
    55   24   27 1   
    56   24   41 1   
    57   24   42 1   
    58   25   26 1   
    59   25   59 1   
    60   25   60 1   
    61   27   61 1   
    62   28   64 1   
    63   29   43 1   
    64   30   64 1   
@<TRIPOS>SUBSTRUCTURE
     1 L0Y         1 TEMP              0 ****  ****    0 ROOT
