@<TRIPOS>MOLECULE
L10
   47    49     1     0     0
SMALL
bcc


@<TRIPOS>ATOM
      1 CL16        7.7180   -0.9490   -0.3210 cl        1 L10     -0.100400
      2 C15         6.0220   -0.9810   -0.2010 ca        1 L10     -0.015600
      3 C14         5.2980    0.2130   -0.2050 ca        1 L10     -0.097500
      4 C13         3.9100    0.1950   -0.1090 ca        1 L10     -0.166500
      5 C17         5.3540   -2.2040   -0.0970 ca        1 L10     -0.097500
      6 C18         3.9700   -2.2330    0.0030 ca        1 L10     -0.166500
      7 C12         3.2170   -1.0300   -0.0020 ca        1 L10      0.083600
      8 N11         1.8210   -1.1310    0.0750 n         1 L10     -0.444100
      9 C9          0.9220   -0.0830    0.2990 c         1 L10      0.821500
     10 O10         1.2880    1.1160    0.3340 o         1 L10     -0.637100
     11 N8         -0.4290   -0.5170    0.4920 ne        1 L10     -0.727100
     12 C7         -1.4130    0.3400    0.4460 cd        1 L10      0.712500
     13 C6         -1.4590    1.7990    0.1500 cd        1 L10     -0.323600
     14 N19        -2.7950   -0.0430    0.7660 na        1 L10     -0.357800
     15 N20        -3.6250    1.0410    0.4110 na        1 L10     -0.441800
     16 C5         -2.7720    2.1850    0.1930 cc        1 L10      0.078800
     17 C2         -3.3540    3.5510   -0.0030 c3        1 L10     -0.001800
     18 C4         -2.2270    4.5670   -0.1470 c3        1 L10     -0.091433
     19 C3         -4.2130    3.9260    1.2000 c3        1 L10     -0.091433
     20 C1         -4.2080    3.5670   -1.2660 c3        1 L10     -0.091433
     21 C21        -3.2200   -1.3480    0.3190 ca        1 L10      0.099600
     22 C26        -2.7970   -2.4600    1.0770 ca        1 L10     -0.111500
     23 C25        -3.2180   -3.7390    0.7220 ca        1 L10     -0.130000
     24 C24        -4.0590   -3.9320   -0.3730 ca        1 L10     -0.127000
     25 C23        -4.4760   -2.8360   -1.1250 ca        1 L10     -0.130000
     26 C22        -4.0600   -1.5480   -0.7930 ca        1 L10     -0.111500
     27 H14         5.8200    1.1790   -0.2860 ha        1 L10      0.146500
     28 H13         3.3650    1.1540   -0.1150 ha        1 L10      0.157000
     29 H17         5.9200   -3.1480   -0.0930 ha        1 L10      0.146500
     30 H18         3.4650   -3.2080    0.0840 ha        1 L10      0.157000
     31 H11         1.4590   -2.0610    0.0990 hn        1 L10      0.331500
     32 H6         -0.5650    2.3850   -0.0610 ha        1 L10      0.205000
     33 H20        -4.2790    1.1910    1.1700 hn        1 L10      0.409800
     34 H4C1       -1.5810    4.5660    0.7640 hc        1 L10      0.045256
     35 H4C2       -1.5950    4.3250   -1.0350 hc        1 L10      0.045256
     36 H4C3       -2.6560    5.5890   -0.2820 hc        1 L10      0.045256
     37 H3C1       -4.5310    4.9940    1.1140 hc        1 L10      0.045256
     38 H3C2       -5.1320    3.2930    1.2480 hc        1 L10      0.045256
     39 H3C3       -3.6360    3.8030    2.1470 hc        1 L10      0.045256
     40 H1C1       -3.5960    3.2740   -2.1510 hc        1 L10      0.045256
     41 H1C2       -5.0660    2.8590   -1.1720 hc        1 L10      0.045256
     42 H1C3       -4.6110    4.5950   -1.4310 hc        1 L10      0.045256
     43 H26        -2.1260   -2.3240    1.9400 ha        1 L10      0.150000
     44 H25        -2.8820   -4.6010    1.3170 ha        1 L10      0.135500
     45 H24        -4.3890   -4.9460   -0.6430 ha        1 L10      0.134000
     46 H23        -5.1350   -2.9840   -1.9940 ha        1 L10      0.135500
     47 H22        -4.3970   -0.7010   -1.4090 ha        1 L10      0.150000
@<TRIPOS>BOND
     1    1    2 1   
     2    2    3 ar  
     3    2    5 ar  
     4    3    4 ar  
     5    3   27 1   
     6    4    7 ar  
     7    4   28 1   
     8    5    6 ar  
     9    5   29 1   
    10    6    7 ar  
    11    6   30 1   
    12    7    8 1   
    13    8    9 1   
    14    8   31 1   
    15    9   10 2   
    16    9   11 1   
    17   11   12 2   
    18   12   13 1   
    19   12   14 1   
    20   13   16 2   
    21   13   32 1   
    22   14   15 1   
    23   14   21 1   
    24   15   16 1   
    25   15   33 1   
    26   16   17 1   
    27   17   18 1   
    28   17   19 1   
    29   17   20 1   
    30   18   34 1   
    31   18   35 1   
    32   18   36 1   
    33   19   37 1   
    34   19   38 1   
    35   19   39 1   
    36   20   40 1   
    37   20   41 1   
    38   20   42 1   
    39   21   22 ar  
    40   21   26 ar  
    41   22   23 ar  
    42   22   43 1   
    43   23   24 ar  
    44   23   44 1   
    45   24   25 ar  
    46   24   45 1   
    47   25   26 ar  
    48   25   46 1   
    49   26   47 1   
@<TRIPOS>SUBSTRUCTURE
     1 L10         1 TEMP              0 ****  ****    0 ROOT
