@<TRIPOS>MOLECULE
L10
   47    49     1     0     0
SMALL
bcc


@<TRIPOS>ATOM
      1 Cl16        0.0710   -0.9160   -1.0510 cl        1 L10     -0.100400
      2 C15         1.7010   -0.6040   -0.6790 ca        1 L10     -0.015600
      3 C14         2.0290    0.1480    0.4500 ca        1 L10     -0.097500
      4 C13         3.3600    0.4070    0.7610 ca        1 L10     -0.166500
      5 C17         2.7110   -1.1020   -1.5060 ca        1 L10     -0.097500
      6 C18         4.0430   -0.8470   -1.2060 ca        1 L10     -0.166500
      7 C12         4.3960   -0.0850   -0.0620 ca        1 L10      0.083600
      8 N11         5.7580    0.1120    0.1980 ns        1 L10     -0.444100
      9 C9          6.3070    1.0000    1.1300 c         1 L10      0.821500
     10 O10         5.5980    1.6410    1.9400 o         1 L10     -0.637100
     11 N8          7.7340    1.1040    1.0530 ne        1 L10     -0.727100
     12 C7          8.4090    1.6740    2.0130 cd        1 L10      0.712500
     13 C6          7.9990    2.2450    3.3260 cd        1 L10     -0.323600
     14 N19         9.8550    1.9150    1.9120 na        1 L10     -0.357800
     15 N20        10.3020    2.3380    3.1820 na        1 L10     -0.441800
     16 C5          9.1330    2.6740    3.9600 cc        1 L10      0.078800
     17 C2          9.2650    3.3490    5.2910 c3        1 L10     -0.001800
     18 C4          7.8780    3.6360    5.8550 c3        1 L10     -0.091433
     19 C3         10.0210    4.6650    5.1330 c3        1 L10     -0.091433
     20 C1         10.0200    2.4390    6.2540 c3        1 L10     -0.091433
     21 C21        10.6340    0.8840    1.2700 ca        1 L10      0.099600
     22 C26        10.6020    0.8330   -0.1390 ca        1 L10     -0.111500
     23 C25        11.3740   -0.1080   -0.8150 ca        1 L10     -0.130000
     24 C24        12.1840   -0.9990   -0.1130 ca        1 L10     -0.127000
     25 C23        12.2160   -0.9540    1.2790 ca        1 L10     -0.130000
     26 C22        11.4450   -0.0250    1.9760 ca        1 L10     -0.111500
     27 H14         1.2360    0.5430    1.1040 ha        1 L10      0.146500
     28 H13         3.5890    1.0050    1.6600 ha        1 L10      0.157000
     29 H17         2.4580   -1.6960   -2.3980 ha        1 L10      0.146500
     30 H18         4.8220   -1.2480   -1.8730 ha        1 L10      0.157000
     31 H11         6.3860   -0.3320   -0.4400 hn        1 L10      0.331500
     32 H6          6.9600    2.2730    3.6570 ha        1 L10      0.205000
     33 H20        10.9120    3.1340    3.0450 hn        1 L10      0.409800
     34 H4C1        7.9710    4.1490    6.8410 hc        1 L10      0.045256
     35 H4C2        7.3120    2.6840    6.0000 hc        1 L10      0.045256
     36 H4C3        7.3020    4.2930    5.1600 hc        1 L10      0.045256
     37 H3C1        9.5480    5.2940    4.3410 hc        1 L10      0.045256
     38 H3C2        9.9970    5.2280    6.0970 hc        1 L10      0.045256
     39 H3C3       11.0890    4.4820    4.8640 hc        1 L10      0.045256
     40 H1C1       11.0550    2.2450    5.8850 hc        1 L10      0.045256
     41 H1C2        9.4890    1.4640    6.3630 hc        1 L10      0.045256
     42 H1C3       10.0840    2.9280    7.2560 hc        1 L10      0.045256
     43 H26         9.9610    1.5250   -0.7080 ha        1 L10      0.150000
     44 H25        11.3420   -0.1420   -1.9150 ha        1 L10      0.135500
     45 H24        12.7930   -1.7370   -0.6560 ha        1 L10      0.134000
     46 H23        12.8490   -1.6580    1.8390 ha        1 L10      0.135500
     47 H22        11.4820   -0.0160    3.0760 ha        1 L10      0.150000
@<TRIPOS>BOND
     1    1    2 1   
     2    2    3 ar  
     3    2    5 ar  
     4    3    4 ar  
     5    3   27 1   
     6    4    7 ar  
     7    4   28 1   
     8    5    6 ar  
     9    5   29 1   
    10    6    7 ar  
    11    6   30 1   
    12    7    8 1   
    13    8    9 1   
    14    8   31 1   
    15    9   10 2   
    16    9   11 1   
    17   11   12 2   
    18   12   13 1   
    19   12   14 1   
    20   13   16 2   
    21   13   32 1   
    22   14   15 1   
    23   14   21 1   
    24   15   16 1   
    25   15   33 1   
    26   16   17 1   
    27   17   18 1   
    28   17   19 1   
    29   17   20 1   
    30   18   34 1   
    31   18   35 1   
    32   18   36 1   
    33   19   37 1   
    34   19   38 1   
    35   19   39 1   
    36   20   40 1   
    37   20   41 1   
    38   20   42 1   
    39   21   22 ar  
    40   21   26 ar  
    41   22   23 ar  
    42   22   43 1   
    43   23   24 ar  
    44   23   44 1   
    45   24   25 ar  
    46   24   45 1   
    47   25   26 ar  
    48   25   46 1   
    49   26   47 1   
@<TRIPOS>SUBSTRUCTURE
     1 L10         1 TEMP              0 ****  ****    0 ROOT
