@<TRIPOS>MOLECULE
L10
   48    50     1     0     0
SMALL
bcc


@<TRIPOS>ATOM
      1 CL16        2.5550    1.0280   -2.9430 cl        1 L10     -0.023400
      2 C15         3.3580    0.3550   -1.6200 ca        1 L10      0.053400
      3 C14         2.6650    0.1310   -0.4230 ca        1 L10     -0.113000
      4 C13         3.3210   -0.4250    0.6700 ca        1 L10     -0.085500
      5 C17         4.7150    0.0230   -1.7220 ca        1 L10     -0.113000
      6 C18         5.3830   -0.5330   -0.6360 ca        1 L10     -0.085500
      7 C12         4.6820   -0.7630    0.5620 ca        1 L10     -0.044400
      8 N11         5.3720   -1.3580    1.7030 n4        1 L10     -0.520200
      9 C9          6.1110   -0.2870    2.5480 c         1 L10      0.699500
     10 O10         5.5080   -0.0430    3.6030 o         1 L10     -0.545100
     11 N8          7.2790    0.1310    1.9680 ne        1 L10     -0.771100
     12 C7          8.0110    1.0720    2.6010 cd        1 L10      0.756500
     13 C6          7.8320    1.7400    3.8900 cd        1 L10     -0.368600
     14 N19         9.1740    1.6520    2.0010 na        1 L10     -0.318800
     15 N20         9.8260    2.3960    2.9860 na        1 L10     -0.432800
     16 C5          8.9250    2.5870    4.0620 cc        1 L10      0.164800
     17 C2          9.2200    3.5260    5.1940 c3        1 L10     -0.012800
     18 C4          8.0390    3.5400    6.1580 c3        1 L10     -0.096767
     19 C3          9.4450    4.9320    4.6490 c3        1 L10     -0.096767
     20 C1         10.4690    3.0540    5.9310 c3        1 L10     -0.096767
     21 C21         9.9780    0.9200    1.0540 ca        1 L10      0.071600
     22 C26         9.6870    1.0730   -0.3150 ca        1 L10     -0.102500
     23 C25        10.4570    0.3920   -1.2550 ca        1 L10     -0.124000
     24 C24        11.5100   -0.4290   -0.8510 ca        1 L10     -0.098000
     25 C23        11.7970   -0.5760    0.5060 ca        1 L10     -0.124000
     26 C22        11.0380    0.0910    1.4650 ca        1 L10     -0.102500
     27 H14         1.5970    0.3950   -0.3410 ha        1 L10      0.176000
     28 H13         2.7620   -0.5890    1.6070 ha        1 L10      0.164500
     29 H17         5.2610    0.2000   -2.6640 ha        1 L10      0.176000
     30 H18         6.4550   -0.7760   -0.7230 ha        1 L10      0.164500
     31 H11         4.6860   -1.8060    2.3240 hn        1 L10      0.459800
     32 H6          6.9930    1.5690    4.5650 ha        1 L10      0.213000
     33 H20        10.3130    3.1950    2.6100 hn        1 L10      0.466800
     34 H4C1        7.1100    3.8730    5.6360 hc        1 L10      0.054256
     35 H4C2        7.8710    2.5240    6.5880 hc        1 L10      0.054256
     36 H4C3        8.2520    4.2490    6.9950 hc        1 L10      0.054256
     37 H3C1       10.3770    4.9820    4.0370 hc        1 L10      0.054256
     38 H3C2        8.5780    5.2580    4.0260 hc        1 L10      0.054256
     39 H3C3        9.5530    5.6460    5.5030 hc        1 L10      0.054256
     40 H1C1       11.3600    3.0770    5.2600 hc        1 L10      0.054256
     41 H1C2       10.3290    2.0140    6.3120 hc        1 L10      0.054256
     42 H1C3       10.6610    3.7290    6.8000 hc        1 L10      0.054256
     43 H26         8.8630    1.7220   -0.6480 ha        1 L10      0.151500
     44 H25        10.2350    0.5140   -2.3270 ha        1 L10      0.153000
     45 H24        12.1170   -0.9580   -1.6030 ha        1 L10      0.154000
     46 H23        12.6300   -1.2220    0.8260 ha        1 L10      0.153000
     47 H22        11.2800   -0.0320    2.5320 ha        1 L10      0.151500
     48 H112        6.0400   -2.0570    1.3650 hn        1 L10      0.459800
@<TRIPOS>BOND
     1    1    2 1   
     2    2    3 ar  
     3    2    5 ar  
     4    3    4 ar  
     5    3   27 1   
     6    4    7 ar  
     7    4   28 1   
     8    5    6 ar  
     9    5   29 1   
    10    6    7 ar  
    11    6   30 1   
    12    7    8 1   
    13    8    9 1   
    14    8   31 1   
    15    8   48 1   
    16    9   10 2   
    17    9   11 1   
    18   11   12 2   
    19   12   13 1   
    20   12   14 1   
    21   13   16 2   
    22   13   32 1   
    23   14   15 1   
    24   14   21 1   
    25   15   16 1   
    26   15   33 1   
    27   16   17 1   
    28   17   18 1   
    29   17   19 1   
    30   17   20 1   
    31   18   34 1   
    32   18   35 1   
    33   18   36 1   
    34   19   37 1   
    35   19   38 1   
    36   19   39 1   
    37   20   40 1   
    38   20   41 1   
    39   20   42 1   
    40   21   22 ar  
    41   21   26 ar  
    42   22   23 ar  
    43   22   43 1   
    44   23   24 ar  
    45   23   44 1   
    46   24   25 ar  
    47   24   45 1   
    48   25   26 ar  
    49   25   46 1   
    50   26   47 1   
@<TRIPOS>SUBSTRUCTURE
     1 L10         1 TEMP              0 ****  ****    0 ROOT
