@<TRIPOS>MOLECULE
L10
   47    40     1     0     0
SMALL
bcc


@<TRIPOS>ATOM
      1 CL16       -8.1390    0.3220   -2.5420 cl        1 L10     -0.022000
      2 C15        -6.4140    0.4960   -2.3690 c2        1 L10     -0.094000
      3 C14        -5.8840    1.6730   -1.8640 c2        1 L10     -0.097000
      4 C13        -4.5110    1.8200   -1.7450 c1        1 L10     -0.181000
      5 C17        -5.5710   -0.5340   -2.7550 c1        1 L10     -0.098000
      6 C18        -4.1980   -0.3870   -2.6370 c1        1 L10     -0.152000
      7 C12        -3.6670    0.7900   -2.1320 c1        1 L10      0.091000
      8 N11        -2.2640    0.9870   -2.1270 n         1 L10     -0.298000
      9 C9         -1.4630    0.3630   -1.1360 c2        1 L10      0.376000
     10 O10        -1.9800   -0.3400   -0.2910 o         1 L10     -0.398000
     11 N8         -0.0690    0.6280   -1.0810 n2        1 L10     -0.300000
     12 C7          0.6570    0.1150   -0.1230 c1        1 L10      0.186000
     13 C6          0.2050   -0.6870    0.8840 c1        1 L10     -0.237000
     14 N19         1.9840    0.2870    0.0450 n3        1 L10     -0.124000
     15 N20         2.3660   -0.4120    1.1620 n2        1 L10     -0.155000
     16 C5          1.2700   -1.0090    1.6760 c1        1 L10      0.001000
     17 C2          1.2230   -1.8520    2.9310 c2        1 L10     -0.006000
     18 C4          0.4080   -1.1400    3.9870 c3        1 L10     -0.209333
     19 C3          2.6290   -2.0740    3.4430 c3        1 L10     -0.209333
     20 C1          0.5850   -3.1870    2.6170 c3        1 L10     -0.209333
     21 C21         2.7830    1.0390   -0.7220 c1        1 L10      0.018000
     22 C26         3.5430    0.4490   -1.7190 c1        1 L10     -0.120500
     23 C25         4.4040    1.2200   -2.4830 c1        1 L10     -0.120500
     24 C24         4.5040    2.5830   -2.2510 c1        1 L10     -0.120500
     25 C23         3.7440    3.1730   -1.2540 c1        1 L10     -0.120500
     26 C22         2.8830    2.4020   -0.4900 c1        1 L10     -0.128000
     27 H14        -6.4770    2.3980   -1.5920 ha        1 L10      0.145000
     28 H13        -4.1380    2.6490   -1.3900 ha        1 L10      0.135000
     29 H17        -5.9450   -1.3630   -3.1100 ha        1 L10      0.148000
     30 H18        -3.6050   -1.1130   -2.9090 ha        1 L10      0.179000
     31 H11        -1.8770    1.5210   -2.7560 hn        1 L10      0.245000
     32 H6         -0.7160   -0.9790    1.0160 DU        1 L10      0.205000
     33 H20         3.2110   -0.4640    1.4990 DU        1 L10      0.205000
     34 H4C1       -0.5230   -1.0700    3.6890 hc        1 L10      0.084556
     35 H4C2        0.7730   -0.2420    4.1300 hc        1 L10      0.084556
     36 H4C3        0.4460   -1.6460    4.8250 hc        1 L10      0.084556
     37 H3C1        2.6030   -2.6680    4.2210 hc        1 L10      0.084556
     38 H3C2        3.1730   -2.4820    2.7370 hc        1 L10      0.084556
     39 H3C3        3.0210   -1.2140    3.7010 hc        1 L10      0.084556
     40 H1C1        0.5920   -3.7490    3.4200 hc        1 L10      0.084556
     41 H1C2       -0.3400   -3.0460    2.3250 hc        1 L10      0.084556
     42 H1C3        1.0890   -3.6310    1.9030 hc        1 L10      0.084556
     43 H26         3.4730   -0.5110   -1.8830 ha        1 L10      0.139500
     44 H25         4.9390    0.8050   -3.1840 ha        1 L10      0.139500
     45 H24         5.1100    3.1260   -2.7890 ha        1 L10      0.139500
     46 H23         3.8140    4.1340   -1.0900 ha        1 L10      0.139500
     47 H22         2.3470    2.8180    0.2120 ha        1 L10      0.147000
@<TRIPOS>BOND
     1    1    2 1   
     2    2    3 1   
     3    2    5 1   
     4    3    4 1   
     5    3   27 1   
     6    4   28 1   
     7    5   29 1   
     8    6    7 1   
     9    6   30 1   
    10    7    8 1   
    11    8    9 1   
    12    8   31 1   
    13    9   10 1   
    14    9   11 1   
    15   11   12 1   
    16   12   14 1   
    17   13   16 1   
    18   14   15 1   
    19   14   21 1   
    20   15   16 1   
    21   17   18 1   
    22   17   19 1   
    23   17   20 1   
    24   18   34 1   
    25   18   35 1   
    26   18   36 1   
    27   19   37 1   
    28   19   38 1   
    29   19   39 1   
    30   20   40 1   
    31   20   41 1   
    32   20   42 1   
    33   21   26 1   
    34   22   23 1   
    35   22   43 1   
    36   23   44 1   
    37   24   25 1   
    38   24   45 1   
    39   25   46 1   
    40   26   47 1   
@<TRIPOS>SUBSTRUCTURE
     1 L10         1 TEMP              0 ****  ****    0 ROOT
