@<TRIPOS>MOLECULE
L11
   56    59     1     0     0
SMALL
bcc


@<TRIPOS>ATOM
      1 Cl15       -0.1600    0.2870    0.1420 cl        1 L11     -0.094400
      2 C14         1.5340    0.1350    0.2070 ca        1 L11     -0.012600
      3 C13         2.1640    0.0950    1.4520 ca        1 L11     -0.096000
      4 C12         3.5460   -0.0270    1.5470 ca        1 L11     -0.146000
      5 C16         2.2960    0.0510   -0.9700 ca        1 L11     -0.056300
      6 C17         1.6000    0.0970   -2.2910 c3        1 L11      0.170700
      7 O18         2.5860    0.0030   -3.3320 os        1 L11     -0.326900
      8 C19         2.0860    0.0180   -4.6160 ca        1 L11      0.011800
      9 C24         0.7210    0.1360   -4.9590 ca        1 L11      0.327200
     10 N23         0.2930    0.1470   -6.2350 nb        1 L11     -0.633000
     11 C22         1.2150    0.0420   -7.2080 ca        1 L11      0.360200
     12 C21         2.5970   -0.0790   -6.9590 ca        1 L11     -0.213300
     13 C20         3.0450   -0.0910   -5.6420 ca        1 L11     -0.123000
     14 C25         3.6800   -0.0730   -0.8810 ca        1 L11     -0.156000
     15 C11         4.3300   -0.1150    0.3780 ca        1 L11      0.073600
     16 N10         5.7290   -0.2280    0.3930 ns        1 L11     -0.468100
     17 C8          6.5480   -0.4170    1.4990 c         1 L11      0.671300
     18 O9          6.1090   -0.5080    2.6600 o         1 L11     -0.577100
     19 C6          8.0170   -0.5210    1.2220 ce        1 L11     -0.163400
     20 C7          8.7460   -1.3850    1.9410 c2        1 L11     -0.128200
     21 C2         10.2180   -1.6000    1.7220 c3        1 L11      0.197800
     22 F1         10.9440   -1.2590    2.8570 f         1 L11     -0.232300
     23 C5          8.5910    0.3720    0.1810 c3        1 L11     -0.051200
     24 C4         10.1070    0.5510    0.3900 c3        1 L11      0.189500
     25 C3         10.7340   -0.8500    0.4860 c3        1 L11     -0.107400
     26 N26        10.7630    1.3450   -0.6600 n3        1 L11     -0.726600
     27 C31        12.0400    1.8800   -0.1970 c3        1 L11      0.131300
     28 C30        12.7390    2.7380   -1.2570 c3        1 L11      0.125900
     29 O29        11.8850    3.7690   -1.7390 os        1 L11     -0.412600
     30 C28        10.6690    3.2500   -2.2590 c3        1 L11      0.125900
     31 C27         9.9240    2.3910   -1.2290 c3        1 L11      0.131300
     32 H13         1.5650    0.1610    2.3740 ha        1 L11      0.153000
     33 H12         4.0120   -0.0570    2.5460 ha        1 L11      0.180000
     34 H171        0.8860   -0.7670   -2.3810 h1        1 L11      0.063700
     35 H172        1.0420    1.0670   -2.4010 h1        1 L11      0.063700
     36 H24        -0.0680    0.2240   -4.1920 h4        1 L11      0.029100
     37 H22         0.8270    0.0560   -8.2420 h4        1 L11      0.025100
     38 H21         3.3060   -0.1610   -7.7940 ha        1 L11      0.146000
     39 H20         4.1100   -0.1840   -5.3930 ha        1 L11      0.151000
     40 H25         4.2630   -0.1400   -1.8140 ha        1 L11      0.153000
     41 H10         6.1680   -0.2190   -0.5010 hn        1 L11      0.320500
     42 H7          8.2950   -1.9880    2.7480 ha        1 L11      0.161000
     43 H2         10.3770   -2.7090    1.5470 h1        1 L11      0.063700
     44 H51         8.0820    1.3720    0.2340 hc        1 L11      0.062200
     45 H52         8.3990   -0.0660   -0.8360 hc        1 L11      0.062200
     46 H41        10.2430    1.0520    1.4000 h1        1 L11      0.046700
     47 H3C1       10.4760   -1.4410   -0.4290 hc        1 L11      0.066700
     48 H3C2       11.8500   -0.7850    0.5530 hc        1 L11      0.066700
     49 H311       12.7130    1.0150    0.0540 h1        1 L11      0.042700
     50 H312       11.9140    2.5040    0.7370 h1        1 L11      0.042700
     51 H301       13.6070    3.2830   -0.8010 h1        1 L11      0.055200
     52 H302       13.0870    2.1060   -2.1160 h1        1 L11      0.055200
     53 H281       10.8810    2.6570   -3.1880 h1        1 L11      0.055200
     54 H282       10.0610    4.1590   -2.5110 h1        1 L11      0.055200
     55 H271        9.0610    1.9000   -1.7600 h1        1 L11      0.042700
     56 H272        9.5080    3.0740   -0.4320 h1        1 L11      0.042700
@<TRIPOS>BOND
     1    1    2 1   
     2    2    3 ar  
     3    2    5 ar  
     4    3    4 ar  
     5    3   32 1   
     6    4   15 ar  
     7    4   33 1   
     8    5    6 1   
     9    5   14 ar  
    10    6    7 1   
    11    6   34 1   
    12    6   35 1   
    13    7    8 1   
    14    8    9 ar  
    15    8   13 ar  
    16    9   10 ar  
    17    9   36 1   
    18   10   11 ar  
    19   11   12 ar  
    20   11   37 1   
    21   12   13 ar  
    22   12   38 1   
    23   13   39 1   
    24   14   15 ar  
    25   14   40 1   
    26   15   16 1   
    27   16   17 1   
    28   16   41 1   
    29   17   18 2   
    30   17   19 1   
    31   19   20 2   
    32   19   23 1   
    33   20   21 1   
    34   20   42 1   
    35   21   22 1   
    36   21   25 1   
    37   21   43 1   
    38   23   24 1   
    39   23   44 1   
    40   23   45 1   
    41   24   25 1   
    42   24   26 1   
    43   24   46 1   
    44   25   47 1   
    45   25   48 1   
    46   26   27 1   
    47   26   31 1   
    48   27   28 1   
    49   27   49 1   
    50   27   50 1   
    51   28   29 1   
    52   28   51 1   
    53   28   52 1   
    54   29   30 1   
    55   30   31 1   
    56   30   53 1   
    57   30   54 1   
    58   31   55 1   
    59   31   56 1   
@<TRIPOS>SUBSTRUCTURE
     1 L11         1 TEMP              0 ****  ****    0 ROOT
