@<TRIPOS>MOLECULE
L11
   56    59     1     0     0
SMALL
bcc


@<TRIPOS>ATOM
      1 CL15       -5.0890   -2.9600    1.5360 cl        1 L11     -0.094400
      2 C14        -3.5160   -2.5220    1.0560 ca        1 L11     -0.012600
      3 C13        -2.4770   -3.4390    1.2220 ca        1 L11     -0.096000
      4 C12        -1.1780   -3.1190    0.8430 ca        1 L11     -0.146000
      5 C16        -3.2570   -1.2590    0.4990 ca        1 L11     -0.056300
      6 C17        -4.3860   -0.2940    0.3310 c3        1 L11      0.170700
      7 O18        -3.8700    0.9160   -0.2470 os        1 L11     -0.326900
      8 C19        -4.8070    1.9010   -0.4750 ca        1 L11      0.011800
      9 C24        -6.1830    1.8060   -0.1700 ca        1 L11      0.327200
     10 N23        -7.0500    2.8060   -0.4150 nb        1 L11     -0.633000
     11 C22        -6.5710    3.9310   -0.9730 ca        1 L11      0.360200
     12 C21        -5.2150    4.1140   -1.3120 ca        1 L11     -0.213300
     13 C20        -4.3140    3.0840   -1.0600 ca        1 L11     -0.123000
     14 C25        -1.9590   -0.9340    0.1160 ca        1 L11     -0.156000
     15 C11        -0.8960   -1.8570    0.2810 ca        1 L11      0.073600
     16 N10         0.3900   -1.4580   -0.1150 n         1 L11     -0.468100
     17 C8          1.5370   -2.2400   -0.1660 c         1 L11      0.671300
     18 O9          1.5530   -3.4420    0.1530 o         1 L11     -0.577100
     19 C6          2.7810   -1.5550   -0.6480 ce        1 L11     -0.163400
     20 C7          3.6350   -2.2420   -1.4190 c2        1 L11     -0.128200
     21 C2          4.8910   -1.6430   -1.9890 c3        1 L11      0.197800
     22 F1          6.0150   -2.3080   -1.5150 f         1 L11     -0.232300
     23 C5          3.0140   -0.1540   -0.2080 c3        1 L11     -0.051200
     24 C4          4.5090    0.2070   -0.3010 c3        1 L11      0.189500
     25 C3          4.9840   -0.1350   -1.7240 c3        1 L11     -0.107400
     26 N26         4.8050    1.6090    0.0240 n3        1 L11     -0.726600
     27 C31         6.2100    1.7830    0.3860 c3        1 L11      0.131300
     28 C30         6.5480    3.2300    0.7600 c3        1 L11      0.125900
     29 O29         5.6840    3.7200    1.7780 os        1 L11     -0.412600
     30 C28         4.3160    3.6230    1.4040 c3        1 L11      0.125900
     31 C27         3.9240    2.1870    1.0300 c3        1 L11      0.131300
     32 H13        -2.6820   -4.4300    1.6590 ha        1 L11      0.153000
     33 H12        -0.3800   -3.8670    0.9870 ha        1 L11      0.180000
     34 H171       -5.1650   -0.7270   -0.3540 h1        1 L11      0.063700
     35 H172       -4.8440   -0.0580    1.3300 h1        1 L11      0.063700
     36 H24        -6.6170    0.9010    0.2890 h4        1 L11      0.029100
     37 H22        -7.3120    4.7290   -1.1590 h4        1 L11      0.025100
     38 H21        -4.8790    5.0550   -1.7660 ha        1 L11      0.146000
     39 H20        -3.2470    3.1740   -1.3050 ha        1 L11      0.151000
     40 H25        -1.7730    0.0610   -0.3210 ha        1 L11      0.153000
     41 H10         0.4650   -0.5180   -0.4400 hn        1 L11      0.320500
     42 H7          3.4560   -3.3000   -1.6740 ha        1 L11      0.161000
     43 H2          4.8620   -1.7990   -3.1120 h1        1 L11      0.063700
     44 H51         2.6640   -0.0380    0.8530 hc        1 L11      0.062200
     45 H52         2.4160    0.5460   -0.8540 hc        1 L11      0.062200
     46 H41         5.0590   -0.4850    0.4120 h1        1 L11      0.046700
     47 H3C1        6.0460    0.1850   -1.8790 hc        1 L11      0.066700
     48 H3C2        4.3480    0.4030   -2.4720 hc        1 L11      0.066700
     49 H311        6.5010    1.1160    1.2500 h1        1 L11      0.042700
     50 H312        6.8390    1.4930   -0.5010 h1        1 L11      0.042700
     51 H301        7.5730    3.2810    1.2130 h1        1 L11      0.055200
     52 H302        6.4890    3.8980   -0.1390 h1        1 L11      0.055200
     53 H281        3.7520    3.9480    2.3180 h1        1 L11      0.055200
     54 H282        4.1090    4.3230    0.5520 h1        1 L11      0.055200
     55 H271        2.8820    2.2220    0.6060 h1        1 L11      0.042700
     56 H272        3.9020    1.5680    1.9740 h1        1 L11      0.042700
@<TRIPOS>BOND
     1    1    2 1   
     2    2    3 ar  
     3    2    5 ar  
     4    3    4 ar  
     5    3   32 1   
     6    4   15 ar  
     7    4   33 1   
     8    5    6 1   
     9    5   14 ar  
    10    6    7 1   
    11    6   34 1   
    12    6   35 1   
    13    7    8 1   
    14    8    9 ar  
    15    8   13 ar  
    16    9   10 ar  
    17    9   36 1   
    18   10   11 ar  
    19   11   12 ar  
    20   11   37 1   
    21   12   13 ar  
    22   12   38 1   
    23   13   39 1   
    24   14   15 ar  
    25   14   40 1   
    26   15   16 1   
    27   16   17 1   
    28   16   41 1   
    29   17   18 2   
    30   17   19 1   
    31   19   20 2   
    32   19   23 1   
    33   20   21 1   
    34   20   42 1   
    35   21   22 1   
    36   21   25 1   
    37   21   43 1   
    38   23   24 1   
    39   23   44 1   
    40   23   45 1   
    41   24   25 1   
    42   24   26 1   
    43   24   46 1   
    44   25   47 1   
    45   25   48 1   
    46   26   27 1   
    47   26   31 1   
    48   27   28 1   
    49   27   49 1   
    50   27   50 1   
    51   28   29 1   
    52   28   51 1   
    53   28   52 1   
    54   29   30 1   
    55   30   31 1   
    56   30   53 1   
    57   30   54 1   
    58   31   55 1   
    59   31   56 1   
@<TRIPOS>SUBSTRUCTURE
     1 L11         1 TEMP              0 ****  ****    0 ROOT
