@<TRIPOS>MOLECULE
L11
   56    59     1     0     0
SMALL
bcc


@<TRIPOS>ATOM
      1 CL15       -0.1590    0.3040    0.1470 cl        1 L11     -0.094400
      2 C14         1.5340    0.1500    0.2100 ca        1 L11     -0.012600
      3 C13         2.1650    0.1130    1.4540 ca        1 L11     -0.096000
      4 C12         3.5470   -0.0120    1.5480 ca        1 L11     -0.146000
      5 C16         2.2950    0.0600   -0.9670 ca        1 L11     -0.056300
      6 C17         1.5970    0.1020   -2.2880 c3        1 L11      0.170700
      7 O18         2.5820    0.0050   -3.3290 os        1 L11     -0.326900
      8 C19         2.0810    0.0180   -4.6130 ca        1 L11      0.011800
      9 C24         0.7150    0.1330   -4.9550 ca        1 L11      0.327200
     10 N23         0.2870    0.1420   -6.2310 nb        1 L11     -0.633000
     11 C22         1.2080    0.0370   -7.2050 ca        1 L11      0.360200
     12 C21         2.5900   -0.0820   -6.9570 ca        1 L11     -0.213300
     13 C20         3.0390   -0.0920   -5.6400 ca        1 L11     -0.123000
     14 C25         3.6780   -0.0670   -0.8790 ca        1 L11     -0.156000
     15 C11         4.3300   -0.1050    0.3780 ca        1 L11      0.073600
     16 N10         5.7290   -0.2210    0.3930 n         1 L11     -0.468100
     17 C8          6.5480   -0.4110    1.4990 c         1 L11      0.671300
     18 O9          6.1090   -0.5010    2.6600 o         1 L11     -0.577100
     19 C6          8.0170   -0.5210    1.2200 ce        1 L11     -0.163400
     20 C7          8.7440   -1.3870    1.9380 c2        1 L11     -0.128200
     21 C2         10.2150   -1.6060    1.7170 c3        1 L11      0.197800
     22 F1         10.9420   -1.2680    2.8520 f         1 L11     -0.232300
     23 C5          8.5920    0.3720    0.1790 c3        1 L11     -0.051200
     24 C4         10.1080    0.5470    0.3870 c3        1 L11      0.189500
     25 C3         10.7320   -0.8560    0.4820 c3        1 L11     -0.107400
     26 N26        10.7660    1.3390   -0.6620 n3        1 L11     -0.726600
     27 C31        12.0450    1.8720   -0.1980 c3        1 L11      0.131300
     28 C30        12.7460    2.7290   -1.2580 c3        1 L11      0.125900
     29 O29        11.8950    3.7620   -1.7390 os        1 L11     -0.412600
     30 C28        10.6770    3.2470   -2.2600 c3        1 L11      0.125900
     31 C27         9.9300    2.3880   -1.2300 c3        1 L11      0.131300
     32 H13         1.5680    0.1830    2.3770 ha        1 L11      0.153000
     33 H12         4.0150   -0.0390    2.5470 ha        1 L11      0.180000
     34 H171        0.8830   -0.7620   -2.3750 h1        1 L11      0.063700
     35 H172        1.0390    1.0710   -2.4000 h1        1 L11      0.063700
     36 H24        -0.0730    0.2210   -4.1880 h4        1 L11      0.029100
     37 H22         0.8180    0.0480   -8.2380 h4        1 L11      0.025100
     38 H21         3.2980   -0.1650   -7.7920 ha        1 L11      0.146000
     39 H20         4.1050   -0.1820   -5.3920 ha        1 L11      0.151000
     40 H25         4.2610   -0.1390   -1.8130 ha        1 L11      0.153000
     41 H10         6.1670   -0.2150   -0.5020 hn        1 L11      0.320500
     42 H7          8.2910   -1.9900    2.7440 ha        1 L11      0.161000
     43 H2         10.3710   -2.7160    1.5410 h1        1 L11      0.063700
     44 H51         8.0860    1.3740    0.2340 hc        1 L11      0.062200
     45 H52         8.3980   -0.0650   -0.8380 hc        1 L11      0.062200
     46 H41        10.2470    1.0460    1.3990 h1        1 L11      0.046700
     47 H3C1       11.8480   -0.7940    0.5490 hc        1 L11      0.066700
     48 H3C2       10.4720   -1.4460   -0.4340 hc        1 L11      0.066700
     49 H311       12.7160    1.0040    0.0520 h1        1 L11      0.042700
     50 H312       11.9200    2.4950    0.7360 h1        1 L11      0.042700
     51 H301       13.0920    2.0960   -2.1170 h1        1 L11      0.055200
     52 H302       13.6150    3.2710   -0.8020 h1        1 L11      0.055200
     53 H281       10.8870    2.6540   -3.1890 h1        1 L11      0.055200
     54 H282       10.0710    4.1570   -2.5110 h1        1 L11      0.055200
     55 H271        9.5150    3.0710   -0.4330 h1        1 L11      0.042700
     56 H272        9.0660    1.9000   -1.7620 h1        1 L11      0.042700
@<TRIPOS>BOND
     1    1    2 1   
     2    2    3 ar  
     3    2    5 ar  
     4    3    4 ar  
     5    3   32 1   
     6    4   15 ar  
     7    4   33 1   
     8    5    6 1   
     9    5   14 ar  
    10    6    7 1   
    11    6   34 1   
    12    6   35 1   
    13    7    8 1   
    14    8    9 ar  
    15    8   13 ar  
    16    9   10 ar  
    17    9   36 1   
    18   10   11 ar  
    19   11   12 ar  
    20   11   37 1   
    21   12   13 ar  
    22   12   38 1   
    23   13   39 1   
    24   14   15 ar  
    25   14   40 1   
    26   15   16 1   
    27   16   17 1   
    28   16   41 1   
    29   17   18 2   
    30   17   19 1   
    31   19   20 2   
    32   19   23 1   
    33   20   21 1   
    34   20   42 1   
    35   21   22 1   
    36   21   25 1   
    37   21   43 1   
    38   23   24 1   
    39   23   44 1   
    40   23   45 1   
    41   24   25 1   
    42   24   26 1   
    43   24   46 1   
    44   25   47 1   
    45   25   48 1   
    46   26   27 1   
    47   26   31 1   
    48   27   28 1   
    49   27   49 1   
    50   27   50 1   
    51   28   29 1   
    52   28   51 1   
    53   28   52 1   
    54   29   30 1   
    55   30   31 1   
    56   30   53 1   
    57   30   54 1   
    58   31   55 1   
    59   31   56 1   
@<TRIPOS>SUBSTRUCTURE
     1 L11         1 TEMP              0 ****  ****    0 ROOT
