@<TRIPOS>MOLECULE
L11
   57    60     1     0     0
SMALL
bcc


@<TRIPOS>ATOM
      1 CL15        1.0910   -1.9880   -0.5550 cl        1 L11     -0.010400
      2 C14         2.2080   -0.8500   -0.0010 ca        1 L11      0.053400
      3 C13         2.1630   -0.4570    1.3440 ca        1 L11     -0.102000
      4 C12         3.0660    0.4750    1.8390 ca        1 L11     -0.092000
      5 C16         3.1700   -0.3000   -0.8700 ca        1 L11     -0.060300
      6 C17         3.2120   -0.7330   -2.3010 c3        1 L11      0.163700
      7 O18         4.2310    0.0230   -2.9700 os        1 L11     -0.349900
      8 C19         4.1640   -0.0280   -4.3540 ca        1 L11     -0.022200
      9 C24         3.6110   -1.1040   -5.0800 ca        1 L11      0.348200
     10 N23         3.6200   -1.1470   -6.4250 nb        1 L11     -0.625000
     11 C22         4.1850   -0.1180   -7.0820 ca        1 L11      0.386200
     12 C21         4.7600    0.9960   -6.4370 ca        1 L11     -0.212300
     13 C20         4.7480    1.0470   -5.0460 ca        1 L11     -0.112000
     14 C25         4.0810    0.6380   -0.3790 ca        1 L11     -0.077000
     15 C11         4.0270    1.0230    0.9700 ca        1 L11     -0.063400
     16 N10         4.9730    2.0220    1.4770 n4        1 L11     -0.542200
     17 C8          5.9730    1.4010    2.4460 c         1 L11      0.565300
     18 O9          5.6330    1.4660    3.6200 o         1 L11     -0.430100
     19 C6          7.1920    0.8120    1.8780 ce        1 L11     -0.203400
     20 C7          7.8630   -0.0750    2.6410 c2        1 L11     -0.034200
     21 C2          9.0950   -0.8070    2.1670 c3        1 L11      0.196800
     22 F1         10.1900   -0.4530    2.9420 f         1 L11     -0.207300
     23 C5          7.6360    1.2290    0.5210 c3        1 L11     -0.054200
     24 C4          9.1290    0.8920    0.3020 c3        1 L11      0.199500
     25 C3          9.3580   -0.5770    0.6760 c3        1 L11     -0.149400
     26 N26         9.5520    1.2970   -1.0340 n3        1 L11     -0.735600
     27 C31         9.1820    0.3670   -2.0930 c3        1 L11      0.130800
     28 C30         9.6450    0.8510   -3.4740 c3        1 L11      0.125900
     29 O29        11.0380    1.1300   -3.4810 os        1 L11     -0.400600
     30 C28        11.3960    2.0950   -2.5000 c3        1 L11      0.125900
     31 C27        10.9660    1.6580   -1.0930 c3        1 L11      0.130800
     32 H13         1.4040   -0.8900    2.0200 ha        1 L11      0.185000
     33 H12         3.0210    0.7690    2.9020 ha        1 L11      0.171000
     34 H171        2.2150   -0.5580   -2.7910 h1        1 L11      0.080200
     35 H172        3.4770   -1.8250   -2.3580 h1        1 L11      0.080200
     36 H24         3.1400   -1.9660   -4.5760 h4        1 L11      0.028100
     37 H22         4.1750   -0.1910   -8.1860 h4        1 L11      0.041100
     38 H21         5.2050    1.8090   -7.0270 ha        1 L11      0.158000
     39 H20         5.1830    1.8930   -4.4970 ha        1 L11      0.147000
     40 H25         4.8290    1.0620   -1.0740 ha        1 L11      0.177000
     41 H10         5.4690    2.4530    0.6880 hn        1 L11      0.465800
     42 H7          7.5400   -0.3210    3.6700 ha        1 L11      0.172000
     43 H2          8.9060   -1.9140    2.3310 h1        1 L11      0.089700
     44 H51         7.5200    2.3390    0.3910 hc        1 L11      0.061700
     45 H52         7.0060    0.7140   -0.2550 hc        1 L11      0.061700
     46 H41         9.7170    1.5180    1.0430 h1        1 L11      0.077700
     47 H3C1        8.6750   -1.2400    0.0850 hc        1 L11      0.081200
     48 H3C2       10.4160   -0.8710    0.4460 hc        1 L11      0.081200
     49 H311        9.6210   -0.6590   -1.9190 h1        1 L11      0.044450
     50 H312        8.0620    0.2690   -2.1020 h1        1 L11      0.044450
     51 H301        9.5170    0.0330   -4.2310 h1        1 L11      0.062450
     52 H302        9.0730    1.7630   -3.7880 h1        1 L11      0.062450
     53 H281       10.9420    3.0870   -2.7620 h1        1 L11      0.062450
     54 H282       12.5150    2.1530   -2.5580 h1        1 L11      0.062450
     55 H271       11.6240    0.8000   -0.7680 h1        1 L11      0.044450
     56 H272       11.1380    2.5180   -0.3870 h1        1 L11      0.044450
     57 H102        4.4380    2.7470    1.9760 hn        1 L11      0.465800
@<TRIPOS>BOND
     1    1    2 1   
     2    2    3 ar  
     3    2    5 ar  
     4    3    4 ar  
     5    3   32 1   
     6    4   15 ar  
     7    4   33 1   
     8    5    6 1   
     9    5   14 ar  
    10    6    7 1   
    11    6   34 1   
    12    6   35 1   
    13    7    8 1   
    14    8    9 ar  
    15    8   13 ar  
    16    9   10 ar  
    17    9   36 1   
    18   10   11 ar  
    19   11   12 ar  
    20   11   37 1   
    21   12   13 ar  
    22   12   38 1   
    23   13   39 1   
    24   14   15 ar  
    25   14   40 1   
    26   15   16 1   
    27   16   17 1   
    28   16   41 1   
    29   16   57 1   
    30   17   18 2   
    31   17   19 1   
    32   19   20 2   
    33   19   23 1   
    34   20   21 1   
    35   20   42 1   
    36   21   22 1   
    37   21   25 1   
    38   21   43 1   
    39   23   24 1   
    40   23   44 1   
    41   23   45 1   
    42   24   25 1   
    43   24   26 1   
    44   24   46 1   
    45   25   47 1   
    46   25   48 1   
    47   26   27 1   
    48   26   31 1   
    49   27   28 1   
    50   27   49 1   
    51   27   50 1   
    52   28   29 1   
    53   28   51 1   
    54   28   52 1   
    55   29   30 1   
    56   30   31 1   
    57   30   53 1   
    58   30   54 1   
    59   31   55 1   
    60   31   56 1   
@<TRIPOS>SUBSTRUCTURE
     1 L11         1 TEMP              0 ****  ****    0 ROOT
