@<TRIPOS>MOLECULE
L12
   31    33     1     0     0
SMALL
bcc


@<TRIPOS>ATOM
      1 C4          0.0820   -0.0010   -0.0510 cc        1 L12     -0.142400
      2 C5         -0.7510   -0.0190   -1.2610 c3        1 L12     -0.000200
      3 C6         -1.3650   -1.3910   -1.5030 c3        1 L12     -0.043100
      4 C7         -2.1940   -1.4080   -2.7370 ca        1 L12     -0.038300
      5 C8         -1.5960   -1.3520   -4.0030 ca        1 L12     -0.246800
      6 C10        -2.4180   -1.3810   -5.1420 ca        1 L12      0.394200
      7 N12        -3.7630   -1.4620   -5.0890 nb        1 L12     -0.668000
      8 C13        -4.3260   -1.5160   -3.8670 ca        1 L12      0.394200
      9 C15        -3.5900   -1.4930   -2.6690 ca        1 L12     -0.246800
     10 C11         1.4750    0.0690   -0.0010 cd        1 L12     -0.102100
     11 C20        -1.6490   -0.0920    1.9160 ca        1 L12     -0.084000
     12 C21        -0.3880   -0.0300    1.3200 ca        1 L12     -0.088800
     13 C22         0.7900    0.0240    2.1580 ca        1 L12     -0.045200
     14 C24         0.6830    0.0140    3.5580 ca        1 L12     -0.145000
     15 C26        -0.5880   -0.0490    4.1070 ca        1 L12     -0.112000
     16 N11         1.9100    0.0800    1.3260 na        1 L12     -0.193400
     17 C28        -1.7390   -0.1010    3.2990 ca        1 L12     -0.157000
     18 H5C1       -0.1360    0.2720   -2.1550 hc        1 L12      0.049200
     19 H5C2       -1.5740    0.7400   -1.1570 hc        1 L12      0.049200
     20 H6C1       -0.5460   -2.1550   -1.5960 hc        1 L12      0.058200
     21 H6C2       -1.9870   -1.6770   -0.6120 hc        1 L12      0.058200
     22 H8         -0.5050   -1.2870   -4.1050 ha        1 L12      0.142000
     23 H10        -1.9810   -1.3380   -6.1550 h4        1 L12      0.020100
     24 H13        -5.4280   -1.5830   -3.8500 h4        1 L12      0.020100
     25 H15        -4.1060   -1.5420   -1.7010 ha        1 L12      0.142000
     26 H11         2.1930    0.1130   -0.8220 h4        1 L12      0.165000
     27 H20        -2.5510   -0.1310    1.2880 ha        1 L12      0.132000
     28 H24         1.5770    0.0540    4.1950 ha        1 L12      0.132000
     29 H26        -0.7040   -0.0590    5.2010 ha        1 L12      0.129000
     30 HA          2.8450    0.1430    1.6280 hn        1 L12      0.298700
     31 H28        -2.7260   -0.1480    3.7830 ha        1 L12      0.129000
@<TRIPOS>BOND
     1    1    2 1   
     2    1   10 2   
     3    1   12 1   
     4    2    3 1   
     5    2   18 1   
     6    2   19 1   
     7    3    4 1   
     8    3   20 1   
     9    3   21 1   
    10    4    5 ar  
    11    4    9 ar  
    12    5    6 ar  
    13    5   22 1   
    14    6    7 ar  
    15    6   23 1   
    16    7    8 ar  
    17    8    9 ar  
    18    8   24 1   
    19    9   25 1   
    20   10   16 1   
    21   10   26 1   
    22   11   12 ar  
    23   11   17 ar  
    24   11   27 1   
    25   12   13 ar  
    26   13   14 ar  
    27   13   16 1   
    28   14   15 ar  
    29   14   28 1   
    30   15   17 ar  
    31   15   29 1   
    32   16   30 1   
    33   17   31 1   
@<TRIPOS>SUBSTRUCTURE
     1 L12         1 TEMP              0 ****  ****    0 ROOT
