@<TRIPOS>MOLECULE
L12
   31    33     1     0     0
SMALL
bcc


@<TRIPOS>ATOM
      1 C4         -0.9450    0.3530   -1.0250 cc        1 L12     -0.142400
      2 C5         -0.6930    0.6260    0.3960 c3        1 L12     -0.000200
      3 C6         -0.1600   -0.6010    1.1220 c3        1 L12     -0.043100
      4 C7          0.0790   -0.3220    2.5630 ca        1 L12     -0.038300
      5 C8         -0.9950   -0.1530    3.4470 ca        1 L12     -0.246800
      6 C10        -0.7220    0.0990    4.8030 ca        1 L12      0.394200
      7 N12         0.5240    0.1870    5.3090 nb        1 L12     -0.668000
      8 C13         1.5480    0.0210    4.4490 ca        1 L12      0.394200
      9 C15         1.3790   -0.2340    3.0760 ca        1 L12     -0.246800
     10 C11        -2.1920    0.2320   -1.6410 cd        1 L12     -0.102100
     11 C20         1.4510    0.1910   -2.0780 ca        1 L12     -0.084000
     12 C21         0.0550    0.1770   -2.0600 ca        1 L12     -0.088800
     13 C22        -0.6670   -0.0500   -3.2930 ca        1 L12     -0.045200
     14 C24         0.0140   -0.2590   -4.5030 ca        1 L12     -0.145000
     15 C26         1.3990   -0.2380   -4.4740 ca        1 L12     -0.112000
     16 N11        -2.0340   -0.0150   -3.0060 na        1 L12     -0.193400
     17 C28         2.1090   -0.0160   -3.2800 ca        1 L12     -0.157000
     18 H5C1       -1.6400    0.9680    0.8950 hc        1 L12      0.049200
     19 H5C2        0.0540    1.4620    0.4860 hc        1 L12      0.049200
     20 H6C1       -0.8980   -1.4420    1.0250 hc        1 L12      0.058200
     21 H6C2        0.7920   -0.9340    0.6270 hc        1 L12      0.058200
     22 H8         -2.0310   -0.2160    3.0900 ha        1 L12      0.142000
     23 H10        -1.5440    0.2370    5.5270 h4        1 L12      0.020100
     24 H13         2.5590    0.0970    4.8870 h4        1 L12      0.020100
     25 H15         2.2530   -0.3610    2.4250 ha        1 L12      0.142000
     26 H11        -3.1880    0.3060   -1.2010 h4        1 L12      0.165000
     27 H20         2.0090    0.3650   -1.1470 ha        1 L12      0.132000
     28 H24        -0.5340   -0.4330   -5.4380 ha        1 L12      0.132000
     29 H26         1.9610   -0.3990   -5.4070 ha        1 L12      0.129000
     30 HA         -2.7590   -0.1210   -3.6630 hn        1 L12      0.298700
     31 H28         3.2090   -0.0080   -3.3090 ha        1 L12      0.129000
@<TRIPOS>BOND
     1    1    2 1   
     2    1   10 2   
     3    1   12 1   
     4    2    3 1   
     5    2   18 1   
     6    2   19 1   
     7    3    4 1   
     8    3   20 1   
     9    3   21 1   
    10    4    5 ar  
    11    4    9 ar  
    12    5    6 ar  
    13    5   22 1   
    14    6    7 ar  
    15    6   23 1   
    16    7    8 ar  
    17    8    9 ar  
    18    8   24 1   
    19    9   25 1   
    20   10   16 1   
    21   10   26 1   
    22   11   12 ar  
    23   11   17 ar  
    24   11   27 1   
    25   12   13 ar  
    26   13   14 ar  
    27   13   16 1   
    28   14   15 ar  
    29   14   28 1   
    30   15   17 ar  
    31   15   29 1   
    32   16   30 1   
    33   17   31 1   
@<TRIPOS>SUBSTRUCTURE
     1 L12         1 TEMP              0 ****  ****    0 ROOT
