@<TRIPOS>MOLECULE
L12
   31    33     1     0     0
SMALL
bcc


@<TRIPOS>ATOM
      1 C4          0.0210    0.1550   -0.0340 cc        1 L12     -0.142400
      2 C5         -0.8090    0.1010   -1.2440 c3        1 L12     -0.000200
      3 C6         -1.2220   -1.3250   -1.5840 c3        1 L12     -0.043100
      4 C7         -2.1100   -1.3680   -2.7760 ca        1 L12     -0.038300
      5 C8         -1.6720   -1.9300   -3.9820 ca        1 L12     -0.246800
      6 C10        -2.5560   -1.9560   -5.0750 ca        1 L12      0.394200
      7 N12        -3.8110   -1.4700   -5.0330 nb        1 L12     -0.668000
      8 C13        -4.2210   -0.9330   -3.8660 ca        1 L12      0.394200
      9 C15        -3.4150   -0.8600   -2.7180 ca        1 L12     -0.246800
     10 C11         1.3810    0.4640    0.0260 cd        1 L12     -0.101100
     11 C20        -1.6400   -0.4180    1.9120 ca        1 L12     -0.085000
     12 C21        -0.4180   -0.0800    1.3270 ca        1 L12     -0.088800
     13 C22         0.7430    0.1050    2.1700 ca        1 L12     -0.045200
     14 C24         0.6590   -0.0500    3.5630 ca        1 L12     -0.145000
     15 C26        -0.5730   -0.3860    4.1010 ca        1 L12     -0.112000
     16 N11         1.8250    0.4330    1.3500 na        1 L12     -0.193400
     17 C28        -1.7080   -0.5670    3.2890 ca        1 L12     -0.157000
     18 H5C1       -0.2490    0.5420   -2.1120 hc        1 L12      0.049200
     19 H5C2       -1.7340    0.7230   -1.0900 hc        1 L12      0.049200
     20 H6C1       -0.3040   -1.9460   -1.7620 hc        1 L12      0.058200
     21 H6C2       -1.7600   -1.7700   -0.7030 hc        1 L12      0.058200
     22 H8         -0.6600   -2.3440   -4.0770 ha        1 L12      0.142500
     23 H10        -2.2440   -2.3920   -6.0410 h4        1 L12      0.020100
     24 H13        -5.2540   -0.5420   -3.8560 h4        1 L12      0.020100
     25 H15        -3.8020   -0.4130   -1.7930 ha        1 L12      0.142500
     26 H11         2.0690    0.7080   -0.7860 h4        1 L12      0.165000
     27 H20        -2.5300   -0.5610    1.2820 ha        1 L12      0.132000
     28 H24         1.5400    0.0900    4.2030 ha        1 L12      0.132000
     29 H26        -0.6710   -0.5140    5.1890 ha        1 L12      0.130000
     30 HA          2.7370    0.6310    1.6590 hn        1 L12      0.298700
     31 H28        -2.6640   -0.8330    3.7630 ha        1 L12      0.130000
@<TRIPOS>BOND
     1    1    2 1   
     2    1   10 2   
     3    1   12 1   
     4    2    3 1   
     5    2   18 1   
     6    2   19 1   
     7    3    4 1   
     8    3   20 1   
     9    3   21 1   
    10    4    5 ar  
    11    4    9 ar  
    12    5    6 ar  
    13    5   22 1   
    14    6    7 ar  
    15    6   23 1   
    16    7    8 ar  
    17    8    9 ar  
    18    8   24 1   
    19    9   25 1   
    20   10   16 1   
    21   10   26 1   
    22   11   12 ar  
    23   11   17 ar  
    24   11   27 1   
    25   12   13 ar  
    26   13   14 ar  
    27   13   16 1   
    28   14   15 ar  
    29   14   28 1   
    30   15   17 ar  
    31   15   29 1   
    32   16   30 1   
    33   17   31 1   
@<TRIPOS>SUBSTRUCTURE
     1 L12         1 TEMP              0 ****  ****    0 ROOT
