@<TRIPOS>MOLECULE
L13
   24    21     1     0     0
SMALL
bcc


@<TRIPOS>ATOM
      1 N14        -1.0440    1.4990    1.7790 nh        1 L13     -0.587800
      2 N5         -0.1830    0.4310    1.9260 n         1 L13     -0.233800
      3 C1          0.4280    0.0600    3.0630 c         1 L13      0.519800
      4 S6          0.2640    0.8020    4.5550 s         1 L13     -0.506400
      5 N2          1.1890   -1.0100    2.7940 nc        1 L13     -0.366400
      6 N3          1.0490   -1.3020    1.4900 nd        1 L13     -0.281300
      7 C4          0.2020   -0.4120    0.9550 cd        1 L13      0.318500
      8 C7         -0.2460   -0.4010   -0.3570 ch        1 L13     -0.067200
      9 C12        -1.4920   -0.9220   -0.6690 c1        1 L13     -0.059000
     10 C11        -1.9190   -0.9560   -1.9870 c1        1 L13     -0.059000
     11 C10        -1.1000   -0.4690   -2.9930 c1        1 L13     -0.059000
     12 C9          0.1460    0.0520   -2.6820 c1        1 L13     -0.059000
     13 C8          0.5730    0.0860   -1.3640 c1        1 L13      0.005900
     14 C13         1.9340    0.6530   -1.0250 c3        1 L13     -0.097000
     15 H141       -1.1750    2.0790    2.4730 hn        1 L13      0.371300
     16 H142       -1.4760    1.6320    0.9850 hn        1 L13      0.371300
     17 HN2         1.7100   -1.4600    3.3910 DU        1 L13      0.303000
     18 H12        -2.0690   -1.2650    0.0400 ha        1 L13      0.081500
     19 H11        -2.7970   -1.3230   -2.2060 ha        1 L13      0.081500
     20 H10        -1.4010   -0.4930   -3.9220 ha        1 L13      0.081500
     21 H9          0.7230    0.3950   -3.3920 ha        1 L13      0.081500
     22 H131        1.8350    1.3600   -0.3540 hc        1 L13      0.053033
     23 H132        2.5050   -0.0590   -0.6670 hc        1 L13      0.053033
     24 H133        2.3440    1.0250   -1.8340 hc        1 L13      0.053033
@<TRIPOS>BOND
     1    1    2 1   
     2    1   15 1   
     3    1   16 1   
     4    2    3 1   
     5    2    7 2   
     6    3    4 2   
     7    3    5 1   
     8    5    6 2   
     9    6    7 1   
    10    7    8 1   
    11    8   13 3   
    12    9   10 3   
    13    9   18 1   
    14   10   19 1   
    15   11   12 3   
    16   11   20 1   
    17   12   21 1   
    18   13   14 1   
    19   14   22 1   
    20   14   23 1   
    21   14   24 1   
@<TRIPOS>SUBSTRUCTURE
     1 L13         1 TEMP              0 ****  ****    0 ROOT
