@<TRIPOS>MOLECULE
L13
   24    25     1     0     0
SMALL
bcc


@<TRIPOS>ATOM
      1 N14        -0.0540    0.2710   -0.1220 nv        1 L13     -0.587800
      2 N5          1.2850    0.0920   -0.0370 n         1 L13     -0.240700
      3 C1          2.0760    0.0200    1.1530 c         1 L13      0.447400
      4 S6          1.5700    0.1430    2.6440 s         1 L13     -0.506400
      5 N2          3.3720   -0.1730    0.6540 ns        1 L13     -0.247900
      6 N3          3.4320   -0.2440   -0.6900 nc        1 L13     -0.482300
      7 C4          2.1750   -0.0760   -1.1510 cd        1 L13      0.447500
      8 C7          1.7400   -0.0780   -2.5480 ca        1 L13     -0.120900
      9 C12         0.7180   -0.9540   -2.9370 ca        1 L13     -0.077000
     10 C11         0.2950   -0.9880   -4.2630 ca        1 L13     -0.144000
     11 C10         0.8890   -0.1470   -5.2050 ca        1 L13     -0.103000
     12 C9          1.9030    0.7260   -4.8190 ca        1 L13     -0.142000
     13 C8          2.3430    0.7740   -3.4900 ca        1 L13     -0.028300
     14 C13         3.4260    1.7120   -3.1140 c3        1 L13     -0.062800
     15 H141       -0.5070   -0.3780    0.5180 hn        1 L13      0.371300
     16 H142       -0.2780    1.2110    0.1980 hn        1 L13      0.371300
     17 HN2         4.1850   -0.3390    1.2050 hn        1 L13      0.389500
     18 H12         0.2470   -1.6150   -2.1940 ha        1 L13      0.144000
     19 H11        -0.5070   -1.6770   -4.5650 ha        1 L13      0.138000
     20 H10         0.5560   -0.1730   -6.2530 ha        1 L13      0.136000
     21 H9          2.3660    1.3890   -5.5650 ha        1 L13      0.138000
     22 H131        3.5700    2.4940   -3.9000 hc        1 L13      0.053033
     23 H132        3.1930    2.2250   -2.1480 hc        1 L13      0.053033
     24 H133        4.3900    1.1550   -2.9930 hc        1 L13      0.053033
@<TRIPOS>BOND
     1    1    2 1   
     2    1   15 1   
     3    1   16 1   
     4    2    3 1   
     5    2    7 1   
     6    3    4 2   
     7    3    5 1   
     8    5    6 1   
     9    5   17 1   
    10    6    7 2   
    11    7    8 1   
    12    8    9 ar  
    13    8   13 ar  
    14    9   10 ar  
    15    9   18 1   
    16   10   11 ar  
    17   10   19 1   
    18   11   12 ar  
    19   11   20 1   
    20   12   13 ar  
    21   12   21 1   
    22   13   14 1   
    23   14   22 1   
    24   14   23 1   
    25   14   24 1   
@<TRIPOS>SUBSTRUCTURE
     1 L13         1 TEMP              0 ****  ****    0 ROOT
