@<TRIPOS>MOLECULE
L13
   25    26     1     0     0
SMALL
bcc


@<TRIPOS>ATOM
      1 N14         0.0890    0.4510   -0.0210 n4        1 L13     -0.613600
      2 N5          1.2620   -0.2970   -0.0070 n         1 L13     -0.252700
      3 C1          2.1200   -0.1910    1.2150 c         1 L13      0.355400
      4 S6          1.5400   -0.1640    2.6460 s         1 L13     -0.198400
      5 N2          3.4190   -0.1860    0.6910 n         1 L13     -0.246900
      6 N3          3.4720   -0.1910   -0.6550 nc        1 L13     -0.357300
      7 C4          2.2240   -0.1690   -1.1280 cd        1 L13      0.364500
      8 C7          1.7500   -0.1300   -2.5060 ca        1 L13     -0.194900
      9 C12         0.7670   -1.0550   -2.9020 ca        1 L13     -0.119000
     10 C11         0.3070   -1.0640   -4.2130 ca        1 L13     -0.127000
     11 C10         0.8260   -0.1530   -5.1390 ca        1 L13     -0.073000
     12 C9          1.8030    0.7570   -4.7510 ca        1 L13     -0.127000
     13 C8          2.2860    0.7810   -3.4330 ca        1 L13     -0.012300
     14 C13         3.3480    1.7470   -3.0680 c3        1 L13     -0.072800
     15 H141       -0.5820   -0.0780   -0.6080 hn        1 L13      0.480133
     16 H142        0.2070    1.4010   -0.4080 hn        1 L13      0.480133
     17 HN2         4.2650   -0.2360    1.2270 hn        1 L13      0.421500
     18 H12         0.3930   -1.8060   -2.1890 ha        1 L13      0.141000
     19 H11        -0.4520   -1.7980   -4.5270 ha        1 L13      0.160000
     20 H10         0.4660   -0.1660   -6.1810 ha        1 L13      0.163000
     21 H9          2.2170    1.4650   -5.4880 ha        1 L13      0.162000
     22 H131        3.1460    2.2200   -2.0760 hc        1 L13      0.062700
     23 H132        3.4300    2.5610   -3.8320 hc        1 L13      0.062700
     24 H133        4.3370    1.2230   -3.0150 hc        1 L13      0.062700
     25 H143       -0.2580    0.5040    0.9700 hn        1 L13      0.480133
@<TRIPOS>BOND
     1    1    2 1   
     2    1   15 1   
     3    1   16 1   
     4    1   25 1   
     5    2    3 1   
     6    2    7 1   
     7    3    4 2   
     8    3    5 1   
     9    5    6 1   
    10    5   17 1   
    11    6    7 2   
    12    7    8 1   
    13    8    9 ar  
    14    8   13 ar  
    15    9   10 ar  
    16    9   18 1   
    17   10   11 ar  
    18   10   19 1   
    19   11   12 ar  
    20   11   20 1   
    21   12   13 ar  
    22   12   21 1   
    23   13   14 1   
    24   14   22 1   
    25   14   23 1   
    26   14   24 1   
@<TRIPOS>SUBSTRUCTURE
     1 L13         1 TEMP              0 ****  ****    0 ROOT
