@<TRIPOS>MOLECULE
L13
   24    25     1     0     0
SMALL
bcc


@<TRIPOS>ATOM
      1 N14        -0.9940   -1.6430   -1.0150 nh        1 L13     -0.587800
      2 N5         -1.1790   -0.4940   -0.3260 n         1 L13     -0.240700
      3 C1         -2.4220    0.1530   -0.0360 c         1 L13      0.447400
      4 S6         -3.8670   -0.3220   -0.4630 s         1 L13     -0.506400
      5 N2         -2.0230    1.2820    0.6940 n         1 L13     -0.247900
      6 N3         -0.6920    1.3640    0.8840 nc        1 L13     -0.482300
      7 C4         -0.1390    0.3000    0.2660 cd        1 L13      0.447500
      8 C7          1.2820   -0.0420    0.2010 ca        1 L13     -0.120900
      9 C12         1.6920   -1.3130    0.6260 ca        1 L13     -0.077000
     10 C11         3.0410   -1.6600    0.5900 ca        1 L13     -0.144000
     11 C10         3.9830   -0.7410    0.1280 ca        1 L13     -0.103000
     12 C9          3.5770    0.5220   -0.2970 ca        1 L13     -0.142000
     13 C8          2.2250    0.8900   -0.2670 ca        1 L13     -0.028300
     14 C13         1.8270    2.2420   -0.7230 c3        1 L13     -0.062800
     15 H141       -1.6360   -2.3450   -0.6500 hn        1 L13      0.371300
     16 H142       -1.2480   -1.4850   -1.9880 hn        1 L13      0.371300
     17 HN2        -2.6360    1.9380    1.1260 hn        1 L13      0.389500
     18 H12         0.9490   -2.0390    0.9870 ha        1 L13      0.144000
     19 H11         3.3590   -2.6580    0.9250 ha        1 L13      0.138000
     20 H10         5.0490   -1.0130    0.0990 ha        1 L13      0.136000
     21 H9          4.3240    1.2430   -0.6620 ha        1 L13      0.138000
     22 H131        0.9080    2.1940   -1.3580 hc        1 L13      0.053033
     23 H132        1.6110    2.8960    0.1600 hc        1 L13      0.053033
     24 H133        2.6420    2.7190   -1.3210 hc        1 L13      0.053033
@<TRIPOS>BOND
     1    1    2 1   
     2    1   15 1   
     3    1   16 1   
     4    2    3 1   
     5    2    7 1   
     6    3    4 2   
     7    3    5 1   
     8    5    6 1   
     9    5   17 1   
    10    6    7 2   
    11    7    8 1   
    12    8    9 ar  
    13    8   13 ar  
    14    9   10 ar  
    15    9   18 1   
    16   10   11 ar  
    17   10   19 1   
    18   11   12 ar  
    19   11   20 1   
    20   12   13 ar  
    21   12   21 1   
    22   13   14 1   
    23   14   22 1   
    24   14   23 1   
    25   14   24 1   
@<TRIPOS>SUBSTRUCTURE
     1 L13         1 TEMP              0 ****  ****    0 ROOT
