@<TRIPOS>MOLECULE
L14
   22    22     1     0     0
SMALL
bcc


@<TRIPOS>ATOM
      1 OAA        -3.7740    0.0150    0.9690 o         1 L14     -0.872300
      2 OAC        -3.2750    0.0250   -1.1940 o         1 L14     -0.872300
      3 OAD         3.2750    0.0160    1.1950 o         1 L14     -0.872300
      4 CAE        -0.7450    1.2660   -0.1380 c3        1 L14     -0.058400
      5 CAF         0.7440    1.2650    0.1500 c3        1 L14     -0.058400
      6 CAG        -0.7440   -1.2230   -0.1500 c3        1 L14     -0.058400
      7 CAH         0.7450   -1.2240    0.1390 c3        1 L14     -0.058400
      8 CAI        -2.9270    0.0200    0.0240 c         1 L14      0.906600
      9 CAJ         2.9270    0.0220   -0.0240 c         1 L14      0.906600
     10 CAK        -1.4300    0.0180    0.3940 c3        1 L14     -0.163700
     11 CAL         1.4300    0.0230   -0.3940 c3        1 L14     -0.163700
     12 HAE        -1.2160    2.1710    0.3250 hc        1 L14      0.021700
     13 HAEA       -0.9210    1.3240   -1.2450 hc        1 L14      0.021700
     14 HAF         1.2140    2.1750   -0.3050 hc        1 L14      0.021700
     15 HAFA        0.9200    1.3130    1.2570 hc        1 L14      0.021700
     16 HAG        -0.9200   -1.2710   -1.2570 hc        1 L14      0.021700
     17 HAGA       -1.2140   -2.1330    0.3050 hc        1 L14      0.021700
     18 HAH         0.9210   -1.2830    1.2450 hc        1 L14      0.021700
     19 HAHA        1.2160   -2.1300   -0.3250 hc        1 L14      0.021700
     20 HAK        -1.3500    0.0130    1.5150 hc        1 L14      0.030700
     21 HAL         1.3500    0.0290   -1.5150 hc        1 L14      0.030700
     22 OAB         3.7740    0.0270   -0.9690 o         1 L14     -0.872300
@<TRIPOS>BOND
     1    1    8 1   
     2    2    8 1   
     3    3    9 1   
     4    4    5 1   
     5    4   10 1   
     6    4   12 1   
     7    4   13 1   
     8    5   11 1   
     9    5   14 1   
    10    5   15 1   
    11    6    7 1   
    12    6   10 1   
    13    6   16 1   
    14    6   17 1   
    15    7   11 1   
    16    7   18 1   
    17    7   19 1   
    18    8   10 1   
    19    9   11 1   
    20    9   22 1   
    21   10   20 1   
    22   11   21 1   
@<TRIPOS>SUBSTRUCTURE
     1 L14         1 TEMP              0 ****  ****    0 ROOT
