@<TRIPOS>MOLECULE
L14
   22    20     1     0     0
SMALL
bcc


@<TRIPOS>ATOM
      1 OAA      -120.0100   57.6590 -172.8170 o         1 L14     -0.848800
      2 OAC      -120.5470   55.7780 -173.8930 o         1 L14     -0.848800
      3 OAD       336.9690 -156.4010  476.3100 o         1 L14     -0.822300
      4 CAE      -122.4420   57.6170 -175.2380 c3        1 L14     -0.062400
      5 CAF      -123.0880   58.5850 -176.1960 c3        1 L14     -0.086100
      6 CAG      -120.1410   57.5460 -176.2400 c3        1 L14     -0.064100
      7 CAH       333.6370 -155.5120  476.4540 c1        1 L14     -0.304500
      8 CAI      -120.4690   57.0380 -173.8180 c         1 L14      0.913600
      9 CAJ       335.9310 -156.6030  475.6170 c         1 L14      0.907800
     10 CAK      -120.9640   57.8840 -175.0210 c3        1 L14     -0.189700
     11 CAL       334.6650 -156.0010  476.0790 cg        1 L14     -0.081200
     12 HAE      -122.6440   58.4930 -177.2160 hc        1 L14      0.011367
     13 HAEA     -122.9610   57.6810 -174.2440 hc        1 L14      0.040200
     14 HAF      -122.5680   56.5660 -175.6080 hc        1 L14      0.040200
     15 HAFA     -124.1850   58.3860 -176.2740 hc        1 L14      0.011367
     16 HAG      -120.4930   58.1070 -177.1400 hc        1 L14      0.013700
     17 HAGA     -120.2070   56.4500 -176.4500 hc        1 L14      0.013700
     18 HAH      -119.0700   57.8050 -176.0600 hc        1 L14      0.013700
     19 HAHA      332.7320 -155.0810  476.7840 ha        1 L14      0.121500
     20 HAK      -120.8210   58.9680 -174.7650 hc        1 L14      0.031700
     21 HAL      -122.9470   59.6370 -175.8480 hc        1 L14      0.011367
     22 OAB       335.9070 -157.2860  474.5540 o         1 L14     -0.822300
@<TRIPOS>BOND
     1    1    8 1   
     2    2    8 1   
     3    3    9 1   
     4    4    5 1   
     5    4   10 1   
     6    4   13 1   
     7    4   14 1   
     8    5   12 1   
     9    5   15 1   
    10    5   21 1   
    11    6   10 1   
    12    6   16 1   
    13    6   17 1   
    14    6   18 1   
    15    7   11 3   
    16    7   19 1   
    17    8   10 1   
    18    9   11 1   
    19    9   22 1   
    20   10   20 1   
@<TRIPOS>SUBSTRUCTURE
     1 L14         1 TEMP              0 ****  ****    0 ROOT
