@<TRIPOS>MOLECULE
L14
   22    22     1     0     0
SMALL
bcc


@<TRIPOS>ATOM
      1 OAA         0.5420    1.0290   -0.3220 o         1 L14     -0.872300
      2 OAC         1.2820   -1.0160   -0.7690 o         1 L14     -0.872300
      3 OAD         4.6870   -0.1740    5.2550 o         1 L14     -0.872300
      4 CAE         3.5390   -0.0950    0.9930 c3        1 L14     -0.058400
      5 CAF         4.3640   -0.1330    2.2640 c3        1 L14     -0.058400
      6 CAG         1.6020   -1.0590    2.2230 c3        1 L14     -0.058400
      7 CAH         2.4280   -1.0960    3.4940 c3        1 L14     -0.058400
      8 CAI         1.2390    0.0100   -0.0270 c         1 L14      0.906600
      9 CAJ         4.7270   -1.2020    4.5150 c         1 L14      0.906600
     10 CAK         2.0540    0.0440    1.2810 c3        1 L14     -0.163700
     11 CAL         3.9130   -1.2360    3.2060 c3        1 L14     -0.163700
     12 HAE         5.4440   -0.2880    2.0060 hc        1 L14      0.021700
     13 HAEA        3.7010   -1.0350    0.4030 hc        1 L14      0.021700
     14 HAF         3.8720    0.7640    0.3550 hc        1 L14      0.021700
     15 HAFA        4.2860    0.8490    2.8020 hc        1 L14      0.021700
     16 HAG         4.0930   -2.2290    2.7120 hc        1 L14      0.030700
     17 HAGA        0.5220   -0.9040    2.4820 hc        1 L14      0.021700
     18 HAH         1.6810   -2.0410    1.6860 hc        1 L14      0.021700
     19 HAHA        2.0940   -1.9560    4.1330 hc        1 L14      0.021700
     20 HAK         1.8730    1.0380    1.7760 hc        1 L14      0.030700
     21 HAL         2.2660   -0.1560    4.0850 hc        1 L14      0.021700
     22 OAB         5.4210   -2.2230    4.8120 o         1 L14     -0.872300
@<TRIPOS>BOND
     1    1    8 1   
     2    2    8 1   
     3    3    9 1   
     4    4    5 1   
     5    4   10 1   
     6    4   13 1   
     7    4   14 1   
     8    5   11 1   
     9    5   12 1   
    10    5   15 1   
    11    6    7 1   
    12    6   10 1   
    13    6   17 1   
    14    6   18 1   
    15    7   11 1   
    16    7   19 1   
    17    7   21 1   
    18    8   10 1   
    19    9   11 1   
    20    9   22 1   
    21   10   20 1   
    22   11   16 1   
@<TRIPOS>SUBSTRUCTURE
     1 L14         1 TEMP              0 ****  ****    0 ROOT
