@<TRIPOS>MOLECULE
L15
   30    31     1     0     0
SMALL
bcc


@<TRIPOS>ATOM
      1 C1          1.4830   -3.4580   -2.1990 c3        1 L15     -0.125400
      2 C2          1.6130   -2.0220   -2.5100 cc        1 L15      0.326600
      3 N3          1.6090   -1.5040   -3.7740 nd        1 L15     -0.519800
      4 N4          1.7360   -0.1830   -3.6540 na        1 L15     -0.016600
      5 C5          1.8250    0.2290   -2.3260 cd        1 L15     -0.135300
      6 C6          1.7520   -0.9400   -1.5420 cc        1 L15     -0.208300
      7 C7          1.7970   -1.0130   -0.1060 ca        1 L15      0.006000
      8 C8          1.2280    0.0110    0.6690 ca        1 L15     -0.124500
      9 C9          1.2720   -0.0440    2.0590 ca        1 L15     -0.125000
     10 C10         1.8860   -1.1210    2.7080 ca        1 L15     -0.083300
     11 C11         1.9450   -1.1790    4.1930 c3        1 L15     -0.039100
     12 C12         0.9600   -2.2230    4.7290 c3        1 L15      0.160800
     13 N13         1.0330   -2.3870    6.1620 n3        1 L15     -0.917800
     14 C14         2.4590   -2.1400    1.9380 ca        1 L15     -0.125000
     15 C15         2.4170   -2.0880    0.5490 ca        1 L15     -0.124500
     16 H1C1        0.9750   -3.5830   -1.2100 hc        1 L15      0.052033
     17 H1C2        0.8880   -3.9950   -2.9790 hc        1 L15      0.052033
     18 H1C3        2.4970   -3.9280   -2.1440 hc        1 L15      0.052033
     19 H4          1.7650    0.3910   -4.4630 hn        1 L15      0.321700
     20 H5          1.9360    1.2730   -2.0390 h4        1 L15      0.178000
     21 H8          0.7390    0.8610    0.1690 ha        1 L15      0.133000
     22 H15         2.8810   -2.8910   -0.0450 ha        1 L15      0.133000
     23 H9          0.8200    0.7660    2.6500 ha        1 L15      0.132500
     24 H111        1.7060   -0.1730    4.6290 hc        1 L15      0.054200
     25 H112        2.9880   -1.4440    4.5160 hc        1 L15      0.054200
     26 H14         2.9510   -2.9880    2.4400 ha        1 L15      0.132500
     27 H121       -0.0760   -1.9370    4.3770 h1        1 L15      0.029200
     28 H122        1.2040   -3.2200    4.2620 h1        1 L15      0.029200
     29 H131        0.3160   -3.0100    6.4760 hn        1 L15      0.348300
     30 H132        0.9340   -1.5090    6.6310 hn        1 L15      0.348300
@<TRIPOS>BOND
     1    1    2 1   
     2    1   16 1   
     3    1   17 1   
     4    1   18 1   
     5    2    3 2   
     6    2    6 1   
     7    3    4 1   
     8    4    5 1   
     9    4   19 1   
    10    5    6 2   
    11    5   20 1   
    12    6    7 1   
    13    7    8 ar  
    14    7   15 ar  
    15    8    9 ar  
    16    8   21 1   
    17    9   10 ar  
    18    9   23 1   
    19   10   11 1   
    20   10   14 ar  
    21   11   12 1   
    22   11   24 1   
    23   11   25 1   
    24   12   13 1   
    25   12   27 1   
    26   12   28 1   
    27   13   29 1   
    28   13   30 1   
    29   14   15 ar  
    30   14   26 1   
    31   15   22 1   
@<TRIPOS>SUBSTRUCTURE
     1 L15         1 TEMP              0 ****  ****    0 ROOT
