@<TRIPOS>MOLECULE
L15
   31    32     1     0     0
SMALL
bcc


@<TRIPOS>ATOM
      1 C1          0.1890   -0.8950   -0.0350 c3        1 L15     -0.129400
      2 C2          1.4940   -0.2120    0.0210 cc        1 L15      0.340600
      3 N3          2.1280    0.1330    1.1810 nd        1 L15     -0.501800
      4 N4          3.2660    0.7380    0.8410 na        1 L15      0.000400
      5 C5          3.4360    0.8290   -0.5330 cd        1 L15     -0.111300
      6 C6          2.3030    0.2160   -1.1150 cc        1 L15     -0.254300
      7 C7          2.0400    0.0730   -2.5190 ca        1 L15      0.067000
      8 C8          1.3260   -1.0290   -3.0190 ca        1 L15     -0.127000
      9 C9          1.0800   -1.1550   -4.3820 ca        1 L15     -0.106500
     10 C10         1.5440   -0.1840   -5.2770 ca        1 L15     -0.155300
     11 C11         1.2930   -0.3300   -6.7360 c3        1 L15     -0.041100
     12 C12        -0.0690    0.2860   -7.0570 c3        1 L15      0.095800
     13 N13        -0.4230    0.1800   -8.5050 n4        1 L15     -0.840600
     14 C14         2.2670    0.9110   -4.7900 ca        1 L15     -0.106500
     15 C15         2.5120    1.0380   -3.4280 ca        1 L15     -0.127000
     16 H1C1       -0.3790   -0.5530   -0.9350 hc        1 L15      0.055367
     17 H1C2        0.3410   -2.0020   -0.1010 hc        1 L15      0.055367
     18 H1C3       -0.4250   -0.6820    0.8760 hc        1 L15      0.055367
     19 H4          3.8890    1.0580    1.5480 hn        1 L15      0.334700
     20 H5          4.3130    1.2870   -0.9900 h4        1 L15      0.183000
     21 H8          0.9720   -1.8080   -2.3240 ha        1 L15      0.151500
     22 H15         3.0800    1.9040   -3.0520 ha        1 L15      0.151500
     23 H9          0.5310   -2.0330   -4.7550 ha        1 L15      0.129000
     24 H111        2.1020    0.1870   -7.3190 hc        1 L15      0.069200
     25 H112        1.3040   -1.4170   -7.0190 hc        1 L15      0.069200
     26 H14         2.6530    1.6720   -5.4850 ha        1 L15      0.129000
     27 H121       -0.8740   -0.2370   -6.4650 hx        1 L15      0.116700
     28 H122       -0.0690    1.3810   -6.7820 hx        1 L15      0.116700
     29 H131        0.2800    0.6620   -9.0750 hn        1 L15      0.459133
     30 H132       -0.4500   -0.8050   -8.7890 hn        1 L15      0.459133
     31 H133       -1.3400    0.6030   -8.6760 hn        1 L15      0.459133
@<TRIPOS>BOND
     1    1    2 1   
     2    1   16 1   
     3    1   17 1   
     4    1   18 1   
     5    2    3 2   
     6    2    6 1   
     7    3    4 1   
     8    4    5 1   
     9    4   19 1   
    10    5    6 2   
    11    5   20 1   
    12    6    7 1   
    13    7    8 ar  
    14    7   15 ar  
    15    8    9 ar  
    16    8   21 1   
    17    9   10 ar  
    18    9   23 1   
    19   10   11 1   
    20   10   14 ar  
    21   11   12 1   
    22   11   24 1   
    23   11   25 1   
    24   12   13 1   
    25   12   27 1   
    26   12   28 1   
    27   13   29 1   
    28   13   30 1   
    29   13   31 1   
    30   14   15 ar  
    31   14   26 1   
    32   15   22 1   
@<TRIPOS>SUBSTRUCTURE
     1 L15         1 TEMP              0 ****  ****    0 ROOT
