@<TRIPOS>MOLECULE
L15
   31    32     1     0     0
SMALL
bcc


@<TRIPOS>ATOM
      1 C1          0.2220   -0.9930   -0.0510 c3        1 L15     -0.129400
      2 C2          1.5080   -0.2760    0.0150 cc        1 L15      0.340600
      3 N3          2.1340    0.0640    1.1810 nd        1 L15     -0.501800
      4 N4          3.2550    0.7070    0.8520 na        1 L15      0.000400
      5 C5          3.4200    0.8290   -0.5210 cd        1 L15     -0.111300
      6 C6          2.3030    0.1970   -1.1130 cc        1 L15     -0.254300
      7 C7          2.0410    0.0730   -2.5190 ca        1 L15      0.067000
      8 C8          1.3560   -1.0390   -3.0390 ca        1 L15     -0.127000
      9 C9          1.1120   -1.1450   -4.4040 ca        1 L15     -0.106500
     10 C10         1.5460   -0.1450   -5.2810 ca        1 L15     -0.155300
     11 C11         1.2970   -0.2710   -6.7420 c3        1 L15     -0.041100
     12 C12        -0.0860    0.3060   -7.0480 c3        1 L15      0.095800
     13 N13        -0.4400    0.2170   -8.4970 nz        1 L15     -0.840600
     14 C14         2.2390    0.9600   -4.7740 ca        1 L15     -0.106500
     15 C15         2.4840    1.0680   -3.4100 ca        1 L15     -0.127000
     16 H1C1       -0.3570   -0.6500   -0.9450 hc        1 L15      0.055367
     17 H1C2        0.4050   -2.0950   -0.1390 hc        1 L15      0.055367
     18 H1C3       -0.3960   -0.8150    0.8650 hc        1 L15      0.055367
     19 H4          3.8700    1.0320    1.5630 hn        1 L15      0.334700
     20 H5          4.2820    1.3200   -0.9710 h4        1 L15      0.183000
     21 H8          1.0260   -1.8400   -2.3590 ha        1 L15      0.151500
     22 H15         3.0280    1.9420   -3.0190 ha        1 L15      0.151500
     23 H9          0.5870   -2.0310   -4.7930 ha        1 L15      0.129000
     24 H111        2.0860    0.2850   -7.3160 hc        1 L15      0.069200
     25 H112        1.3430   -1.3510   -7.0460 hc        1 L15      0.069200
     26 H14         2.6030    1.7440   -5.4550 ha        1 L15      0.129000
     27 H121       -0.8720   -0.2560   -6.4650 hx        1 L15      0.116700
     28 H122       -0.1210    1.3950   -6.7510 hx        1 L15      0.116700
     29 H131        0.2450    0.7340   -9.0590 hn        1 L15      0.459133
     30 H132       -0.4350   -0.7630   -8.8000 hn        1 L15      0.459133
     31 H133       -1.3710    0.6120   -8.6580 hn        1 L15      0.459133
@<TRIPOS>BOND
     1    1    2 1   
     2    1   16 1   
     3    1   17 1   
     4    1   18 1   
     5    2    3 2   
     6    2    6 1   
     7    3    4 1   
     8    4    5 1   
     9    4   19 1   
    10    5    6 2   
    11    5   20 1   
    12    6    7 1   
    13    7    8 ar  
    14    7   15 ar  
    15    8    9 ar  
    16    8   21 1   
    17    9   10 ar  
    18    9   23 1   
    19   10   11 1   
    20   10   14 ar  
    21   11   12 1   
    22   11   24 1   
    23   11   25 1   
    24   12   13 1   
    25   12   27 1   
    26   12   28 1   
    27   13   29 1   
    28   13   30 1   
    29   13   31 1   
    30   14   15 ar  
    31   14   26 1   
    32   15   22 1   
@<TRIPOS>SUBSTRUCTURE
     1 L15         1 TEMP              0 ****  ****    0 ROOT
