@<TRIPOS>MOLECULE
L15
   31    32     1     0     0
SMALL
bcc


@<TRIPOS>ATOM
      1 C1          0.2000    0.9420   -0.0480 c3        1 L15     -0.129400
      2 C2          1.4970    0.2440    0.0170 cc        1 L15      0.340600
      3 N3          2.1260   -0.0920    1.1820 nd        1 L15     -0.501800
      4 N4          3.2570   -0.7150    0.8510 na        1 L15      0.000400
      5 C5          3.4260   -0.8270   -0.5210 cd        1 L15     -0.111300
      6 C6          2.3010   -0.2090   -1.1120 cc        1 L15     -0.254300
      7 C7          2.0400   -0.0820   -2.5180 ca        1 L15      0.067000
      8 C8          2.5000   -1.0650   -3.4130 ca        1 L15     -0.127000
      9 C9          2.2570   -0.9520   -4.7780 ca        1 L15     -0.106000
     10 C10         1.5480    0.1440   -5.2800 ca        1 L15     -0.155300
     11 C11         1.3000    0.2740   -6.7400 c3        1 L15     -0.041100
     12 C12        -0.0760   -0.3170   -7.0520 c3        1 L15      0.095800
     13 N13        -0.4290   -0.2230   -8.5010 n4        1 L15     -0.840600
     14 C14         1.0960    1.1330   -4.3980 ca        1 L15     -0.106000
     15 C15         1.3390    1.0220   -3.0330 ca        1 L15     -0.127000
     16 H1C1       -0.4170    0.7490    0.8650 hc        1 L15      0.055367
     17 H1C2       -0.3720    0.5950   -0.9450 hc        1 L15      0.055367
     18 H1C3        0.3660    2.0470   -0.1290 hc        1 L15      0.055367
     19 H4          3.8750   -1.0340    1.5630 hn        1 L15      0.334700
     20 H5          4.2980   -1.3020   -0.9720 h4        1 L15      0.183000
     21 H8          3.0570   -1.9320   -3.0260 ha        1 L15      0.151500
     22 H15         0.9950    1.8150   -2.3490 ha        1 L15      0.151500
     23 H9          2.6340   -1.7270   -5.4620 ha        1 L15      0.129000
     24 H111        2.0960   -0.2700   -7.3160 hc        1 L15      0.069200
     25 H112        1.3350    1.3570   -7.0390 hc        1 L15      0.069200
     26 H14         0.5590    2.0120   -4.7840 ha        1 L15      0.129000
     27 H121       -0.1000   -1.4070   -6.7610 hx        1 L15      0.116700
     28 H122       -0.8690    0.2340   -6.4670 hx        1 L15      0.116700
     29 H131        0.2620   -0.7300   -9.0640 hn        1 L15      0.459133
     30 H132       -0.4340    0.7570   -8.7990 hn        1 L15      0.459133
     31 H133       -1.3550   -0.6280   -8.6650 hn        1 L15      0.459133
@<TRIPOS>BOND
     1    1    2 1   
     2    1   16 1   
     3    1   17 1   
     4    1   18 1   
     5    2    3 2   
     6    2    6 1   
     7    3    4 1   
     8    4    5 1   
     9    4   19 1   
    10    5    6 2   
    11    5   20 1   
    12    6    7 1   
    13    7    8 ar  
    14    7   15 ar  
    15    8    9 ar  
    16    8   21 1   
    17    9   10 ar  
    18    9   23 1   
    19   10   11 1   
    20   10   14 ar  
    21   11   12 1   
    22   11   24 1   
    23   11   25 1   
    24   12   13 1   
    25   12   27 1   
    26   12   28 1   
    27   13   29 1   
    28   13   30 1   
    29   13   31 1   
    30   14   15 ar  
    31   14   26 1   
    32   15   22 1   
@<TRIPOS>SUBSTRUCTURE
     1 L15         1 TEMP              0 ****  ****    0 ROOT
