@<TRIPOS>MOLECULE
L15
   30    28     1     0     0
SMALL
bcc


@<TRIPOS>ATOM
      1 C1          2.1290    2.3140    3.0150 c3        1 L15     -0.149000
      2 C2          0.6520    1.9130    3.1120 c2        1 L15     -0.095000
      3 N3         -0.1040    2.2990    4.2200 n1        1 L15     -0.087000
      4 N4         -1.1250    1.2090    4.5670 n2        1 L15     -0.161000
      5 C5         -0.8220    0.1940    3.5100 c2        1 L15     -0.111000
      6 C6          0.2410    0.6620    2.6800 c2        1 L15     -0.143000
      7 C7          0.2530    0.3260    1.2030 c2        1 L15      0.007000
      8 C8         -0.6400    1.0970    0.2440 c2        1 L15     -0.127000
      9 C9         -0.7370    0.6740   -1.2160 c1        1 L15     -0.127000
     10 C10         0.0530   -0.5270   -1.7130 c1        1 L15     -0.076000
     11 C11         0.0730   -0.8720   -3.2340 c3        1 L15     -0.125000
     12 C12        -0.9770   -1.9190   -3.5270 c3        1 L15     -0.076000
     13 N13        -0.9630   -2.2390   -4.9530 n3        1 L15     -0.350000
     14 C14         0.9250   -1.3130   -0.7470 c1        1 L15     -0.122000
     15 C15         1.0410   -0.8710    0.7070 c1        1 L15     -0.123000
     16 H1C1        2.3200    2.6600    2.0970 hc        1 L15      0.091667
     17 H1C2        2.3280    3.0340    3.6940 hc        1 L15      0.091667
     18 H1C3        2.6900    1.5370    3.1920 hc        1 L15      0.091667
     19 H4         -1.9400    1.3400    4.9760 hn        1 L15      0.272000
     20 H5         -1.5670   -0.3580    3.1130 h4        1 L15      0.177000
     21 H8         -1.1400    1.8560    0.5590 ha        1 L15      0.129000
     22 H15         1.5910   -1.3680    1.3170 ha        1 L15      0.137000
     23 H9         -1.3080    1.1660   -1.8270 ha        1 L15      0.129000
     24 H111       -0.1160   -0.0690   -3.7510 hc        1 L15      0.093500
     25 H112        0.9530   -1.2180   -3.4780 hc        1 L15      0.093500
     26 H14         1.4390   -2.0940   -1.0690 ha        1 L15      0.134000
     27 H121       -0.7880   -2.7150   -3.0190 h1        1 L15      0.068000
     28 H122       -1.8580   -1.5750   -3.2780 h1        1 L15      0.068000
     29 H131       -0.8360   -3.1490   -5.0640 hn        1 L15      0.143500
     30 H132       -1.7660   -1.9920   -5.3310 hn        1 L15      0.143500
@<TRIPOS>BOND
     1    1    2 1   
     2    1   16 1   
     3    1   17 1   
     4    1   18 1   
     5    2    3 1   
     6    2    6 1   
     7    4    5 1   
     8    4   19 1   
     9    5    6 1   
    10    5   20 1   
    11    6    7 1   
    12    7    8 1   
    13    7   15 1   
    14    8    9 1   
    15    8   21 1   
    16    9   23 1   
    17   10   11 1   
    18   10   14 1   
    19   11   12 1   
    20   11   24 1   
    21   11   25 1   
    22   12   13 1   
    23   12   27 1   
    24   12   28 1   
    25   13   29 1   
    26   13   30 1   
    27   14   26 1   
    28   15   22 1   
@<TRIPOS>SUBSTRUCTURE
     1 L15         1 TEMP              0 ****  ****    0 ROOT
