@<TRIPOS>MOLECULE
L17
   55    57     1     0     0
SMALL
bcc


@<TRIPOS>ATOM
      1 C8          1.4590   -0.6480   -2.2160 ca        1 L17     -0.048000
      2 C2          2.1940    0.2790   -2.9690 ca        1 L17     -0.243600
      3 N1          1.5620    1.2930   -3.6890 na        1 L17      0.231600
      4 C4          0.1830    1.3720   -3.6200 ca        1 L17     -0.163300
      5 C5         -0.5680    0.4600   -2.8700 ca        1 L17     -0.055000
      6 C6          0.0690   -0.5580   -2.1610 ca        1 L17     -0.109000
      7 C11         3.7170    0.1800   -3.0650 c3        1 L17      0.495900
      8 C1          4.3230    1.3910   -2.2470 c3        1 L17      0.046800
      9 N18         5.7220    1.7440   -2.6490 n4        1 L17     -0.609400
     10 C21         5.7710    3.0620   -3.3070 ca        1 L17     -0.143700
     11 N2          5.4660    3.1310   -4.6770 na        1 L17      0.268600
     12 C10         5.3800    4.3970   -5.2750 ca        1 L17     -0.159600
     13 C24         5.6740    5.5590   -4.5330 ca        1 L17      0.109400
     14 C25         6.0500    5.4610   -3.1800 ca        1 L17     -0.120000
     15 C3          6.0880    4.2230   -2.5640 ca        1 L17     -0.028000
     16 O28         5.2800    2.1090   -5.3240 o         1 L17     -0.278000
     17 CL2         5.5800    7.0750   -5.2390 cl        1 L17      0.068600
     18 C33         5.0020    4.4300   -6.7240 c3        1 L17     -0.100100
     19 C34         3.5180    4.1940   -6.8990 c         1 L17      0.552100
     20 N37         3.0610    2.7780   -7.0460 n4        1 L17     -0.680800
     21 O38         2.6630    5.0670   -6.9390 o         1 L17     -0.402100
     22 C39         2.5340    2.4920   -8.4440 c3        1 L17      0.200800
     23 C40         3.6540    2.4730   -9.4410 ca        1 L17     -0.176300
     24 C43         4.6840    1.5300   -9.3340 ca        1 L17     -0.132000
     25 C44         5.6910    1.4950  -10.3020 ca        1 L17      0.018400
     26 C45         5.6660    2.3860  -11.3840 ca        1 L17     -0.079000
     27 C50         3.6300    3.3680  -10.5150 ca        1 L17     -0.100000
     28 C9          4.6330    3.3160  -11.4850 ca        1 L17     -0.104000
     29 F1          4.2160   -1.0030   -2.5670 f         1 L17     -0.199300
     30 F2          4.1690    0.1520   -4.3660 f         1 L17     -0.199300
     31 CL1         6.9390    0.3610  -10.1670 cl        1 L17     -0.036400
     32 O1          2.2330    2.1100   -4.3400 o         1 L17     -0.411000
     33 C7          1.7610    1.1790   -8.4610 c3        1 L17     -0.126100
     34 H8          1.9960   -1.4510   -1.6790 ha        1 L17      0.192000
     35 H4         -0.2800    2.2000   -4.1890 h4        1 L17      0.206000
     36 H5         -1.6680    0.5670   -2.8540 ha        1 L17      0.197000
     37 H6         -0.5150   -1.2850   -1.5690 ha        1 L17      0.194000
     38 H11         4.3260    1.0990   -1.1580 hx        1 L17      0.142700
     39 H12         3.6620    2.2920   -2.3990 hx        1 L17      0.142700
     40 H18         6.0790    1.0220   -3.3070 hn        1 L17      0.488300
     41 H25         6.3070    6.3740   -2.6070 ha        1 L17      0.215000
     42 H3          6.3630    4.1440   -1.4960 ha        1 L17      0.194000
     43 H331        5.6010    3.6710   -7.3090 hc        1 L17      0.142700
     44 H332        5.2360    5.4450   -7.1620 hc        1 L17      0.142700
     45 H37         3.8340    2.1300   -6.8350 hn        1 L17      0.481300
     46 H39         1.8200    3.3430   -8.6800 hx        1 L17      0.115700
     47 H43         4.6920    0.7960   -8.5120 ha        1 L17      0.143000
     48 H45         6.4530    2.3440  -12.1570 ha        1 L17      0.180000
     49 H50         2.8140    4.1020  -10.6160 ha        1 L17      0.153000
     50 H9          4.6030    4.0110  -12.3410 ha        1 L17      0.172000
     51 H71         0.8900    1.2100   -7.7620 hc        1 L17      0.079700
     52 H72         2.4150    0.3110   -8.2040 hc        1 L17      0.079700
     53 H73         1.3720    1.0240   -9.5010 hc        1 L17      0.079700
     54 H182        6.3360    1.7760   -1.8240 hn        1 L17      0.488300
     55 H372        2.3010    2.5980   -6.3660 hn        1 L17      0.481300
@<TRIPOS>BOND
     1    1    2 ar  
     2    1    6 ar  
     3    1   34 1   
     4    2    3 2   
     5    2    7 1   
     6    3    4 1   
     7    3   32 1   
     8    4    5 ar  
     9    4   35 1   
    10    5    6 ar  
    11    5   36 1   
    12    6   37 1   
    13    7    8 1   
    14    7   29 1   
    15    7   30 1   
    16    8    9 1   
    17    8   38 1   
    18    8   39 1   
    19    9   10 1   
    20    9   40 1   
    21    9   54 1   
    22   10   11 1   
    23   10   15 ar  
    24   11   12 2   
    25   11   16 1   
    26   12   13 ar  
    27   12   18 1   
    28   13   14 ar  
    29   13   17 1   
    30   14   15 ar  
    31   14   41 1   
    32   15   42 1   
    33   18   19 1   
    34   18   43 1   
    35   18   44 1   
    36   19   20 1   
    37   19   21 2   
    38   20   22 1   
    39   20   45 1   
    40   20   55 1   
    41   22   23 1   
    42   22   33 1   
    43   22   46 1   
    44   23   24 ar  
    45   23   27 ar  
    46   24   25 ar  
    47   24   47 1   
    48   25   26 ar  
    49   25   31 1   
    50   26   28 ar  
    51   26   48 1   
    52   27   28 ar  
    53   27   49 1   
    54   28   50 1   
    55   33   51 1   
    56   33   52 1   
    57   33   53 1   
@<TRIPOS>SUBSTRUCTURE
     1 L17         1 TEMP              0 ****  ****    0 ROOT
