@<TRIPOS>MOLECULE
L17
   54    56     1     0     0
SMALL
bcc


@<TRIPOS>ATOM
      1 C8          2.0070   -0.4270   -2.5100 ca        1 L17     -0.065000
      2 C2          2.2920    0.5570   -3.4700 ca        1 L17     -0.228600
      3 N1          3.4900    0.5440   -4.1780 na        1 L17      0.245600
      4 C4          4.4030   -0.4600   -3.8860 ca        1 L17     -0.181300
      5 C5          4.1400   -1.4400   -2.9280 ca        1 L17     -0.074000
      6 C6          2.9300   -1.4310   -2.2320 ca        1 L17     -0.127000
      7 C11         1.2700    1.6780   -3.7220 c3        1 L17      0.448900
      8 C1          1.5370    2.8200   -2.6590 c3        1 L17     -0.041700
      9 N18         1.3650    4.1860   -3.0810 nh        1 L17     -0.204200
     10 C21         2.5000    4.7640   -3.7170 ca        1 L17     -0.080500
     11 N2          2.5870    4.8200   -5.1290 na        1 L17      0.196600
     12 C10         3.7520    5.3020   -5.7230 ca        1 L17     -0.180600
     13 C24         4.8020    5.8100   -4.9290 ca        1 L17      0.048400
     14 C25         4.6860    5.8260   -3.5380 ca        1 L17     -0.124000
     15 C3          3.5460    5.3010   -2.9400 ca        1 L17     -0.059000
     16 O28         1.6470    4.4400   -5.8340 o         1 L17     -0.335000
     17 CL2         6.2060    6.4100   -5.6510 cl        1 L17     -0.018400
     18 C33         3.8360    5.3260   -7.2160 c3        1 L17     -0.095100
     19 C34         3.0430    4.2580   -7.9240 c         1 L17      0.579100
     20 N37         3.1750    2.8510   -7.4150 n4        1 L17     -0.669800
     21 O38         2.3320    4.4400   -8.9020 o         1 L17     -0.427100
     22 C39         3.3690    1.8230   -8.5080 c3        1 L17      0.196800
     23 C40         4.8310    1.6410   -8.8030 ca        1 L17     -0.153300
     24 C43         5.6970    1.1870   -7.8010 ca        1 L17     -0.128000
     25 C44         7.0480    0.9940   -8.0980 ca        1 L17      0.016400
     26 C45         7.5370    1.2420   -9.3870 ca        1 L17     -0.090000
     27 C50         5.3140    1.8950  -10.0900 ca        1 L17     -0.101000
     28 C9          6.6640    1.6900  -10.3770 ca        1 L17     -0.111000
     29 F1          1.2740    2.1220   -5.0270 f         1 L17     -0.220800
     30 F2         -0.0220    1.2060   -3.6060 f         1 L17     -0.220800
     31 CL1         8.1010    0.4500   -6.8850 cl        1 L17     -0.065400
     32 O1          3.7400    1.3940   -5.0410 o         1 L17     -0.394000
     33 C7          2.7250    0.4960   -8.1200 c3        1 L17     -0.120100
     34 H8          1.0330   -0.3890   -1.9930 ha        1 L17      0.181000
     35 H4          5.3430   -0.4260   -4.4660 h4        1 L17      0.197000
     36 H5          4.9020   -2.2140   -2.7400 ha        1 L17      0.179000
     37 H6          2.7080   -2.2040   -1.4800 ha        1 L17      0.175000
     38 H11         0.7960    2.6500   -1.8240 h1        1 L17      0.095200
     39 H12         2.5780    2.6800   -2.2590 h1        1 L17      0.095200
     40 H18         0.5170    4.3210   -3.6110 hn        1 L17      0.275700
     41 H25         5.4920    6.2500   -2.9140 ha        1 L17      0.184000
     42 H3          3.4430    5.3030   -1.8400 ha        1 L17      0.188000
     43 H331        4.9100    5.2310   -7.5430 hc        1 L17      0.130200
     44 H332        3.4440    6.3200   -7.5870 hc        1 L17      0.130200
     45 H37         2.3090    2.6250   -6.8830 hn        1 L17      0.484800
     46 H39         2.8360    2.2250   -9.4270 hx        1 L17      0.117700
     47 H43         5.3140    0.9690   -6.7870 ha        1 L17      0.162000
     48 H45         8.6020    1.0810   -9.6180 ha        1 L17      0.168000
     49 H50         4.6340    2.2460  -10.8830 ha        1 L17      0.151000
     50 H9          7.0420    1.8810  -11.3940 ha        1 L17      0.161000
     51 H71         3.1500    0.1080   -7.1610 hc        1 L17      0.075367
     52 H72         2.9340   -0.2450   -8.9310 hc        1 L17      0.075367
     53 H73         1.6180    0.6050   -8.0120 hc        1 L17      0.075367
     54 H372        3.9550    2.7890   -6.7490 hn        1 L17      0.484800
@<TRIPOS>BOND
     1    1    2 ar  
     2    1    6 ar  
     3    1   34 1   
     4    2    3 2   
     5    2    7 1   
     6    3    4 1   
     7    3   32 1   
     8    4    5 ar  
     9    4   35 1   
    10    5    6 ar  
    11    5   36 1   
    12    6   37 1   
    13    7    8 1   
    14    7   29 1   
    15    7   30 1   
    16    8    9 1   
    17    8   38 1   
    18    8   39 1   
    19    9   10 1   
    20    9   40 1   
    21   10   11 1   
    22   10   15 ar  
    23   11   12 2   
    24   11   16 1   
    25   12   13 ar  
    26   12   18 1   
    27   13   14 ar  
    28   13   17 1   
    29   14   15 ar  
    30   14   41 1   
    31   15   42 1   
    32   18   19 1   
    33   18   43 1   
    34   18   44 1   
    35   19   20 1   
    36   19   21 2   
    37   20   22 1   
    38   20   45 1   
    39   20   54 1   
    40   22   23 1   
    41   22   33 1   
    42   22   46 1   
    43   23   24 ar  
    44   23   27 ar  
    45   24   25 ar  
    46   24   47 1   
    47   25   26 ar  
    48   25   31 1   
    49   26   28 ar  
    50   26   48 1   
    51   27   28 ar  
    52   27   49 1   
    53   28   50 1   
    54   33   51 1   
    55   33   52 1   
    56   33   53 1   
@<TRIPOS>SUBSTRUCTURE
     1 L17         1 TEMP              0 ****  ****    0 ROOT
