@<TRIPOS>MOLECULE
L17
   54    56     1     0     0
SMALL
bcc


@<TRIPOS>ATOM
      1 C8          1.9690   -0.4150   -2.5200 ca        1 L17     -0.065000
      2 C2          2.2630    0.5630   -3.4820 ca        1 L17     -0.228600
      3 N1          3.4750    0.5570   -4.1660 na        1 L17      0.245600
      4 C4          4.3930   -0.4350   -3.8470 ca        1 L17     -0.181300
      5 C5          4.1200   -1.4090   -2.8850 ca        1 L17     -0.074000
      6 C6          2.8970   -1.4070   -2.2140 ca        1 L17     -0.127000
      7 C11         1.2340    1.6710   -3.7650 c3        1 L17      0.448900
      8 C1          1.4680    2.8260   -2.7090 c3        1 L17     -0.041700
      9 N18         1.2900    4.1850   -3.1470 nu        1 L17     -0.204200
     10 C21         2.4310    4.7700   -3.7650 ca        1 L17     -0.080500
     11 N2          2.5460    4.8140   -5.1760 na        1 L17      0.196600
     12 C10         3.7180    5.3030   -5.7510 ca        1 L17     -0.180600
     13 C24         4.7460    5.8300   -4.9400 ca        1 L17      0.048400
     14 C25         4.6020    5.8580   -3.5520 ca        1 L17     -0.124000
     15 C3          3.4550    5.3250   -2.9720 ca        1 L17     -0.059000
     16 O28         1.6250    4.4170   -5.8960 o         1 L17     -0.335000
     17 Cl2         6.1580    6.4390   -5.6390 cl        1 L17     -0.018400
     18 C33         3.8310    5.3140   -7.2420 c3        1 L17     -0.095100
     19 C34         3.0640    4.2310   -7.9550 c         1 L17      0.579100
     20 N37         3.2020    2.8300   -7.4310 ny        1 L17     -0.669800
     21 O38         2.3710    4.3960   -8.9490 o         1 L17     -0.427100
     22 C39         3.4290    1.7940   -8.5090 c3        1 L17      0.196800
     23 C40         4.8990    1.6270   -8.7720 ca        1 L17     -0.153300
     24 C43         5.7490    1.1910   -7.7490 ca        1 L17     -0.128000
     25 C44         7.1080    1.0110   -8.0170 ca        1 L17      0.016400
     26 C45         7.6200    1.2520   -9.2980 ca        1 L17     -0.090000
     27 C50         5.4050    1.8740  -10.0520 ca        1 L17     -0.101000
     28 C9          6.7630    1.6810  -10.3090 ca        1 L17     -0.111000
     29 F1          1.2600    2.1030   -5.0740 f         1 L17     -0.220800
     30 F2         -0.0550    1.1860   -3.6700 f         1 L17     -0.220800
     31 Cl1         8.1420    0.4890   -6.7780 cl        1 L17     -0.064400
     32 O1          3.7340    1.4020   -5.0310 o         1 L17     -0.394000
     33 C7          2.7920    0.4640   -8.1220 c3        1 L17     -0.120100
     34 H8          0.9840   -0.3820   -2.0230 ha        1 L17      0.181000
     35 H4          5.3440   -0.3960   -4.4080 h4        1 L17      0.197000
     36 H5          4.8860   -2.1740   -2.6750 ha        1 L17      0.179000
     37 H6          2.6670   -2.1750   -1.4590 ha        1 L17      0.175000
     38 H11         2.5030    2.7000   -2.2870 h1        1 L17      0.095200
     39 H12         0.7130    2.6550   -1.8870 h1        1 L17      0.095200
     40 H18         0.4520    4.3070   -3.6940 hn        1 L17      0.275700
     41 H25         5.3900    6.2960   -2.9160 ha        1 L17      0.184000
     42 H3          3.3300    5.3360   -1.8750 ha        1 L17      0.189000
     43 H331        4.9130    5.2280   -7.5470 hc        1 L17      0.130200
     44 H332        3.4360    6.3000   -7.6290 hc        1 L17      0.130200
     45 H37         3.9690    2.7830   -6.7480 hn        1 L17      0.484800
     46 H39         2.9110    2.1820   -9.4420 hx        1 L17      0.117700
     47 H43         5.3480    0.9780   -6.7410 ha        1 L17      0.162000
     48 H45         8.6920    1.1010   -9.5060 ha        1 L17      0.168000
     49 H50         4.7380    2.2090  -10.8620 ha        1 L17      0.151000
     50 H9          7.1600    1.8670  -11.3200 ha        1 L17      0.161000
     51 H71         1.6820    0.5610   -8.0380 hc        1 L17      0.075367
     52 H72         3.2010    0.0890   -7.1510 hc        1 L17      0.075367
     53 H73         3.0260   -0.2820   -8.9210 hc        1 L17      0.075367
     54 H372        2.3280    2.5990   -6.9140 hn        1 L17      0.484800
@<TRIPOS>BOND
     1    1    2 ar  
     2    1    6 ar  
     3    1   34 1   
     4    2    3 2   
     5    2    7 1   
     6    3    4 1   
     7    3   32 1   
     8    4    5 ar  
     9    4   35 1   
    10    5    6 ar  
    11    5   36 1   
    12    6   37 1   
    13    7    8 1   
    14    7   29 1   
    15    7   30 1   
    16    8    9 1   
    17    8   38 1   
    18    8   39 1   
    19    9   10 1   
    20    9   40 1   
    21   10   11 1   
    22   10   15 ar  
    23   11   12 2   
    24   11   16 1   
    25   12   13 ar  
    26   12   18 1   
    27   13   14 ar  
    28   13   17 1   
    29   14   15 ar  
    30   14   41 1   
    31   15   42 1   
    32   18   19 1   
    33   18   43 1   
    34   18   44 1   
    35   19   20 1   
    36   19   21 2   
    37   20   22 1   
    38   20   45 1   
    39   20   54 1   
    40   22   23 1   
    41   22   33 1   
    42   22   46 1   
    43   23   24 ar  
    44   23   27 ar  
    45   24   25 ar  
    46   24   47 1   
    47   25   26 ar  
    48   25   31 1   
    49   26   28 ar  
    50   26   48 1   
    51   27   28 ar  
    52   27   49 1   
    53   28   50 1   
    54   33   51 1   
    55   33   52 1   
    56   33   53 1   
@<TRIPOS>SUBSTRUCTURE
     1 L17         1 TEMP              0 ****  ****    0 ROOT
