@<TRIPOS>MOLECULE
L17
   53    48     1     0     0
SMALL
bcc


@<TRIPOS>ATOM
      1 C8         -1.1800   -0.2920    7.2340 c1        1 L17     -0.121667
      2 C2         -2.2960   -0.3540    6.4120 c1        1 L17     -0.222000
      3 N1         -3.4480   -0.9170    6.8700 n2        1 L17      0.371000
      4 C4         -3.5060   -1.4200    8.1360 c1        1 L17     -0.121667
      5 C5         -2.3920   -1.3590    8.9580 c1        1 L17     -0.121667
      6 C6         -1.2370   -0.7950    8.5000 c1        1 L17     -0.121667
      7 C11        -2.2660    0.3050    5.0440 c3        1 L17      0.300000
      8 C1         -1.6550   -0.6500    4.0350 c3        1 L17     -0.103000
      9 N18        -1.1950    0.0860    2.8980 n3        1 L17     -0.233000
     10 C21        -0.7310   -0.6070    1.7370 c2        1 L17     -0.018000
     11 N2         -0.7440    0.0140    0.5210 n3        1 L17      0.308000
     12 C10        -0.3030   -0.6470   -0.5890 c1        1 L17     -0.091000
     13 C24         0.1600   -1.9510   -0.4820 c1        1 L17     -0.043000
     14 C25         0.1740   -2.5730    0.7360 c1        1 L17     -0.135000
     15 C3         -0.2690   -1.9090    1.8470 c1        1 L17     -0.090000
     16 O28        -1.1910    1.3010    0.4160 o         1 L17     -0.480000
     17 CL2         0.6840   -2.8100   -1.9060 cl        1 L17      0.040000
     18 C33        -0.4520   -0.0050   -1.9650 c3        1 L17     -0.141000
     19 C34         0.8700    0.6190   -2.3790 c2        1 L17      0.310000
     20 N37         1.3480    0.4570   -3.7170 n         1 L17     -0.370000
     21 O38         1.4870    1.3110   -1.5940 o         1 L17     -0.371000
     22 C39         1.5980    1.6030   -4.5270 c3        1 L17      0.058000
     23 C40         2.4090    1.1970   -5.7400 c2        1 L17     -0.089000
     24 C43         3.5890    1.8610   -6.0360 c2        1 L17     -0.110000
     25 C44         4.2710    1.5760   -7.2090 c1        1 L17     -0.063000
     26 C45         3.7720    0.6260   -8.0870 c1        1 L17     -0.121667
     27 C50         1.9100    0.2470   -6.6180 c1        1 L17     -0.121000
     28 C9          2.5910   -0.0380   -7.7920 c1        1 L17     -0.121667
     29 F1         -3.5130    0.6130    4.6690 f         1 L17     -0.152000
     30 F2         -1.5290    1.4230    5.1040 f         1 L17     -0.152000
     31 CL1         5.7680    2.3940   -7.5700 cl        1 L17     -0.019000
     32 O1         -4.5570   -0.9450    6.0740 o         1 L17     -0.432000
     33 C7          0.2870    2.1970   -4.9760 c3        1 L17     -0.219000
     34 H8         -0.3530    0.1120    6.9050 ha        1 L17      0.160500
     35 H4         -4.3330   -1.8240    8.4640 ha        1 L17      0.160500
     36 H5         -2.4330   -1.7190    9.8650 ha        1 L17      0.160500
     37 H6         -0.4500   -0.7510    9.0800 ha        1 L17      0.160500
     38 H11        -0.9000   -1.1200    4.4460 h1        1 L17      0.137500
     39 H12        -2.3290   -1.3010    3.7520 h1        1 L17      0.137500
     40 H18        -1.1770    0.9980    2.9230 hn        1 L17      0.218000
     41 H25         0.4990   -3.4910    0.8120 ha        1 L17      0.165000
     42 H3         -0.2590   -2.3530    2.7170 ha        1 L17      0.168000
     43 H331       -0.7090   -0.6860   -2.6160 hc        1 L17      0.142000
     44 H332       -1.1410    0.6860   -1.9280 hc        1 L17      0.142000
     45 H37         1.5130   -0.3770   -4.0440 hn        1 L17      0.249000
     46 H39         2.0960    2.2660   -4.0090 h1        1 L17      0.132000
     47 H43         3.9410    2.5300   -5.4170 ha        1 L17      0.154000
     48 H45         4.2520    0.4250   -8.9140 ha        1 L17      0.160500
     49 H50         1.0780   -0.2220   -6.4100 ha        1 L17      0.138000
     50 H9          2.2400   -0.7070   -8.4100 ha        1 L17      0.160500
     51 H71        -0.1210    1.6160   -5.6530 hc        1 L17      0.083333
     52 H72        -0.3150    2.2760   -4.2080 hc        1 L17      0.083333
     53 H73         0.4450    3.0850   -5.3600 hc        1 L17      0.083333
@<TRIPOS>BOND
     1    1    6 1   
     2    1   34 1   
     3    2    3 1   
     4    2    7 1   
     5    3   32 1   
     6    4    5 1   
     7    4   35 1   
     8    5   36 1   
     9    6   37 1   
    10    7    8 1   
    11    7   29 1   
    12    7   30 1   
    13    8    9 1   
    14    8   38 1   
    15    8   39 1   
    16    9   10 1   
    17    9   40 1   
    18   10   11 1   
    19   10   15 1   
    20   11   12 1   
    21   11   16 1   
    22   12   18 1   
    23   13   14 1   
    24   13   17 1   
    25   14   41 1   
    26   15   42 1   
    27   18   19 1   
    28   18   43 1   
    29   18   44 1   
    30   19   20 1   
    31   19   21 1   
    32   20   22 1   
    33   20   45 1   
    34   22   23 1   
    35   22   33 1   
    36   22   46 1   
    37   23   24 1   
    38   23   27 1   
    39   24   25 1   
    40   24   47 1   
    41   25   31 1   
    42   26   28 1   
    43   26   48 1   
    44   27   49 1   
    45   28   50 1   
    46   33   51 1   
    47   33   52 1   
    48   33   53 1   
@<TRIPOS>SUBSTRUCTURE
     1 L17         1 TEMP              0 ****  ****    0 ROOT
