@<TRIPOS>MOLECULE
L17
   53    55     1     0     0
SMALL
bcc


@<TRIPOS>ATOM
      1 C8          8.5610  -10.8040   -2.8500 ca        1 L17     -0.055000
      2 C2          8.2640   -9.9540   -3.9250 ca        1 L17     -0.253600
      3 N1          8.6350  -10.2870   -5.2310 na        1 L17      0.269600
      4 C4          9.3040  -11.4960   -5.4170 ca        1 L17     -0.213300
      5 C5          9.6040  -12.3470   -4.3580 ca        1 L17     -0.072000
      6 C6          9.2370  -12.0030   -3.0560 ca        1 L17     -0.168000
      7 C11         7.4950   -8.6440   -3.6900 c3        1 L17      0.449900
      8 C1          8.4220   -7.4350   -4.0860 c3        1 L17     -0.043700
      9 N18         7.9490   -6.1220   -3.7380 nh        1 L17     -0.218200
     10 C21         7.0460   -5.5110   -4.6520 ca        1 L17     -0.087500
     11 N2          5.7420   -5.1450   -4.2300 na        1 L17      0.206600
     12 C10         4.9010   -4.4770   -5.1230 ca        1 L17     -0.123600
     13 C24         5.3320   -4.2040   -6.4360 ca        1 L17      0.036400
     14 C25         6.6120   -4.5700   -6.8550 ca        1 L17     -0.135000
     15 C3          7.4610   -5.2160   -5.9670 ca        1 L17     -0.090000
     16 O28         5.3840   -5.3570   -3.0700 o         1 L17     -0.328000
     17 CL2         4.3100   -3.4170   -7.5320 cl        1 L17     -0.039400
     18 C33         3.5280   -4.1150   -4.6490 c3        1 L17     -0.105100
     19 C34         3.5030   -2.7640   -3.9430 c         1 L17      0.667100
     20 N37         4.2090   -2.6550   -2.7660 n         1 L17     -0.560900
     21 O38         2.8720   -1.8070   -4.4360 o         1 L17     -0.613100
     22 C39         4.1680   -1.4610   -1.9500 c3        1 L17      0.142000
     23 C40         3.3450   -1.6470   -0.6930 ca        1 L17     -0.097300
     24 C43         3.6980   -2.6200    0.2480 ca        1 L17     -0.116000
     25 C44         2.9330   -2.7650    1.4090 ca        1 L17      0.016400
     26 C45         1.8190   -1.9520    1.6390 ca        1 L17     -0.123000
     27 C50         2.2270   -0.8370   -0.4700 ca        1 L17     -0.114000
     28 C9          1.4720   -0.9900    0.6920 ca        1 L17     -0.124000
     29 F1          6.2970   -8.6230   -4.3700 f         1 L17     -0.223300
     30 F2          7.0750   -8.5430   -2.3770 f         1 L17     -0.223300
     31 CL1         3.3640   -3.9460    2.5560 cl        1 L17     -0.098400
     32 O1          8.4050   -9.5460   -6.1770 o         1 L17     -0.282000
     33 C7          5.5700   -0.9830   -1.5560 c3        1 L17     -0.101100
     34 H8          8.2400  -10.5030   -1.8390 ha        1 L17      0.172000
     35 H4          9.5690  -11.7210   -6.4650 h4        1 L17      0.192000
     36 H5         10.1320  -13.2900   -4.5690 ha        1 L17      0.160000
     37 H6          9.4700  -12.6660   -2.2110 ha        1 L17      0.156000
     38 H11         8.5970   -7.5060   -5.1970 h1        1 L17      0.097700
     39 H12         9.3940   -7.5830   -3.5370 h1        1 L17      0.097700
     40 H18         7.6170   -6.0810   -2.7870 hn        1 L17      0.267700
     41 H25         6.9500   -4.3480   -7.8790 ha        1 L17      0.165000
     42 H3          8.4780   -5.4990   -6.2820 ha        1 L17      0.168000
     43 H331        2.8260   -4.0550   -5.5240 hc        1 L17      0.103200
     44 H332        3.1350   -4.9020   -3.9460 hc        1 L17      0.103200
     45 H37         4.5930   -3.4760   -2.3510 hn        1 L17      0.336500
     46 H39         3.6860   -0.6440   -2.5740 h1        1 L17      0.091700
     47 H43         4.5730   -3.2660    0.0760 ha        1 L17      0.149000
     48 H45         1.2210   -2.0720    2.5540 ha        1 L17      0.146000
     49 H50         1.9390   -0.0810   -1.2160 ha        1 L17      0.143000
     50 H9          0.5950   -0.3490    0.8640 ha        1 L17      0.137000
     51 H71         6.1030   -1.7530   -0.9490 hc        1 L17      0.044367
     52 H72         6.1760   -0.7600   -2.4660 hc        1 L17      0.044367
     53 H73         5.4750   -0.0520   -0.9480 hc        1 L17      0.044367
@<TRIPOS>BOND
     1    1    2 ar  
     2    1    6 ar  
     3    1   34 1   
     4    2    3 2   
     5    2    7 1   
     6    3    4 1   
     7    3   32 1   
     8    4    5 ar  
     9    4   35 1   
    10    5    6 ar  
    11    5   36 1   
    12    6   37 1   
    13    7    8 1   
    14    7   29 1   
    15    7   30 1   
    16    8    9 1   
    17    8   38 1   
    18    8   39 1   
    19    9   10 1   
    20    9   40 1   
    21   10   11 1   
    22   10   15 ar  
    23   11   12 2   
    24   11   16 1   
    25   12   13 ar  
    26   12   18 1   
    27   13   14 ar  
    28   13   17 1   
    29   14   15 ar  
    30   14   41 1   
    31   15   42 1   
    32   18   19 1   
    33   18   43 1   
    34   18   44 1   
    35   19   20 1   
    36   19   21 2   
    37   20   22 1   
    38   20   45 1   
    39   22   23 1   
    40   22   33 1   
    41   22   46 1   
    42   23   24 ar  
    43   23   27 ar  
    44   24   25 ar  
    45   24   47 1   
    46   25   26 ar  
    47   25   31 1   
    48   26   28 ar  
    49   26   48 1   
    50   27   28 ar  
    51   27   49 1   
    52   28   50 1   
    53   33   51 1   
    54   33   52 1   
    55   33   53 1   
@<TRIPOS>SUBSTRUCTURE
     1 L17         1 TEMP              0 ****  ****    0 ROOT
