@<TRIPOS>MOLECULE
L18
   48    48     1     0     0
SMALL
bcc


@<TRIPOS>ATOM
      1 C8         -0.7260    1.0660   -0.8710 c2        1 L18     -0.146000
      2 C9         -1.1590    1.1370    0.3870 c2        1 L18     -0.288000
      3 C10         2.9270   -1.3600    1.3800 c3        1 L18     -0.214500
      4 C11         1.6210   -1.3250    2.1470 c3        1 L18     -0.057000
      5 C12         1.3060   -2.6920    2.7180 c3        1 L18     -0.214500
      6 C15         1.5080    1.1010    2.7570 c2        1 L18     -0.109000
      7 C16         2.2740    2.1160    3.2130 c2        1 L18     -0.204000
      8 C17         3.3190    1.8680    4.1730 c2        1 L18     -0.015000
      9 C18         3.5650    0.6040    4.6200 c2        1 L18     -0.243000
     10 C19         2.8190   -0.5200    4.1700 c1        1 L18     -0.078000
     11 C13         1.6810   -0.2830    3.2720 c3        1 L18     -0.157000
     12 C1          3.2190   -0.2520   -2.8810 c3        1 L18     -0.105000
     13 C2          2.8220   -1.3510   -3.8560 c3        1 L18     -0.147000
     14 C3          1.5720   -0.9800   -4.6280 c3        1 L18     -0.166000
     15 C5          0.7250    0.0520   -3.8890 c3        1 L18      0.002000
     16 C6          0.8530   -0.0480   -2.4300 c2        1 L18     -0.711000
     17 C7         -0.3080   -0.1970   -1.5460 c3        1 L18      0.012000
     18 N1          2.1590    0.0190   -1.8580 n4        1 L18      0.193000
     19 H8         -0.1310   -0.9890   -0.7600 hc        1 L18      0.063000
     20 H9C1       -0.6590    1.9670   -1.5040 ha        1 L18      0.119000
     21 H9C2       -1.4800    2.0780    0.8500 ha        1 L18      0.101000
     22 H9C3       -1.2410    0.2530    1.0340 ha        1 L18      0.101000
     23 H101        3.1490   -0.3540    0.9450 hc        1 L18      0.079500
     24 H102        3.7660   -1.6480    2.0600 hc        1 L18      0.079500
     25 H7C1        2.8680   -2.1070    0.5520 hc        1 L18      0.079500
     26 H7C2       -1.1780   -0.5510   -2.1680 hc        1 L18      0.063000
     27 H11         0.7940   -1.0250    1.4400 hc        1 L18      0.086000
     28 H121        0.2820   -2.7010    3.1620 hc        1 L18      0.079500
     29 H122        2.0450   -2.9500    3.5170 hc        1 L18      0.079500
     30 H123        1.3520   -3.4650    1.9140 hc        1 L18      0.079500
     31 H15         0.7860   -0.4800    3.9580 hc        1 L18      0.172000
     32 H16         0.7130    1.2640    2.0080 ha        1 L18      0.147000
     33 H17         2.1300    3.1500    2.8650 ha        1 L18      0.135000
     34 H18         3.9110    2.7330    4.5160 ha        1 L18      0.130000
     35 H19         4.3750    0.4100    5.3410 ha        1 L18      0.146000
     36 H1C1        2.2200   -0.7070   -1.1290 hn        1 L18      0.189000
     37 H1C2        3.3960    0.7000   -3.4550 hx        1 L18      0.102000
     38 H2C1        4.1630   -0.5290   -2.3350 hx        1 L18      0.102000
     39 H2C2        3.6830   -1.5170   -4.5540 hc        1 L18      0.086500
     40 H3C1        2.6530   -2.3080   -3.2950 hc        1 L18      0.086500
     41 H3C2        1.8550   -0.5790   -5.6360 hc        1 L18      0.072500
     42 H5C1        0.9660   -1.9070   -4.8010 hc        1 L18      0.072500
     43 H5C2       -0.3520   -0.0840   -4.1730 hc        1 L18      0.050500
     44 H6          1.0290    1.0750   -4.2560 hc        1 L18      0.050500
     45 H141        2.3390    2.1490   -1.9180 hx        1 L18      0.105667
     46 H142        1.7040    1.4580   -0.3550 hx        1 L18      0.105667
     47 H143        3.4910    1.3100   -0.7600 hx        1 L18      0.105667
     48 C14         2.4530    1.3160   -1.1790 c3        1 L18     -0.220000
@<TRIPOS>BOND
     1    1    2 1   
     2    1   17 1   
     3    1   20 1   
     4    2   21 1   
     5    2   22 1   
     6    3    4 1   
     7    3   23 1   
     8    3   24 1   
     9    3   25 1   
    10    4    5 1   
    11    4   11 1   
    12    4   27 1   
    13    5   28 1   
    14    5   29 1   
    15    5   30 1   
    16    6    7 1   
    17    6   11 1   
    18    6   32 1   
    19    7    8 1   
    20    7   33 1   
    21    8    9 1   
    22    8   34 1   
    23    9   10 1   
    24    9   35 1   
    25   10   11 1   
    26   11   31 1   
    27   12   13 1   
    28   12   18 1   
    29   12   37 1   
    30   12   38 1   
    31   13   14 1   
    32   13   39 1   
    33   13   40 1   
    34   14   15 1   
    35   14   41 1   
    36   14   42 1   
    37   15   16 1   
    38   15   43 1   
    39   15   44 1   
    40   16   17 1   
    41   16   18 1   
    42   17   19 1   
    43   17   26 1   
    44   18   36 1   
    45   18   48 1   
    46   45   48 1   
    47   46   48 1   
    48   47   48 1   
@<TRIPOS>SUBSTRUCTURE
     1 L18         1 TEMP              0 ****  ****    0 ROOT
