@<TRIPOS>MOLECULE
L18
   48    48     1     0     0
SMALL
bcc


@<TRIPOS>ATOM
      1 C8         -0.1020    1.6420   -1.0430 c2        1 L18     -0.147000
      2 C9         -0.3910    2.0160    0.2030 c2        1 L18     -0.285000
      3 C10         3.4450   -0.2420    1.6960 c3        1 L18     -0.215000
      4 C11         1.9590   -0.5250    1.7460 c3        1 L18     -0.067000
      5 C12         1.6740   -1.9680    1.3830 c3        1 L18     -0.215000
      6 C15         1.2580    1.2480    3.3650 c2        1 L18     -0.104000
      7 C16         1.6240    1.8120    4.5370 c2        1 L18     -0.201000
      8 C17         2.2080    1.0110    5.5810 c2        1 L18     -0.012000
      9 C18         2.4150   -0.3240    5.3990 c2        1 L18     -0.243000
     10 C19         2.0840   -0.9850    4.1850 c1        1 L18     -0.081000
     11 C13         1.3960   -0.2150    3.1400 c3        1 L18     -0.153000
     12 C1          3.0210   -1.2250   -2.8540 c3        1 L18     -0.108000
     13 C2          2.1750   -2.3350   -3.4620 c3        1 L18     -0.146000
     14 C3          1.0740   -1.7700   -4.3380 c3        1 L18     -0.167000
     15 C5          0.6540   -0.3690   -3.8960 c3        1 L18      0.003000
     16 C6          0.8980   -0.1270   -2.4700 c2        1 L18     -0.712000
     17 C7         -0.1710    0.2340   -1.5320 c3        1 L18      0.012000
     18 N1          2.2230   -0.3150   -1.9700 nx        1 L18      0.190000
     19 H8         -0.1900   -0.4610   -0.6400 hc        1 L18      0.062000
     20 H9C1        0.2020    2.3780   -1.8050 ha        1 L18      0.120000
     21 H9C2       -0.7080    1.3020    0.9740 ha        1 L18      0.099500
     22 H9C3       -0.3500    3.0620    0.5310 ha        1 L18      0.099500
     23 H101        3.6530    0.8100    2.0060 hc        1 L18      0.079500
     24 H102        3.9940   -0.9330    2.3810 hc        1 L18      0.079500
     25 H7C1        3.8300   -0.3860    0.6560 hc        1 L18      0.079500
     26 H7C2       -1.1580    0.1070   -2.0590 hc        1 L18      0.062000
     27 H11         1.4320    0.1490    1.0080 hc        1 L18      0.088000
     28 H121        0.5860   -2.1090    1.1740 hc        1 L18      0.079500
     29 H122        2.2500   -2.2640    0.4730 hc        1 L18      0.079500
     30 H123        1.9700   -2.6400    2.2270 hc        1 L18      0.079500
     31 H15         0.3360   -0.6450    3.1750 hc        1 L18      0.171000
     32 H16         0.8230    1.8430    2.5430 ha        1 L18      0.142000
     33 H17         1.4970    2.8890    4.7230 ha        1 L18      0.136000
     34 H18         2.4860    1.5200    6.5180 ha        1 L18      0.130000
     35 H19         2.8740   -0.9350    6.1920 ha        1 L18      0.145000
     36 H1C1        2.1490   -0.7500   -1.0380 hn        1 L18      0.192000
     37 H1C2        3.8580   -1.6560   -2.2390 hx        1 L18      0.101000
     38 H2C1        3.4600   -0.6050   -3.6850 hx        1 L18      0.101000
     39 H2C2        1.7270   -2.9570   -2.6440 hc        1 L18      0.087500
     40 H3C1        2.8540   -2.9980   -4.0590 hc        1 L18      0.087500
     41 H3C2        0.1910   -2.4580   -4.2950 hc        1 L18      0.071500
     42 H5C1        1.4180   -1.7390   -5.4040 hc        1 L18      0.071500
     43 H5C2       -0.4360   -0.2260   -4.1140 hc        1 L18      0.050500
     44 H6          1.2120    0.3750   -4.5350 hc        1 L18      0.050500
     45 H141        3.0070    1.5110   -2.7550 hx        1 L18      0.105667
     46 H142        2.4160    1.5860   -1.0330 hx        1 L18      0.105667
     47 H143        4.0100    0.7530   -1.4150 hx        1 L18      0.105667
     48 C14         2.9720    0.9620   -1.7800 c3        1 L18     -0.213000
@<TRIPOS>BOND
     1    1    2 1   
     2    1   17 1   
     3    1   20 1   
     4    2   21 1   
     5    2   22 1   
     6    3    4 1   
     7    3   23 1   
     8    3   24 1   
     9    3   25 1   
    10    4    5 1   
    11    4   11 1   
    12    4   27 1   
    13    5   28 1   
    14    5   29 1   
    15    5   30 1   
    16    6    7 1   
    17    6   11 1   
    18    6   32 1   
    19    7    8 1   
    20    7   33 1   
    21    8    9 1   
    22    8   34 1   
    23    9   10 1   
    24    9   35 1   
    25   10   11 1   
    26   11   31 1   
    27   12   13 1   
    28   12   18 1   
    29   12   37 1   
    30   12   38 1   
    31   13   14 1   
    32   13   39 1   
    33   13   40 1   
    34   14   15 1   
    35   14   41 1   
    36   14   42 1   
    37   15   16 1   
    38   15   43 1   
    39   15   44 1   
    40   16   17 1   
    41   16   18 1   
    42   17   19 1   
    43   17   26 1   
    44   18   36 1   
    45   18   48 1   
    46   45   48 1   
    47   46   48 1   
    48   47   48 1   
@<TRIPOS>SUBSTRUCTURE
     1 L18         1 TEMP              0 ****  ****    0 ROOT
