@<TRIPOS>MOLECULE
L18
   48    49     1     0     0
SMALL
bcc


@<TRIPOS>ATOM
      1 C8        -29.6910  -30.2220   42.2620 c3        1 L18     -0.062700
      2 C9        -30.5110  -31.4060   42.7320 c3        1 L18     -0.090100
      3 C10       -28.2270  -30.3350   42.6690 c3        1 L18     -0.069400
      4 C11       -27.5750  -31.7020   42.4920 c3        1 L18     -0.021400
      5 C12       -27.4580  -32.1120   41.0380 c3        1 L18     -0.089100
      6 C15       -25.9660  -32.5410   44.2300 ca        1 L18     -0.127500
      7 C16       -24.7110  -32.5460   44.8380 ca        1 L18     -0.129500
      8 C17       -23.7000  -31.7110   44.3640 ca        1 L18     -0.134000
      9 C18       -23.9480  -30.8700   43.2790 ca        1 L18     -0.129500
     10 C19       -25.2020  -30.8640   42.6710 ca        1 L18     -0.127500
     11 C13       -26.2220  -31.7000   43.1420 ca        1 L18     -0.075300
     12 C1        -31.1050  -28.9550   38.1220 c3        1 L18      0.163800
     13 C2        -32.6020  -28.9440   38.4300 c3        1 L18     -0.111400
     14 C3        -32.8550  -29.4060   39.8490 c3        1 L18     -0.074400
     15 C5        -32.0010  -28.6450   40.8410 c3        1 L18     -0.107400
     16 C6        -30.5110  -28.6340   40.4550 c3        1 L18      0.179500
     17 C7        -29.8630  -29.9970   40.7620 c3        1 L18     -0.076400
     18 N1        -30.2640  -28.2310   39.0620 n3        1 L18     -0.722600
     19 H8        -30.0870  -29.3120   42.8050 hc        1 L18      0.042700
     20 H9C1      -30.2450  -32.3290   42.1620 hc        1 L18      0.034033
     21 H9C2      -30.3340  -31.5940   43.8180 hc        1 L18      0.034033
     22 H9C3      -31.5990  -31.2040   42.5770 hc        1 L18      0.034033
     23 H101      -27.6330  -29.5720   42.0990 hc        1 L18      0.043700
     24 H102      -28.1540  -30.0660   43.7580 hc        1 L18      0.043700
     25 H7C1      -28.8620  -30.0460   40.2560 hc        1 L18      0.052200
     26 H7C2      -30.4940  -30.8120   40.3200 hc        1 L18      0.052200
     27 H11       -28.2160  -32.4680   43.0180 hc        1 L18      0.052700
     28 H121      -26.9070  -31.3400   40.4500 hc        1 L18      0.038033
     29 H122      -26.9080  -33.0800   40.9530 hc        1 L18      0.038033
     30 H123      -28.4760  -32.2410   40.5940 hc        1 L18      0.038033
     31 H15       -26.7580  -33.2040   44.6100 ha        1 L18      0.131500
     32 H16       -24.5190  -33.2120   45.6920 ha        1 L18      0.129500
     33 H17       -22.7100  -31.7160   44.8430 ha        1 L18      0.130000
     34 H18       -23.1540  -30.2100   42.9030 ha        1 L18      0.129500
     35 H19       -25.3940  -30.1990   41.8150 ha        1 L18      0.131500
     36 H1C1      -30.7440  -30.0230   38.1250 h1        1 L18      0.049200
     37 H1C2      -30.9360  -28.5360   37.0920 h1        1 L18      0.049200
     38 H2C1      -33.0110  -27.9090   38.2900 hc        1 L18      0.043200
     39 H2C2      -33.1290  -29.6170   37.7070 hc        1 L18      0.043200
     40 H3C1      -33.9380  -29.2650   40.1040 hc        1 L18      0.039700
     41 H3C2      -32.6350  -30.5030   39.9280 hc        1 L18      0.039700
     42 H5C1      -32.3650  -27.5860   40.9050 hc        1 L18      0.043700
     43 H5C2      -32.1090  -29.1040   41.8570 hc        1 L18      0.043700
     44 H6        -29.9980  -27.8680   41.1120 h1        1 L18      0.051700
     45 H141      -31.3070  -26.3410   39.1090 h1        1 L18      0.030367
     46 H142      -29.5390  -26.3230   39.5490 h1        1 L18      0.030367
     47 H143      -30.0430  -26.5610   37.8160 h1        1 L18      0.030367
     48 C14       -30.3050  -26.7970   38.8800 c3        1 L18      0.154100
@<TRIPOS>BOND
     1    1    2 1   
     2    1    3 1   
     3    1   17 1   
     4    1   19 1   
     5    2   20 1   
     6    2   21 1   
     7    2   22 1   
     8    3    4 1   
     9    3   23 1   
    10    3   24 1   
    11    4    5 1   
    12    4   11 1   
    13    4   27 1   
    14    5   28 1   
    15    5   29 1   
    16    5   30 1   
    17    6    7 ar  
    18    6   11 ar  
    19    6   31 1   
    20    7    8 ar  
    21    7   32 1   
    22    8    9 ar  
    23    8   33 1   
    24    9   10 ar  
    25    9   34 1   
    26   10   11 ar  
    27   10   35 1   
    28   12   13 1   
    29   12   18 1   
    30   12   36 1   
    31   12   37 1   
    32   13   14 1   
    33   13   38 1   
    34   13   39 1   
    35   14   15 1   
    36   14   40 1   
    37   14   41 1   
    38   15   16 1   
    39   15   42 1   
    40   15   43 1   
    41   16   17 1   
    42   16   18 1   
    43   16   44 1   
    44   17   25 1   
    45   17   26 1   
    46   18   48 1   
    47   45   48 1   
    48   46   48 1   
    49   47   48 1   
@<TRIPOS>SUBSTRUCTURE
     1 L18         1 TEMP              0 ****  ****    0 ROOT
