@<TRIPOS>MOLECULE
L1B
   49    51     1     0     0
SMALL
bcc


@<TRIPOS>ATOM
      1 C1         -0.0500    0.2980    0.0510 cc        1 L1B      0.582600
      2 N1          1.3120    0.3280    0.0050 nc        1 L1B     -0.806000
      3 C2          1.9800    0.2500    1.2180 cd        1 L1B      0.896200
      4 N2          1.3590    0.1130    2.4660 nd        1 L1B     -0.758000
      5 C3          0.0210    0.0720    2.4810 cc        1 L1B      0.582600
      6 C4         -0.7660    0.1600    1.2940 cc        1 L1B     -0.525200
      7 N3         -0.7440    0.4450   -1.1480 nv        1 L1B     -0.492100
      8 N4          3.3530    0.3070    1.1950 nv        1 L1B     -0.895800
      9 C5         -0.6670   -0.0700    3.8160 c3        1 L1B     -0.121700
     10 C6          0.0560    0.5960    4.9600 c3        1 L1B     -0.088100
     11 C7         -2.8950   -0.9550    1.9440 ca        1 L1B     -0.115000
     12 C8         -4.2640   -1.0010    1.9720 ca        1 L1B     -0.081000
     13 C9         -5.0450    0.0360    1.3940 ca        1 L1B     -0.094000
     14 C10        -4.3720    1.1430    0.7750 ca        1 L1B      0.041700
     15 C11        -2.9520    1.1650    0.7560 ca        1 L1B     -0.191000
     16 C12        -2.2130    0.1350    1.3270 ca        1 L1B      0.122000
     17 C13        -6.4580   -0.0030    1.4170 cc        1 L1B      0.028000
     18 C14        -7.1790    1.0300    0.8430 cc        1 L1B     -0.195000
     19 C15        -6.4920    2.1040    0.2470 cd        1 L1B      0.022700
     20 N5         -5.1400    2.1730    0.2160 na        1 L1B      0.015900
     21 C16        -4.4920    3.3240   -0.4240 c3        1 L1B     -0.005700
     22 C17        -3.9620    3.0300   -1.8230 c3        1 L1B     -0.110400
     23 C18        -3.3140    4.2880   -2.3850 c3        1 L1B      0.131400
     24 O1         -2.8790    3.9420   -3.6940 os        1 L1B     -0.419600
     25 C19        -2.2400    5.0210   -4.3620 c3        1 L1B      0.112700
     26 HN31       -1.6340    0.0050   -1.1810 hn        1 L1B      0.267700
     27 HN32       -0.2120    0.3920   -1.9900 hn        1 L1B      0.267700
     28 HN41        3.8330    0.3850    0.3320 hn        1 L1B      0.461800
     29 HN42        3.8650    0.2190    2.0380 hn        1 L1B      0.461800
     30 H51        -0.7690   -1.1700    4.0270 hc        1 L1B      0.055200
     31 H52        -1.7000    0.3630    3.7370 hc        1 L1B      0.055200
     32 H61         0.2560    1.6710    4.7320 hc        1 L1B      0.049700
     33 H62         1.0310    0.0940    5.1690 hc        1 L1B      0.049700
     34 H63        -0.5740    0.5390    5.8810 hc        1 L1B      0.049700
     35 H8         -4.7890   -1.8500    2.4430 ha        1 L1B      0.165000
     36 H11        -2.4090    2.0090    0.2970 ha        1 L1B      0.176000
     37 H13        -6.9730   -0.8570    1.8920 ha        1 L1B      0.181000
     38 H14        -8.2810    1.0360    0.8400 ha        1 L1B      0.193000
     39 H15        -7.0570    2.9410   -0.2170 h4        1 L1B      0.199000
     40 H161       -5.2470    4.1620   -0.4810 h1        1 L1B      0.093200
     41 H162       -3.6520    3.6680    0.2470 h1        1 L1B      0.093200
     42 H171       -3.2020    2.2040   -1.8010 hc        1 L1B      0.078700
     43 H172       -4.7900    2.7070   -2.5070 hc        1 L1B      0.078700
     44 H181       -4.0510    5.1330   -2.4380 h1        1 L1B      0.036700
     45 H182       -2.4360    4.6030   -1.7600 h1        1 L1B      0.036700
     46 H191       -1.9650    4.5980   -5.3600 h1        1 L1B      0.046033
     47 H192       -1.3270    5.3430   -3.8040 h1        1 L1B      0.046033
     48 H193       -2.9440    5.8810   -4.4790 h1        1 L1B      0.046033
     49 H7         -2.2950   -1.7660    2.3900 ha        1 L1B      0.173000
@<TRIPOS>BOND
     1    1    2 1   
     2    1    6 1   
     3    1    7 2   
     4    2    3 2   
     5    3    4 1   
     6    3    8 1   
     7    4    5 2   
     8    5    6 1   
     9    5    9 1   
    10    6   16 2   
    11    7   26 1   
    12    7   27 1   
    13    8   28 1   
    14    8   29 1   
    15    9   10 1   
    16    9   30 1   
    17    9   31 1   
    18   10   32 1   
    19   10   33 1   
    20   10   34 1   
    21   11   12 ar  
    22   11   16 ar  
    23   11   49 1   
    24   12   13 ar  
    25   12   35 1   
    26   13   14 ar  
    27   13   17 2   
    28   14   15 ar  
    29   14   20 1   
    30   15   16 ar  
    31   15   36 1   
    32   17   18 1   
    33   17   37 1   
    34   18   19 2   
    35   18   38 1   
    36   19   20 1   
    37   19   39 1   
    38   20   21 1   
    39   21   22 1   
    40   21   40 1   
    41   21   41 1   
    42   22   23 1   
    43   22   42 1   
    44   22   43 1   
    45   23   24 1   
    46   23   44 1   
    47   23   45 1   
    48   24   25 1   
    49   25   46 1   
    50   25   47 1   
    51   25   48 1   
@<TRIPOS>SUBSTRUCTURE
     1 L1B         1 TEMP              0 ****  ****    0 ROOT
