@<TRIPOS>MOLECULE
L1B
   49    42     1     0     0
SMALL
bcc


@<TRIPOS>ATOM
      1 C1          2.3740   -2.1840   -1.5290 c1        1 L1B      0.216000
      2 N1          3.7180   -2.1880   -1.5850 n1        1 L1B     -0.298000
      3 C2          4.4480   -1.9550   -0.4620 c1        1 L1B      0.237000
      4 N2          3.8170   -1.7160    0.7300 n1        1 L1B     -0.249000
      5 C3          2.4770   -1.7120    0.7920 c1        1 L1B      0.133000
      6 C4          1.7400   -1.9460   -0.3380 c1        1 L1B     -0.348000
      7 N3          1.6180   -2.5410   -2.6750 n3        1 L1B     -0.335000
      8 N4          5.8710   -1.9350   -0.5300 n3        1 L1B     -0.334000
      9 C5          1.7800   -1.5830    2.1400 c3        1 L1B     -0.125000
     10 C6          2.8290   -1.4800    3.2460 c3        1 L1B     -0.206000
     11 C7         -0.4340   -2.9530   -0.1290 c1        1 L1B     -0.114000
     12 C8         -1.8240   -2.8900   -0.1940 c1        1 L1B     -0.026500
     13 C9         -2.4640   -1.6570   -0.4390 c1        1 L1B     -0.093000
     14 C10        -1.7140   -0.5150   -0.6150 c1        1 L1B      0.064000
     15 C11        -0.3010   -0.5810   -0.5490 c1        1 L1B     -0.185000
     16 C12         0.3280   -1.7960   -0.3070 c1        1 L1B      0.119000
     17 C13        -3.8450   -1.6140   -0.6080 c1        1 L1B     -0.026500
     18 C14        -4.4580   -0.4330   -0.9490 c1        1 L1B     -0.073500
     19 C15        -3.6960    0.7220   -1.1260 c1        1 L1B     -0.073500
     20 N5         -2.3370    0.6790   -0.9610 n2        1 L1B     -0.052000
     21 C16        -1.9770    2.0530   -1.2430 c3        1 L1B     -0.066000
     22 C17        -2.4940    2.9550   -0.1270 c3        1 L1B     -0.189000
     23 C18        -1.6530    4.2170   -0.0650 c3        1 L1B     -0.019000
     24 O1         -1.5620    4.6550    1.2710 os        1 L1B     -0.274000
     25 C19        -0.4740    5.5080    1.5180 c3        1 L1B     -0.077000
     26 HN31        0.7270   -2.6990   -2.6000 hn        1 L1B      0.213000
     27 HN32        2.0370   -2.6600   -3.4780 hn        1 L1B      0.213000
     28 HN41        6.2930   -2.1500   -1.3110 hn        1 L1B      0.257000
     29 HN42        6.3660   -1.7090    0.2140 hn        1 L1B      0.257000
     30 H51         1.2230   -2.3650    2.2940 hc        1 L1B      0.094500
     31 H52         1.2260   -0.7850    2.1440 hc        1 L1B      0.094500
     32 H61         2.4010   -1.1700    4.0760 hc        1 L1B      0.089667
     33 H62         3.2330   -2.3630    3.3960 hc        1 L1B      0.089667
     34 H63         3.5240   -0.8420    2.9790 hc        1 L1B      0.089667
     35 H7          0.0080   -3.8100    0.0170 ha        1 L1B      0.173000
     36 H8         -2.3560   -3.7000   -0.0690 ha        1 L1B      0.173000
     37 H11         0.2340    0.2150   -0.7390 ha        1 L1B      0.176000
     38 H13        -4.3830   -2.4300   -0.4820 ha        1 L1B      0.173000
     39 H14        -5.4310   -0.4030   -1.0680 ha        1 L1B      0.196500
     40 H15        -4.1340    1.5660   -1.3710 ha        1 L1B      0.196500
     41 H161       -2.3780    2.3270   -2.0990 h1        1 L1B      0.131500
     42 H162       -1.0020    2.1300   -1.3000 h1        1 L1B      0.131500
     43 H171       -2.4370    2.4860    0.7220 hc        1 L1B      0.120000
     44 H172       -3.4230    3.1930   -0.3050 hc        1 L1B      0.120000
     45 H181       -0.7600    4.0290   -0.4070 h1        1 L1B      0.075000
     46 H182       -2.0680    4.9120   -0.6060 h1        1 L1B      0.075000
     47 H191       -0.3710    5.6340    2.4800 h1        1 L1B      0.085000
     48 H192       -0.6350    6.3740    1.0910 h1        1 L1B      0.085000
     49 H193        0.3420    5.1100    1.1520 h1        1 L1B      0.085000
@<TRIPOS>BOND
     1    1    6 1   
     2    1    7 1   
     3    2    3 1   
     4    3    8 1   
     5    4    5 1   
     6    5    9 1   
     7    7   26 1   
     8    7   27 1   
     9    8   28 1   
    10    8   29 1   
    11    9   10 1   
    12    9   30 1   
    13    9   31 1   
    14   10   32 1   
    15   10   33 1   
    16   10   34 1   
    17   11   16 1   
    18   11   35 1   
    19   12   13 1   
    20   12   36 1   
    21   13   17 1   
    22   14   15 1   
    23   14   20 1   
    24   15   37 1   
    25   17   38 1   
    26   18   19 1   
    27   18   39 1   
    28   19   40 1   
    29   20   21 1   
    30   21   22 1   
    31   21   41 1   
    32   21   42 1   
    33   22   23 1   
    34   22   43 1   
    35   22   44 1   
    36   23   24 1   
    37   23   45 1   
    38   23   46 1   
    39   24   25 1   
    40   25   47 1   
    41   25   48 1   
    42   25   49 1   
@<TRIPOS>SUBSTRUCTURE
     1 L1B         1 TEMP              0 ****  ****    0 ROOT
