@<TRIPOS>MOLECULE
L1B
   49    51     1     0     0
SMALL
bcc


@<TRIPOS>ATOM
      1 C1         -0.0520    0.2960    0.0440 cc        1 L1B      0.582600
      2 N1          1.3100    0.3250   -0.0070 nc        1 L1B     -0.806000
      3 C2          1.9820    0.2490    1.2030 cd        1 L1B      0.896200
      4 N2          1.3660    0.1160    2.4540 nd        1 L1B     -0.758000
      5 C3          0.0290    0.0760    2.4740 cc        1 L1B      0.582600
      6 C4         -0.7640    0.1610    1.2910 cc        1 L1B     -0.525200
      7 N3         -0.7500    0.4410   -1.1520 nh        1 L1B     -0.492100
      8 N4          3.3550    0.3060    1.1750 nh        1 L1B     -0.895800
      9 C5         -0.6540   -0.0620    3.8120 c3        1 L1B     -0.121700
     10 C6          0.0720    0.6070    4.9520 c3        1 L1B     -0.088100
     11 C7         -2.8900   -0.9510    1.9500 ca        1 L1B     -0.115000
     12 C8         -4.2590   -0.9970    1.9840 ca        1 L1B     -0.081000
     13 C9         -5.0420    0.0400    1.4070 ca        1 L1B     -0.094000
     14 C10        -4.3700    1.1450    0.7830 ca        1 L1B      0.041700
     15 C11        -2.9510    1.1660    0.7580 ca        1 L1B     -0.191000
     16 C12        -2.2110    0.1380    1.3290 ca        1 L1B      0.122000
     17 C13        -6.4540    0.0020    1.4350 cc        1 L1B      0.028000
     18 C14        -7.1770    1.0340    0.8620 cc        1 L1B     -0.195000
     19 C15        -6.4930    2.1060    0.2610 cd        1 L1B      0.022700
     20 N5         -5.1400    2.1740    0.2240 na        1 L1B      0.015900
     21 C16        -4.4940    3.3230   -0.4210 c3        1 L1B     -0.005700
     22 C17        -3.9690    3.0260   -1.8210 c3        1 L1B     -0.110400
     23 C18        -3.3220    4.2820   -2.3870 c3        1 L1B      0.131400
     24 O1         -2.8910    3.9320   -3.6970 os        1 L1B     -0.419600
     25 C19        -2.2530    5.0100   -4.3690 c3        1 L1B      0.112700
     26 HN31       -1.6410    0.0010   -1.1810 hn        1 L1B      0.267700
     27 HN32       -0.2220    0.3850   -1.9970 hn        1 L1B      0.267700
     28 HN41        3.8320    0.3820    0.3100 hn        1 L1B      0.461800
     29 HN42        3.8710    0.2190    2.0170 hn        1 L1B      0.461800
     30 H51        -0.7560   -1.1620    4.0270 hc        1 L1B      0.055200
     31 H52        -1.6880    0.3700    3.7370 hc        1 L1B      0.055200
     32 H61         1.0480    0.1040    5.1590 hc        1 L1B      0.049700
     33 H62         0.2720    1.6800    4.7200 hc        1 L1B      0.049700
     34 H63        -0.5540    0.5520    5.8750 hc        1 L1B      0.049700
     35 H8         -4.7830   -1.8440    2.4590 ha        1 L1B      0.165000
     36 H11        -2.4090    2.0090    0.2950 ha        1 L1B      0.176000
     37 H13        -6.9680   -0.8510    1.9140 ha        1 L1B      0.181000
     38 H14        -8.2800    1.0410    0.8620 ha        1 L1B      0.193000
     39 H15        -7.0580    2.9420   -0.2030 h4        1 L1B      0.199000
     40 H161       -3.6520    3.6690    0.2460 h1        1 L1B      0.093200
     41 H162       -5.2490    4.1620   -0.4770 h1        1 L1B      0.093200
     42 H171       -3.2100    2.1990   -1.8000 hc        1 L1B      0.078700
     43 H172       -4.8000    2.7020   -2.5010 hc        1 L1B      0.078700
     44 H181       -2.4410    4.5970   -1.7660 h1        1 L1B      0.036700
     45 H182       -4.0580    5.1280   -2.4410 h1        1 L1B      0.036700
     46 H191       -1.9810    4.5830   -5.3680 h1        1 L1B      0.046033
     47 H192       -1.3380    5.3320   -3.8140 h1        1 L1B      0.046033
     48 H193       -2.9570    5.8700   -4.4870 h1        1 L1B      0.046033
     49 H7         -2.2890   -1.7620    2.3970 ha        1 L1B      0.173000
@<TRIPOS>BOND
     1    1    2 1   
     2    1    6 1   
     3    1    7 2   
     4    2    3 2   
     5    3    4 1   
     6    3    8 1   
     7    4    5 2   
     8    5    6 1   
     9    5    9 1   
    10    6   16 2   
    11    7   26 1   
    12    7   27 1   
    13    8   28 1   
    14    8   29 1   
    15    9   10 1   
    16    9   30 1   
    17    9   31 1   
    18   10   32 1   
    19   10   33 1   
    20   10   34 1   
    21   11   12 ar  
    22   11   16 ar  
    23   11   49 1   
    24   12   13 ar  
    25   12   35 1   
    26   13   14 ar  
    27   13   17 2   
    28   14   15 ar  
    29   14   20 1   
    30   15   16 ar  
    31   15   36 1   
    32   17   18 1   
    33   17   37 1   
    34   18   19 2   
    35   18   38 1   
    36   19   20 1   
    37   19   39 1   
    38   20   21 1   
    39   21   22 1   
    40   21   40 1   
    41   21   41 1   
    42   22   23 1   
    43   22   42 1   
    44   22   43 1   
    45   23   24 1   
    46   23   44 1   
    47   23   45 1   
    48   24   25 1   
    49   25   46 1   
    50   25   47 1   
    51   25   48 1   
@<TRIPOS>SUBSTRUCTURE
     1 L1B         1 TEMP              0 ****  ****    0 ROOT
