@<TRIPOS>MOLECULE
L1B
   51    53     1     0     0
SMALL
bcc


@<TRIPOS>ATOM
      1 C1         -0.2160    0.4400   -0.3390 ca        1 L1B      0.532200
      2 N1          1.1460    0.4290   -0.4870 nb        1 L1B     -0.673000
      3 C2          1.8550    0.3200    0.6710 ca        1 L1B      0.769900
      4 N2          1.3410    0.2540    1.9450 nb        1 L1B     -0.627000
      5 C3         -0.0020    0.2690    2.0730 ca        1 L1B      0.552600
      6 C4         -0.8650    0.3350    0.9140 cp        1 L1B     -0.182600
      7 N3         -0.9960    0.5720   -1.5860 n4        1 L1B     -0.837300
      8 N4          3.3430    0.2700    0.5610 n4        1 L1B     -0.819300
      9 C5         -0.5940    0.2110    3.4550 c3        1 L1B     -0.153700
     10 C6          0.2130    0.9330    4.5060 c3        1 L1B     -0.105100
     11 C7         -2.8880   -0.8500    1.7240 ca        1 L1B     -0.107000
     12 C8         -4.2480   -0.9180    1.9270 ca        1 L1B     -0.039000
     13 C9         -5.1070    0.1070    1.4590 ca        1 L1B     -0.053000
     14 C10        -4.5500    1.2060    0.7360 ca        1 L1B      0.011700
     15 C11        -3.1350    1.2690    0.5540 ca        1 L1B     -0.147000
     16 C12        -2.3210    0.2620    1.0480 cp        1 L1B     -0.060000
     17 C13        -6.5140    0.0620    1.7060 ca        1 L1B      0.031000
     18 C14        -7.3130    1.0790    1.2340 ca        1 L1B     -0.150000
     19 C15        -6.7340    2.1370    0.4890 ca        1 L1B      0.070700
     20 N5         -5.4070    2.2020    0.2380 na        1 L1B      0.014900
     21 C16        -4.8640    3.2860   -0.5910 c3        1 L1B     -0.016700
     22 C17        -4.4030    2.8270   -1.9770 c3        1 L1B     -0.107400
     23 C18        -3.2840    3.7130   -2.4930 c3        1 L1B      0.122400
     24 O1         -2.0720    3.3090   -1.8370 os        1 L1B     -0.540600
     25 C19        -1.0280    4.2720   -2.0060 c3        1 L1B      0.106700
     26 HN31       -1.9500    0.2220   -1.4240 hn        1 L1B      0.497800
     27 HN32       -1.0500    1.5780   -1.8600 hn        1 L1B      0.497800
     28 HN41        3.6460    0.4010   -0.4180 hn        1 L1B      0.506800
     29 HN42        3.7560    1.0130    1.1510 hn        1 L1B      0.506800
     30 H51        -0.6830   -0.8790    3.7380 hc        1 L1B      0.098200
     31 H52        -1.6320    0.6430    3.4170 hc        1 L1B      0.098200
     32 H61         0.3960    1.9960    4.2180 hc        1 L1B      0.075367
     33 H62        -0.3580    0.9240    5.4700 hc        1 L1B      0.075367
     34 H63         1.1960    0.4330    4.6870 hc        1 L1B      0.075367
     35 H11        -2.6880    2.1520    0.0580 ha        1 L1B      0.177000
     36 H13        -6.9410   -0.7870    2.2760 ha        1 L1B      0.213000
     37 H14        -8.4070    1.0960    1.4130 ha        1 L1B      0.231000
     38 H15        -7.3810    2.9530    0.0850 h4        1 L1B      0.232000
     39 H161       -5.6620    4.0790   -0.7090 h1        1 L1B      0.112700
     40 H162       -4.0060    3.7560   -0.0260 h1        1 L1B      0.112700
     41 H171       -4.0480    1.7630   -1.9550 hc        1 L1B      0.074700
     42 H172       -5.2620    2.8840   -2.7000 hc        1 L1B      0.074700
     43 H181       -3.4880    4.7970   -2.2790 h1        1 L1B      0.085200
     44 H182       -3.1520    3.5730   -3.6000 h1        1 L1B      0.085200
     45 H191       -0.1540    3.8370   -1.4610 h1        1 L1B      0.061700
     46 H192       -0.7990    4.4050   -3.0920 h1        1 L1B      0.061700
     47 H193       -1.3250    5.2490   -1.5500 h1        1 L1B      0.061700
     48 H7         -2.2340   -1.6580    2.0960 ha        1 L1B      0.181000
     49 H33        -0.5590    0.0400   -2.3550 hn        1 L1B      0.497800
     50 H43         3.6750   -0.6490    0.9010 hn        1 L1B      0.506800
     51 H8         -4.6890   -1.7780    2.4690 ha        1 L1B      0.204000
@<TRIPOS>BOND
     1    1    2 ar  
     2    1    6 ar  
     3    1    7 1   
     4    2    3 ar  
     5    3    4 ar  
     6    3    8 1   
     7    4    5 ar  
     8    5    6 ar  
     9    5    9 1   
    10    6   16 1   
    11    7   26 1   
    12    7   27 1   
    13    7   49 1   
    14    8   28 1   
    15    8   29 1   
    16    8   50 1   
    17    9   10 1   
    18    9   30 1   
    19    9   31 1   
    20   10   32 1   
    21   10   33 1   
    22   10   34 1   
    23   11   12 ar  
    24   11   16 ar  
    25   11   48 1   
    26   12   13 ar  
    27   12   51 1   
    28   13   14 ar  
    29   13   17 ar  
    30   14   15 ar  
    31   14   20 1   
    32   15   16 ar  
    33   15   35 1   
    34   17   18 ar  
    35   17   36 1   
    36   18   19 ar  
    37   18   37 1   
    38   19   20 2   
    39   19   38 1   
    40   20   21 1   
    41   21   22 1   
    42   21   39 1   
    43   21   40 1   
    44   22   23 1   
    45   22   41 1   
    46   22   42 1   
    47   23   24 1   
    48   23   43 1   
    49   23   44 1   
    50   24   25 1   
    51   25   45 1   
    52   25   46 1   
    53   25   47 1   
@<TRIPOS>SUBSTRUCTURE
     1 L1B         1 TEMP              0 ****  ****    0 ROOT
