@<TRIPOS>MOLECULE
L1B
   49    51     1     0     0
SMALL
bcc


@<TRIPOS>ATOM
      1 C1          1.9560   -1.1400    0.7360 cc        1 L1B      0.582600
      2 N1          3.0530   -1.9410    0.6190 nc        1 L1B     -0.806000
      3 C2          4.1120   -1.4450   -0.1260 cd        1 L1B      0.896200
      4 N2          4.1430   -0.1820   -0.7300 nd        1 L1B     -0.758000
      5 C3          3.0590    0.5900   -0.5880 cc        1 L1B      0.582600
      6 C4          1.9070    0.1740    0.1440 cc        1 L1B     -0.525200
      7 N3          0.8520   -1.6450    1.4190 nh        1 L1B     -0.492100
      8 N4          5.2150   -2.2490   -0.2800 nh        1 L1B     -0.895800
      9 C5          3.0710    1.9520   -1.2350 c3        1 L1B     -0.121700
     10 C6          3.8490    2.0190   -2.5250 c3        1 L1B     -0.088100
     11 C7          0.8500    2.3260    0.8090 ca        1 L1B     -0.115000
     12 C8         -0.2530    3.1270    0.9500 ca        1 L1B     -0.081000
     13 C9         -1.5430    2.6740    0.5630 ca        1 L1B     -0.094000
     14 C10        -1.6740    1.3540    0.0150 ca        1 L1B      0.041700
     15 C11        -0.5160    0.5420   -0.1170 ca        1 L1B     -0.191000
     16 C12         0.7330    1.0110    0.2720 ca        1 L1B      0.122000
     17 C13        -2.6870    3.4920    0.7060 cc        1 L1B      0.028000
     18 C14        -3.9240    3.0110    0.3130 cc        1 L1B     -0.195000
     19 C15        -4.0220    1.7140   -0.2240 cd        1 L1B      0.022700
     20 N5         -2.9430    0.9100   -0.3790 na        1 L1B      0.015900
     21 C16        -3.1220   -0.4320   -0.9460 c3        1 L1B     -0.005700
     22 C17        -3.1140   -1.5450    0.0970 c3        1 L1B     -0.110400
     23 C18        -3.3040   -2.8840   -0.6020 c3        1 L1B      0.131400
     24 O1         -3.3190   -3.8570    0.4350 os        1 L1B     -0.419600
     25 C19        -3.4880   -5.1790   -0.0580 c3        1 L1B      0.112700
     26 HN31        0.9830   -2.4910    1.9320 hn        1 L1B      0.267700
     27 HN32        0.2800   -0.9660    1.8650 hn        1 L1B      0.267700
     28 HN41        6.0060   -1.9150   -0.7750 hn        1 L1B      0.461800
     29 HN42        5.2420   -3.1440    0.1470 hn        1 L1B      0.461800
     30 H51         3.5120    2.6740   -0.4940 hc        1 L1B      0.055200
     31 H52         2.0120    2.2670   -1.4330 hc        1 L1B      0.055200
     32 H61         4.9410    1.8590   -2.3480 hc        1 L1B      0.049700
     33 H62         3.4940    1.2430   -3.2450 hc        1 L1B      0.049700
     34 H63         3.7130    3.0260   -2.9900 hc        1 L1B      0.049700
     35 H8         -0.1610    4.1430    1.3730 ha        1 L1B      0.165000
     36 H11        -0.5880   -0.4720   -0.5450 ha        1 L1B      0.176000
     37 H13        -2.5830    4.5070    1.1300 ha        1 L1B      0.181000
     38 H14        -4.8400    3.6170    0.4090 ha        1 L1B      0.193000
     39 H15        -5.0080    1.3140   -0.5440 h4        1 L1B      0.199000
     40 H161       -4.1060   -0.4490   -1.5000 h1        1 L1B      0.093200
     41 H162       -2.3020   -0.6020   -1.7040 h1        1 L1B      0.093200
     42 H171       -2.1450   -1.5600    0.6620 hc        1 L1B      0.078700
     43 H172       -3.9380   -1.4000    0.8440 hc        1 L1B      0.078700
     44 H181       -4.2750   -2.9110   -1.1660 h1        1 L1B      0.036700
     45 H182       -2.4590   -3.0920   -1.3120 h1        1 L1B      0.036700
     46 H191       -4.4620   -5.2760   -0.5980 h1        1 L1B      0.046033
     47 H192       -2.6430   -5.4560   -0.7350 h1        1 L1B      0.046033
     48 H193       -3.4810   -5.8150    0.8630 h1        1 L1B      0.046033
     49 H7          1.8480    2.6830    1.1170 ha        1 L1B      0.173000
@<TRIPOS>BOND
     1    1    2 1   
     2    1    6 1   
     3    1    7 2   
     4    2    3 2   
     5    3    4 1   
     6    3    8 1   
     7    4    5 2   
     8    5    6 1   
     9    5    9 1   
    10    6   16 2   
    11    7   26 1   
    12    7   27 1   
    13    8   28 1   
    14    8   29 1   
    15    9   10 1   
    16    9   30 1   
    17    9   31 1   
    18   10   32 1   
    19   10   33 1   
    20   10   34 1   
    21   11   12 ar  
    22   11   16 ar  
    23   11   49 1   
    24   12   13 ar  
    25   12   35 1   
    26   13   14 ar  
    27   13   17 2   
    28   14   15 ar  
    29   14   20 1   
    30   15   16 ar  
    31   15   36 1   
    32   17   18 1   
    33   17   37 1   
    34   18   19 2   
    35   18   38 1   
    36   19   20 1   
    37   19   39 1   
    38   20   21 1   
    39   21   22 1   
    40   21   40 1   
    41   21   41 1   
    42   22   23 1   
    43   22   42 1   
    44   22   43 1   
    45   23   24 1   
    46   23   44 1   
    47   23   45 1   
    48   24   25 1   
    49   25   46 1   
    50   25   47 1   
    51   25   48 1   
@<TRIPOS>SUBSTRUCTURE
     1 L1B         1 TEMP              0 ****  ****    0 ROOT
