@<TRIPOS>MOLECULE
L1C
   62    66     1     0     0
SMALL
bcc


@<TRIPOS>ATOM
      1 F2         -0.3150   -1.2560    2.1330 f         1 L1C     -0.128900
      2 C14         0.8830   -1.0960    1.5260 ca        1 L1C      0.161900
      3 C15         2.0040   -0.7260    2.2840 ca        1 L1C     -0.207000
      4 C16         3.2450   -0.5660    1.6430 ca        1 L1C      0.158900
      5 F1          4.3060   -0.1910    2.3970 f         1 L1C     -0.133900
      6 C17         3.3820   -0.7860    0.2530 ca        1 L1C     -0.170300
      7 C18         2.2370   -1.1350   -0.4740 ca        1 L1C     -0.070000
      8 C13         1.0010   -1.2960    0.1370 ca        1 L1C     -0.179000
      9 C8          4.6980   -0.6150   -0.4560 c3        1 L1C      0.201100
     10 O3          4.5910   -0.9660   -1.8280 oh        1 L1C     -0.569800
     11 C11         5.8380   -1.4480    0.2090 c3        1 L1C      0.046000
     12 N2          6.9530   -0.5570    0.4710 n         1 L1C     -0.440800
     13 C12         7.8060   -0.7570    1.5840 c         1 L1C      0.768100
     14 O2          8.4430    0.2190    2.0540 o         1 L1C     -0.644100
     15 N3          7.9460   -2.0570    2.0960 ns        1 L1C     -0.453100
     16 C2          8.9210   -2.4190    3.0460 ca        1 L1C      0.062600
     17 C7          9.3750   -1.5300    4.0440 ca        1 L1C     -0.149500
     18 C6         10.2920   -1.9580    4.9980 ca        1 L1C     -0.101000
     19 C5         10.7680   -3.2710    4.9800 ca        1 L1C     -0.003600
     20 Cl1        11.8840   -3.7870    6.1530 cl        1 L1C     -0.090400
     21 C4         10.3290   -4.1630    3.9980 ca        1 L1C     -0.101000
     22 C3          9.4180   -3.7440    3.0370 ca        1 L1C     -0.149500
     23 C10         6.6430    0.8190    0.0820 c3        1 L1C      0.025700
     24 C9          5.1890    0.8480   -0.4300 c3        1 L1C     -0.079400
     25 C1          7.6160    1.3620   -1.0000 c         1 L1C      0.674100
     26 O1          7.1810    1.8830   -2.0360 o         1 L1C     -0.544100
     27 N1          8.9650    1.3030   -0.6700 ns        1 L1C     -0.555400
     28 C26        10.0470    1.5810   -1.5230 ca        1 L1C      0.541200
     29 C27        11.3110    1.8820   -0.9300 ca        1 L1C     -0.281300
     30 C28        12.4020    2.1550   -1.7430 ca        1 L1C     -0.045000
     31 C29        12.2450    2.1320   -3.1440 ca        1 L1C     -0.127700
     32 C30        10.9580    1.7950   -3.6460 ca        1 L1C      0.415200
     33 N6          9.8930    1.5300   -2.8840 nb        1 L1C     -0.663000
     34 N4         13.3180    2.4240   -4.0270 n         1 L1C     -0.246200
     35 C24        13.0670    3.2050   -5.1430 cc        1 L1C      0.014600
     36 C23        14.0330    3.4960   -6.0710 cd        1 L1C     -0.249000
     37 C19        15.3520    2.9780   -5.8950 cd        1 L1C     -0.038000
     38 C21        15.6390    2.2180   -4.8090 cc        1 L1C     -0.256200
     39 C20        14.6250    1.9070   -3.7970 c         1 L1C      0.689700
     40 O4         14.8590    1.2340   -2.7750 o         1 L1C     -0.633500
     41 H15         1.9160   -0.5560    3.3670 ha        1 L1C      0.170000
     42 H13         0.1130   -1.5720   -0.4510 ha        1 L1C      0.159000
     43 H18         2.3130   -1.2680   -1.5670 ha        1 L1C      0.159000
     44 H3          4.4360   -1.9180   -1.8730 ho        1 L1C      0.403000
     45 H111        5.4550   -1.9350    1.1480 h1        1 L1C      0.061200
     46 H112        6.1860   -2.2500   -0.5010 h1        1 L1C      0.061200
     47 H91C        4.5600    1.4550    0.2650 hc        1 L1C      0.097700
     48 H92C        5.1270    1.2870   -1.4600 hc        1 L1C      0.097700
     49 H10         6.7470    1.5090    0.9750 h1        1 L1C      0.094700
     50 HA          7.5950   -2.8120    1.5460 hn        1 L1C      0.317500
     51 H7          9.0150   -0.4880    4.0710 ha        1 L1C      0.154000
     52 HB          9.0880   -4.4620    2.2700 ha        1 L1C      0.154000
     53 H6         10.6390   -1.2520    5.7690 ha        1 L1C      0.150500
     54 H4         10.7040   -5.1980    3.9790 ha        1 L1C      0.150500
     55 H1          9.2140    1.0550    0.2660 hn        1 L1C      0.351500
     56 H27        11.4300    1.8960    0.1630 ha        1 L1C      0.153000
     57 H28        13.3870    2.3660   -1.2920 ha        1 L1C      0.169000
     58 H30        10.7680    1.7270   -4.7350 h4        1 L1C      0.028100
     59 H24        12.0350    3.5930   -5.2400 h4        1 L1C      0.160000
     60 H23        13.7980    4.1230   -6.9390 ha        1 L1C      0.153000
     61 H19        16.1180    3.2110   -6.6510 ha        1 L1C      0.141000
     62 H21        16.6330    1.7910   -4.6150 ha        1 L1C      0.164000
@<TRIPOS>BOND
     1    1    2 1   
     2    2    3 ar  
     3    2    8 ar  
     4    3    4 ar  
     5    3   41 1   
     6    4    5 1   
     7    4    6 ar  
     8    6    7 ar  
     9    6    9 1   
    10    7    8 ar  
    11    7   43 1   
    12    8   42 1   
    13    9   10 1   
    14    9   11 1   
    15    9   24 1   
    16   10   44 1   
    17   11   12 1   
    18   11   45 1   
    19   11   46 1   
    20   12   13 1   
    21   12   23 1   
    22   13   14 2   
    23   13   15 1   
    24   15   16 1   
    25   15   50 1   
    26   16   17 ar  
    27   16   22 ar  
    28   17   18 ar  
    29   17   51 1   
    30   18   19 ar  
    31   18   53 1   
    32   19   20 1   
    33   19   21 ar  
    34   21   22 ar  
    35   21   54 1   
    36   22   52 1   
    37   23   24 1   
    38   23   25 1   
    39   23   49 1   
    40   24   47 1   
    41   24   48 1   
    42   25   26 2   
    43   25   27 1   
    44   27   28 1   
    45   27   55 1   
    46   28   29 ar  
    47   28   33 ar  
    48   29   30 ar  
    49   29   56 1   
    50   30   31 ar  
    51   30   57 1   
    52   31   32 ar  
    53   31   34 1   
    54   32   33 ar  
    55   32   58 1   
    56   34   35 1   
    57   34   39 1   
    58   35   36 2   
    59   35   59 1   
    60   36   37 1   
    61   36   60 1   
    62   37   38 2   
    63   37   61 1   
    64   38   39 1   
    65   38   62 1   
    66   39   40 2   
@<TRIPOS>SUBSTRUCTURE
     1 L1C         1 TEMP              0 ****  ****    0 ROOT
