@<TRIPOS>MOLECULE
L1C
   64    68     1     0     0
SMALL
bcc


@<TRIPOS>ATOM
      1 F2          0.6200   -0.7260   -1.1770 f         1 L1C     -0.092900
      2 C14         1.9410   -0.7090   -0.9150 ca        1 L1C      0.202900
      3 C15         2.3970   -0.2780    0.3440 ca        1 L1C     -0.194000
      4 C16         3.7740   -0.2690    0.6050 ca        1 L1C      0.144900
      5 F1          4.1980    0.1670    1.8210 f         1 L1C     -0.160900
      6 C17         4.7090   -0.6960   -0.3670 ca        1 L1C     -0.218300
      7 C18         4.2230   -1.0970   -1.6190 ca        1 L1C     -0.060000
      8 C13         2.8630   -1.1150   -1.9000 ca        1 L1C     -0.162000
      9 C8          6.1840   -0.6710   -0.1020 c3        1 L1C      0.236100
     10 O3          6.9550   -1.2650   -1.1300 oh        1 L1C     -0.576800
     11 C11         6.5570   -1.3750    1.2480 c3        1 L1C      0.040000
     12 N2          7.3130   -0.4130    2.0330 n         1 L1C     -0.421800
     13 C12         7.6110   -0.4970    3.3670 c         1 L1C      0.652100
     14 O2          8.2040    0.3750    4.0190 o         1 L1C     -0.515100
     15 N3          7.2210   -1.7390    4.1540 n4        1 L1C     -0.502200
     16 C2          8.1140   -2.8710    3.8900 ca        1 L1C     -0.090400
     17 C7          9.4310   -2.8420    4.3850 ca        1 L1C     -0.087000
     18 C6         10.2610   -3.9380    4.1750 ca        1 L1C     -0.104500
     19 C5          9.7880   -5.0610    3.4780 ca        1 L1C      0.071400
     20 CL1        10.7940   -6.3850    3.2340 cl        1 L1C      0.021600
     21 C4          8.4720   -5.0810    2.9880 ca        1 L1C     -0.104500
     22 C3          7.6330   -3.9920    3.1880 ca        1 L1C     -0.087000
     23 C10         7.5570    0.8360    1.3160 c3        1 L1C      0.065700
     24 C9          6.7180    0.7790    0.0230 c3        1 L1C     -0.097400
     25 C1          9.0470    1.0150    0.9750 c         1 L1C      0.525100
     26 O1          9.9150    0.1610    0.9650 o         1 L1C     -0.370100
     27 N1          9.4600    2.4340    0.6490 n4        1 L1C     -0.637500
     28 C26        10.2220    2.5230   -0.6170 ca        1 L1C      0.381200
     29 C27        11.6020    2.8080   -0.5860 ca        1 L1C     -0.149300
     30 C28        12.2840    2.8820   -1.8000 ca        1 L1C     -0.092000
     31 C29        11.5940    2.6670   -3.0160 ca        1 L1C      0.033300
     32 C30        10.1840    2.3830   -2.9180 ca        1 L1C      0.394200
     33 N6          9.5190    2.3090   -1.7690 nb        1 L1C     -0.646000
     34 N4         12.2350    2.7070   -4.2590 n         1 L1C     -0.274200
     35 C24        11.5320    3.1610   -5.3840 cc        1 L1C     -0.037400
     36 C23        12.0840    3.1770   -6.6290 cd        1 L1C     -0.170000
     37 C19        13.4300    2.7170   -6.8240 cd        1 L1C     -0.033000
     38 C21        14.1490    2.2820   -5.7650 cc        1 L1C     -0.223200
     39 C20        13.5910    2.2550   -4.4100 c         1 L1C      0.700700
     40 O4         14.2070    1.8580   -3.4080 o         1 L1C     -0.606500
     41 H15         1.6800    0.0560    1.1110 ha        1 L1C      0.188000
     42 H13         2.4960   -1.4380   -2.8890 ha        1 L1C      0.184000
     43 H18         4.9280   -1.3910   -2.4150 ha        1 L1C      0.161000
     44 H3          6.5740   -2.1310   -1.3360 ho        1 L1C      0.434000
     45 H111        5.6280   -1.6910    1.7970 h1        1 L1C      0.085700
     46 H112        7.2020   -2.2770    1.0430 h1        1 L1C      0.085700
     47 H91C        5.8590    1.4940    0.1080 hc        1 L1C      0.118700
     48 H92C        7.3210    1.0330   -0.8870 hc        1 L1C      0.118700
     49 H10         7.2390    1.7000    1.9760 h1        1 L1C      0.113700
     50 HA          7.3030   -1.4820    5.1540 hn        1 L1C      0.480300
     51 H7          9.8160   -1.9700    4.9410 ha        1 L1C      0.161500
     52 HB          6.5990   -4.0340    2.8070 ha        1 L1C      0.161500
     53 H6         11.2930   -3.9230    4.5680 ha        1 L1C      0.190500
     54 H4          8.0950   -5.9690    2.4490 ha        1 L1C      0.190500
     55 H1          8.6270    3.0340    0.5820 hn        1 L1C      0.471300
     56 H27        12.1510    2.9760    0.3550 ha        1 L1C      0.171000
     57 H28        13.3720    3.0950   -1.7930 ha        1 L1C      0.216000
     58 H30         9.5710    2.1890   -3.8220 h4        1 L1C      0.064100
     59 H24        10.5100    3.5410   -5.2010 h4        1 L1C      0.158000
     60 H23        11.5090    3.5530   -7.4890 ha        1 L1C      0.176000
     61 H19        13.8530    2.7360   -7.8430 ha        1 L1C      0.172000
     62 H21        15.1890    1.9240   -5.8400 ha        1 L1C      0.190000
     63 H32         6.2500   -2.0070    3.9530 hn        1 L1C      0.480300
     64 H12        10.0670    2.7850    1.4030 hn        1 L1C      0.471300
@<TRIPOS>BOND
     1    1    2 1   
     2    2    3 ar  
     3    2    8 ar  
     4    3    4 ar  
     5    3   41 1   
     6    4    5 1   
     7    4    6 ar  
     8    6    7 ar  
     9    6    9 1   
    10    7    8 ar  
    11    7   43 1   
    12    8   42 1   
    13    9   10 1   
    14    9   11 1   
    15    9   24 1   
    16   10   44 1   
    17   11   12 1   
    18   11   45 1   
    19   11   46 1   
    20   12   13 1   
    21   12   23 1   
    22   13   14 2   
    23   13   15 1   
    24   15   16 1   
    25   15   50 1   
    26   15   63 1   
    27   16   17 ar  
    28   16   22 ar  
    29   17   18 ar  
    30   17   51 1   
    31   18   19 ar  
    32   18   53 1   
    33   19   20 1   
    34   19   21 ar  
    35   21   22 ar  
    36   21   54 1   
    37   22   52 1   
    38   23   24 1   
    39   23   25 1   
    40   23   49 1   
    41   24   47 1   
    42   24   48 1   
    43   25   26 2   
    44   25   27 1   
    45   27   28 1   
    46   27   55 1   
    47   27   64 1   
    48   28   29 ar  
    49   28   33 ar  
    50   29   30 ar  
    51   29   56 1   
    52   30   31 ar  
    53   30   57 1   
    54   31   32 ar  
    55   31   34 1   
    56   32   33 ar  
    57   32   58 1   
    58   34   35 1   
    59   34   39 1   
    60   35   36 2   
    61   35   59 1   
    62   36   37 1   
    63   36   60 1   
    64   37   38 2   
    65   37   61 1   
    66   38   39 1   
    67   38   62 1   
    68   39   40 2   
@<TRIPOS>SUBSTRUCTURE
     1 L1C         1 TEMP              0 ****  ****    0 ROOT
